data_image0
_chemical_formula_structural       Fe2H48Pd2C76N12
_chemical_formula_sum              "Fe2 H48 Pd2 C76 N12"
_cell_length_a       7.192491472574238
_cell_length_b       13.751945973519609
_cell_length_c       16.250522489035866
_cell_angle_alpha    73.9941365667769
_cell_angle_beta     83.31535088454069
_cell_angle_gamma    90.04734914750415

_space_group_name_H-M_alt    "P 1"
_space_group_IT_number       1

loop_
  _space_group_symop_operation_xyz
  'x, y, z'

loop_
  _atom_site_type_symbol
  _atom_site_label
  _atom_site_symmetry_multiplicity
  _atom_site_fract_x
  _atom_site_fract_y
  _atom_site_fract_z
  _atom_site_occupancy
  Fe  Fe1       1.0  0.4999989685313509  0.9999993809981194  0.5000009291994586  1.0000
  Fe  Fe2       1.0  0.5000028128427585  0.5000010184063727  0.5000005139854266  1.0000
  H   H1        1.0  0.4441450126965448  0.022026590018036505  0.6745913640567309  1.0000
  H   H2        1.0  0.5558590329733518  0.9779724044773986  0.3254073866496512  1.0000
  H   H3        1.0  0.42733529458979547  0.9116409182741236  0.824039262563076  1.0000
  H   H4        1.0  0.5726673490947858  0.08835807871700752  0.17596017414575724  1.0000
  H   H5        1.0  0.4994102542088469  0.6560822642091041  0.7177290600882458  1.0000
  H   H6        1.0  0.5005852968642514  0.343915214330238  0.2822704805831791  1.0000
  H   H7        1.0  0.5083309143080611  0.7772274484297272  0.572296883606839  1.0000
  H   H8        1.0  0.4916660800928056  0.22277079307904304  0.4277036340869671  1.0000
  H   H9        1.0  0.2191583074725045  0.4924885207868428  0.38403605144441844  1.0000
  H   H10       1.0  0.7808430624742827  0.5075127694128484  0.6159678307305754  1.0000
  H   H11       1.0  0.21156370123011917  0.5238329724549757  0.2262919744688858  1.0000
  H   H12       1.0  0.7884307646859054  0.4761698298996678  0.7737119009085872  1.0000
  H   H13       1.0  0.8070079693444753  0.5905108005823506  0.19120711797337717  1.0000
  H   H14       1.0  0.19298366813914206  0.40949121856856147  0.8087915479409205  1.0000
  H   H15       1.0  0.7914034639242329  0.5518981217958584  0.3509165511080283  1.0000
  H   H16       1.0  0.2085992295431325  0.44810162929540104  0.6490820894040252  1.0000
  H   H17       1.0  0.5178292766563217  0.9112647724725349  0.9759906603945507  1.0000
  H   H18       1.0  0.48216100018442626  0.0887380146391834  0.024010354547037607  1.0000
  H   H19       1.0  0.20324080016169432  0.8589282022457995  0.9516246523623546  1.0000
  H   H20       1.0  0.7967522287568157  0.1410738286156672  0.04837640157651891  1.0000
  H   H21       1.0  0.9736377810934513  0.768026766804944  0.0759875646652404  1.0000
  H   H22       1.0  0.026363406602861496  0.2319714842642497  0.9240145838536407  1.0000
  H   H23       1.0  0.056444112422901996  0.729970585029406  0.2251839539283793  1.0000
  H   H24       1.0  0.9435612314465727  0.27002690445259253  0.7748169327799274  1.0000
  H   H25       1.0  0.2846745467015807  0.738179496487035  0.3254970475903037  1.0000
  H   H26       1.0  0.7153350465763779  0.26181874813175915  0.6745028293300734  1.0000
  H   H27       1.0  0.5964232981071262  0.7900646320839615  0.35134725473461254  1.0000
  H   H28       1.0  0.4035878009418922  0.20993511255689157  0.6486491141789442  1.0000
  H   H29       1.0  0.8273037428462401  0.8830622804418836  0.22738054485661507  1.0000
  H   H30       1.0  0.17270180859471648  0.11693821407561701  0.7726146978429396  1.0000
  H   H31       1.0  0.7469121658046234  0.921552751450207  0.07796182539146908  1.0000
  H   H32       1.0  0.25308652716819313  0.07845001500487571  0.9220338439245948  1.0000
  H   H33       1.0  0.8512632094874206  0.831416103889879  0.9525322778175748  1.0000
  H   H34       1.0  0.14873085480537174  0.1685798490561581  0.047465237612030406  1.0000
  H   H35       1.0  0.8244548027017727  0.012834463917755598  0.8757728847677766  1.0000
  H   H36       1.0  0.17554354179154064  0.9871630238364446  0.1242283579257659  1.0000
  H   H37       1.0  0.8782187232758288  0.07096194719007091  0.7149341259188233  1.0000
  H   H38       1.0  0.12178116622090579  0.9290378088925664  0.285065886598133  1.0000
  H   H39       1.0  0.9631531040114608  0.9488259482414209  0.6310677812947887  1.0000
  H   H40       1.0  0.03684832837861759  0.05117607901089371  0.3689316158509897  1.0000
  H   H41       1.0  0.029754327612685906  0.7736589061064622  0.6270509533681474  1.0000
  H   H42       1.0  0.9702498176227863  0.22634159658922204  0.3729462049446681  1.0000
  H   H43       1.0  0.0659709153028416  0.5942081683005896  0.7028816672315086  1.0000
  H   H44       1.0  0.9340360752457144  0.40579309486884085  0.29711578210124395  1.0000
  H   H45       1.0  0.016013894371951696  0.535009505901499  0.865025191718125  1.0000
  H   H46       1.0  0.9839943530337292  0.46498948678936347  0.13497273059171283  1.0000
  H   H47       1.0  0.9288210209809191  0.6567302649321293  0.948681407501482  1.0000
  H   H48       1.0  0.07117463176783899  0.3432687189662145  0.051315925970968096  1.0000
  Pd  Pd1       1.0  0.007304744191380109  0.7634693142576197  0.465639006217941  1.0000
  Pd  Pd2       1.0  0.9926978720621163  0.2365297196697469  0.5343684229611583  1.0000
  C   C1        1.0  0.4541650341530925  0.940571855723199  0.686952206737864  1.0000
  C   C2        1.0  0.5458375618587893  0.05942638432655661  0.3130474113623478  1.0000
  C   C3        1.0  0.44478886697987724  0.8782968853266339  0.7703264479948756  1.0000
  C   C4        1.0  0.5552094817336053  0.12170059674507881  0.2296735650878574  1.0000
  C   C5        1.0  0.4632552709919793  0.7731392844815799  0.7841631877930054  1.0000
  C   C6        1.0  0.536743079831588  0.22685819474887833  0.21583621048431922  1.0000
  C   C7        1.0  0.4854291265549405  0.7365452896589844  0.7109573130153918  1.0000
  C   C8        1.0  0.5145691310332978  0.26345067284748325  0.28904183323928123  1.0000
  C   C9        1.0  0.4915707537261795  0.8038372735414755  0.6297026424822716  1.0000
  C   C10       1.0  0.508422186177178  0.19616323491349164  0.3702969298231408  1.0000
  C   C11       1.0  0.46484424745860053  0.7092992600429753  0.868299325019336  1.0000
  C   C12       1.0  0.5351542421629033  0.2907004956941038  0.13170075869467007  1.0000
  C   C13       1.0  0.4751747218702961  0.6616847549017493  0.9434210163692566  1.0000
  C   C14       1.0  0.5248252131890607  0.3383157609635106  0.056579429561729504  1.0000
  C   C15       1.0  0.2077677764197929  0.8619580111508183  0.4642431078320044  1.0000
  C   C16       1.0  0.7922350452950936  0.1380440306533046  0.5357592921437515  1.0000
  C   C17       1.0  0.8040305290916123  0.6645050687332558  0.47230608676510843  1.0000
  C   C18       1.0  0.19597204792951567  0.33549319688774665  0.5276990645837498  1.0000
  C   C19       1.0  0.1929638963769307  0.6556254966015231  0.48450743180175226  1.0000
  C   C20       1.0  0.8070429924959724  0.34437426120890546  0.515492224729968  1.0000
  C   C21       1.0  0.8190558102057823  0.8689834685979037  0.45827245250186616  1.0000
  C   C22       1.0  0.18094400207707653  0.13101557032084798  0.5417363486821428  1.0000
  C   C23       1.0  0.34641478972742584  0.5132945021288222  0.3391881289277449  1.0000
  C   C24       1.0  0.6535852322369989  0.48670753898417723  0.6608144134421037  1.0000
  C   C25       1.0  0.3428256239269273  0.5311988859853969  0.25140133401129117  1.0000
  C   C26       1.0  0.6571632964911204  0.46880466340464033  0.7486008003467786  1.0000
  C   C27       1.0  0.5091375651730132  0.5606463399181649  0.19428883387283238  1.0000
  C   C28       1.0  0.49085410943288815  0.439356450380366  0.8057127246771144  1.0000
  C   C29       1.0  0.6741887119703094  0.5673125369723806  0.23170830864135178  1.0000
  C   C30       1.0  0.3258044144036917  0.4326910049305824  0.7682917677093639  1.0000
  C   C31       1.0  0.6665161476303253  0.5464352743646897  0.3204624288756719  1.0000
  C   C32       1.0  0.33348392622696826  0.4535675180071905  0.6795387024919888  1.0000
  C   C33       1.0  0.5051838013439393  0.5871905181552322  0.10454055481007164  1.0000
  C   C34       1.0  0.4948066619674519  0.4128153024044821  0.895460964176813  1.0000
  C   C35       1.0  0.4904578298864094  0.6182712295398006  0.027190909469702266  1.0000
  C   C36       1.0  0.5095421962981773  0.3817308058907046  0.9728104032893368  1.0000
  C   C37       1.0  0.46872164928490884  0.8507461666734458  0.11510436457853493  1.0000
  C   C38       1.0  0.5312796962000943  0.1492543353311291  0.8848929361283735  1.0000
  C   C39       1.0  0.41678508990674595  0.8717681953161857  0.03044143599723977  1.0000
  C   C40       1.0  0.5832187629622609  0.1282277742550022  0.9695586550800569  1.0000
  C   C41       1.0  0.24209733113323045  0.8425360279611884  0.016816995298562107  1.0000
  C   C42       1.0  0.7578928566923652  0.1574652367440379  0.9831825380095651  1.0000
  C   C43       1.0  0.1117496295035139  0.7903663445739184  0.08736262757650336  1.0000
  C   C44       1.0  0.888251502079761  0.2096311609188959  0.9126421615553751  1.0000
  C   C45       1.0  0.15757467065855477  0.7688724479680573  0.17041441360419193  1.0000
  C   C46       1.0  0.8424281700470856  0.23112956826481929  0.829582453122917  1.0000
  C   C47       1.0  0.33587393079898925  0.7982236529308295  0.1866277895235697  1.0000
  C   C48       1.0  0.6641260519330671  0.20177761987580572  0.8133724750160383  1.0000
  C   C49       1.0  0.386263165252288  0.777575455417562  0.27134370400284513  1.0000
  C   C50       1.0  0.6137491822135245  0.22242203010973333  0.7286555971094157  1.0000
  C   C51       1.0  0.5600907291133267  0.8068175902978326  0.2857387003740896  1.0000
  C   C52       1.0  0.439915000357935  0.19318594903265315  0.7142595055923876  1.0000
  C   C53       1.0  0.6910340808916826  0.8589672525710411  0.21538969066673272  1.0000
  C   C54       1.0  0.3089726278408307  0.1410294632676496  0.7846076174034733  1.0000
  C   C55       1.0  0.6463051133821623  0.8805149240542107  0.13205412887121068  1.0000
  C   C56       1.0  0.3536977686659312  0.1194878576437901  0.8679444008807379  1.0000
  C   C57       1.0  0.9302736950770124  0.785963349203257  0.8362318157666878  1.0000
  C   C58       1.0  0.06971635606072368  0.21403563615409382  0.16376641729936378  1.0000
  C   C59       1.0  0.8792330423659962  0.8577175072200446  0.8823397562285179  1.0000
  C   C60       1.0  0.12076106115916468  0.1422792140323637  0.11766003703132807  1.0000
  C   C61       1.0  0.862884897907847  0.9584002091464756  0.8395236913656416  1.0000
  C   C62       1.0  0.13711060549255194  0.04159651245149122  0.16047603069715416  1.0000
  C   C63       1.0  0.8943969523793955  0.9915547345696327  0.7483024175652204  1.0000
  C   C64       1.0  0.10560284599210228  0.008443501947759603  0.251696728123683  1.0000
  C   C65       1.0  0.9409006523511464  0.9236583160171747  0.7013559250084569  1.0000
  C   C66       1.0  0.05909644372537311  0.0763414308505972  0.2986423854863815  1.0000
  C   C67       1.0  0.9600847024366529  0.819750429372519  0.743675427589551  1.0000
  C   C68       1.0  0.0399151912802509  0.1802493210276239  0.2563233553165958  1.0000
  C   C69       1.0  0.007448546904775807  0.7478610462862677  0.6973935874242656  1.0000
  C   C70       1.0  0.9925511603414846  0.2521356706658793  0.3026046914365779  1.0000
  C   C71       1.0  0.026648986011601004  0.6475754426750131  0.7400834759503283  1.0000
  C   C72       1.0  0.9733538441436239  0.3524265877641142  0.25991646480380837  1.0000
  C   C73       1.0  0.9993416207958957  0.6143943958570902  0.8313491557136599  1.0000
  C   C74       1.0  0.0006693829077164971  0.38560383490101907  0.1686475759826465  1.0000
  C   C75       1.0  0.9516304718509687  0.682186581128498  0.8783305571070983  1.0000
  C   C76       1.0  0.0483667566932411  0.31781545076963635  0.12167028324063266  1.0000
  N   N1        1.0  0.4785728549699114  0.9050295776062286  0.6169447090212044  1.0000
  N   N2        1.0  0.5214255911990548  0.09496941550697362  0.38305432647336346  1.0000
  N   N3        1.0  0.3241225787945225  0.9172489917447919  0.47172263769059  1.0000
  N   N4        1.0  0.6758802492506248  0.0827530415355824  0.5282779178689481  1.0000
  N   N5        1.0  0.6826977071757768  0.6045393821521402  0.48040284703611036  1.0000
  N   N6        1.0  0.31730366699117946  0.39546190236504947  0.5195998055280739  1.0000
  N   N7        1.0  0.30812260811794795  0.5947344195493544  0.49479321822021666  1.0000
  N   N8        1.0  0.6918800313464643  0.4052645831242786  0.5052074480994264  1.0000
  N   N9        1.0  0.5055340494803318  0.5206408239786668  0.3745297346724001  1.0000
  N   N10       1.0  0.4944631398315096  0.47936043961310293  0.6254688278450828  1.0000
  N   N11       1.0  0.6986682202245189  0.9237044566261616  0.467287954598774  1.0000
  N   N12       1.0  0.30133035419196824  0.07629682719990429  0.5327148403594961  1.0000
