data_image0
_chemical_formula_structural       Cd2H52C68N4O20
_chemical_formula_sum              "Cd2 H52 C68 N4 O20"
_cell_length_a       7.7310357666591765
_cell_length_b       10.069929062667567
_cell_length_c       18.348646190458265
_cell_angle_alpha    88.02964805613371
_cell_angle_beta     80.93413971522236
_cell_angle_gamma    88.96614609442042

_space_group_name_H-M_alt    "P 1"
_space_group_IT_number       1

loop_
  _space_group_symop_operation_xyz
  'x, y, z'

loop_
  _atom_site_type_symbol
  _atom_site_label
  _atom_site_symmetry_multiplicity
  _atom_site_fract_x
  _atom_site_fract_y
  _atom_site_fract_z
  _atom_site_occupancy
  Cd  Cd1       1.0  0.7043729854816263  0.49290605921044056  0.6107412897832776  1.0000
  Cd  Cd2       1.0  0.2956352906775593  0.5070917253403523  0.3892551128489786  1.0000
  H   H1        1.0  0.7224584963604245  0.911470366612605  0.9861138943644578  1.0000
  H   H2        1.0  0.2775409038753764  0.0885213598265864  0.0138859829576319  1.0000
  H   H3        1.0  0.1837650360169292  0.8870180352362738  0.9856942537756344  1.0000
  H   H4        1.0  0.8162368207881627  0.11297868839097451  0.014305897053816427  1.0000
  H   H5        1.0  0.32270039937302647  0.466922381222119  0.6441375392260726  1.0000
  H   H6        1.0  0.6773038526222949  0.5330793370577213  0.3558607093864695  1.0000
  H   H7        1.0  0.3852592737395497  0.3920042007743022  0.5677086197647443  1.0000
  H   H8        1.0  0.6147425475558564  0.607993516475446  0.4322915144170098  1.0000
  H   H9        1.0  0.057204095122422416  0.5256789961020019  0.6476074223306159  1.0000
  H   H10       1.0  0.9427988580110381  0.47432370348109054  0.3523925350200515  1.0000
  H   H11       1.0  0.05602653868426441  0.6010394350858093  0.5680512311363588  1.0000
  H   H12       1.0  0.9439831130606108  0.3989573713310506  0.43194618241309984  1.0000
  H   H13       1.0  0.9343236818543091  0.18648414301562616  0.41879957712345844  1.0000
  H   H14       1.0  0.0656795553566312  0.8135106075874675  0.5812005134087601  1.0000
  H   H15       1.0  0.6302059068238748  0.8224754818369037  0.41997451188468216  1.0000
  H   H16       1.0  0.3697851044478213  0.1775310636147154  0.5800256772777391  1.0000
  H   H17       1.0  0.7432169735176899  0.8192131453791665  0.8053402864348274  1.0000
  H   H18       1.0  0.2567719064763239  0.18078145069621604  0.19466246540941518  1.0000
  H   H19       1.0  0.7978957246314523  0.8291147448122941  0.6688933515374064  1.0000
  H   H20       1.0  0.2021074165750392  0.17088398218239587  0.3311083041972368  1.0000
  H   H21       1.0  0.0823953167339866  0.19269642335932963  0.6719275149938329  1.0000
  H   H22       1.0  0.9176063059637726  0.8073042709547309  0.3280693056584456  1.0000
  H   H23       1.0  0.025210723456474703  0.18183741099566225  0.8087977075788618  1.0000
  H   H24       1.0  0.9747871438101329  0.818159267433593  0.1912005483041882  1.0000
  H   H25       1.0  0.2100631675438153  0.7893616810020205  0.8067104597429524  1.0000
  H   H26       1.0  0.7899360406830953  0.21063799822036336  0.1932925479839939  1.0000
  H   H27       1.0  0.27889809461119336  0.7870613953204427  0.6705219037557699  1.0000
  H   H28       1.0  0.7210999462679837  0.21293429519109  0.3294812641545663  1.0000
  H   H29       1.0  0.5619514457902924  0.15211796881057896  0.6701117961435802  1.0000
  H   H30       1.0  0.4380425336467297  0.8478766784434056  0.3298856859505792  1.0000
  H   H31       1.0  0.4889378168666667  0.15427056233608036  0.8066876738980259  1.0000
  H   H32       1.0  0.5110585433001235  0.8457320642411899  0.1933111196225498  1.0000
  H   H33       1.0  0.759760066136991  0.2970647589456732  0.7462554499332374  1.0000
  H   H34       1.0  0.24023369542177864  0.7029368449335395  0.2537430034892056  1.0000
  H   H35       1.0  0.7084928184713064  0.27702191646866947  0.8842219741991434  1.0000
  H   H36       1.0  0.2915048962319561  0.7229777409264884  0.11577459994762763  1.0000
  H   H37       1.0  0.47047111682393716  0.6700843280943404  0.8848312837568247  1.0000
  H   H38       1.0  0.5295395247202564  0.32992143514587013  0.11516588637077524  1.0000
  H   H39       1.0  0.5382089795893563  0.6735935147235568  0.748003791433327  1.0000
  H   H40       1.0  0.4618082952513376  0.32641033300974703  0.251993487957627  1.0000
  H   H41       1.0  0.6003846131589016  0.3662165953569954  0.00027702567398078847  1.0000
  H   H42       1.0  0.39961972431625264  0.6337801510071657  0.9997180425906298  1.0000
  H   H43       1.0  0.297148790430697  0.3191836027190007  0.7448696321762613  1.0000
  H   H44       1.0  0.702848808987504  0.6808240106286689  0.25513279203069333  1.0000
  H   H45       1.0  0.24122364175433117  0.2941817092376127  0.8820451331919944  1.0000
  H   H46       1.0  0.7587713638759938  0.7058238865217704  0.11795587970239303  1.0000
  H   H47       1.0  0.9295917533936661  0.6566202235456661  0.8840363767231101  1.0000
  H   H48       1.0  0.0703980195109182  0.3433843204401087  0.11596393932731536  1.0000
  H   H49       1.0  0.9935660749735007  0.6619694792705462  0.7477686127205988  1.0000
  H   H50       1.0  0.006426321524188002  0.3380340982666894  0.2522304449301488  1.0000
  H   H51       1.0  0.10464542472293203  0.368028564908748  0.9985166330045065  1.0000
  H   H52       1.0  0.8953510582019819  0.6319740667394385  0.0014865119646003903  1.0000
  C   C1        1.0  0.8495684932562144  0.25124363106388614  0.5568319052905439  1.0000
  C   C2        1.0  0.1504400371752226  0.7487491885437195  0.4431673002355085  1.0000
  C   C3        1.0  0.6002072919832812  0.7415088999626321  0.5583320654107811  1.0000
  C   C4        1.0  0.3997956409852605  0.25849479387682817  0.4416684192232625  1.0000
  C   C5        1.0  0.9321438634051163  0.12122503538298454  0.5307583685008695  1.0000
  C   C6        1.0  0.06786079454150239  0.8787657536832258  0.4692406071673647  1.0000
  C   C7        1.0  0.965368528052096  0.10388456960910018  0.454498250081855  1.0000
  C   C8        1.0  0.0346360387102322  0.8961092009584704  0.5455012195743694  1.0000
  C   C9        1.0  0.4673214640521196  0.9768673188863064  0.5784293451724241  1.0000
  C   C10       1.0  0.5326632286900691  0.02313319435995  0.4215719557703183  1.0000
  C   C11       1.0  0.5409605002480545  0.8749127051050611  0.531335191415508  1.0000
  C   C12       1.0  0.4590320795025137  0.12508789473400134  0.46866663583364254  1.0000
  C   C13       1.0  0.5705723666386647  0.9011446213688857  0.45508126905452445  1.0000
  C   C14       1.0  0.42941352896094304  0.09885888696571503  0.5449198883525244  1.0000
  C   C15       1.0  0.968318637105078  0.0139275850382035  0.5783899955171565  1.0000
  C   C16       1.0  0.031680758310564286  0.9860651362912168  0.42161095301937496  1.0000
  C   C17       1.0  0.8376703520408811  0.0028712881555109024  0.8969918643748118  1.0000
  C   C18       1.0  0.16232902409414865  0.9971254127348246  0.10301336901947886  1.0000
  C   C19       1.0  0.8789875600529342  0.0009817221882570998  0.8159336003773707  1.0000
  C   C20       1.0  0.12101299789029706  0.9990159827422361  0.18406825919021239  1.0000
  C   C21       1.0  0.8195433420911655  0.8998587135782473  0.7760127797970713  1.0000
  C   C22       1.0  0.1804468731587008  0.10013689287593766  0.22399203753112581  1.0000
  C   C23       1.0  0.851403210873535  0.9054947124409976  0.6992647383218655  1.0000
  C   C24       1.0  0.14859351579901411  0.09450195873991873  0.30073959439553033  1.0000
  C   C25       1.0  0.9413114657604993  0.0128291608827027  0.6603931601296653  1.0000
  C   C26       1.0  0.05869054360793772  0.9871645837786364  0.3396086724360644  1.0000
  C   C27       1.0  0.007215783732583203  0.1110680178177432  0.7008532455656822  1.0000
  C   C28       1.0  0.9927873824589853  0.8889287200303501  0.29914681167115037  1.0000
  C   C29       1.0  0.9758002545202088  0.10534883925539162  0.7773879759862158  1.0000
  C   C30       1.0  0.0241991303708247  0.8946428865499317  0.22261135740480148  1.0000
  C   C31       1.0  0.30139369048598746  0.977238173899096  0.8964302813618734  1.0000
  C   C32       1.0  0.6986171343110783  0.022764611642934106  0.10356965836414395  1.0000
  C   C33       1.0  0.3461112257555996  0.9716960673567101  0.8155359231051665  1.0000
  C   C34       1.0  0.653885266809624  0.028304574511018612  0.1844650794350572  1.0000
  C   C35       1.0  0.28837165014202537  0.8679177873195202  0.7764541093446273  1.0000
  C   C36       1.0  0.7116274103416985  0.1320838759785374  0.22354614543159815  1.0000
  C   C37       1.0  0.3269875894721821  0.8671189602871087  0.7000066336213921  1.0000
  C   C38       1.0  0.6730115823607506  0.13287872725321392  0.2999925998834741  1.0000
  C   C39       1.0  0.4263528313335669  0.9692167948237373  0.6603358315195113  1.0000
  C   C40       1.0  0.5736422751213581  0.0307838296538279  0.3396625449580101  1.0000
  C   C41       1.0  0.4817407794005888  0.07363503013007033  0.6997975675525582  1.0000
  C   C42       1.0  0.5182544642729141  0.9263626147477241  0.3002019467301694  1.0000
  C   C43       1.0  0.4426405273823164  0.07469401185282722  0.7762914343260977  1.0000
  C   C44       1.0  0.5573559700030586  0.9253056351246727  0.2237084969996915  1.0000
  C   C45       1.0  0.6966790837678047  0.37702673229338773  0.7796050089069768  1.0000
  C   C46       1.0  0.30331736276312427  0.622973907672744  0.22039436184005018  1.0000
  C   C47       1.0  0.6661883501751618  0.3662595126829587  0.8562258856575585  1.0000
  C   C48       1.0  0.3338094057422367  0.633741141504025  0.14377339149685045  1.0000
  C   C49       1.0  0.5820614334006962  0.4709769791157613  0.8971717754540908  1.0000
  C   C50       1.0  0.4179401441470744  0.529026698601264  0.10282717097937426  1.0000
  C   C51       1.0  0.535621328624103  0.5844948600727733  0.8572109983935268  1.0000
  C   C52       1.0  0.46439201323701695  0.41550993988822443  0.14278763298973027  1.0000
  C   C53       1.0  0.5724895420280376  0.5875983426993872  0.7807299145521899  1.0000
  C   C54       1.0  0.42752630155236904  0.41240847104671025  0.21926686455723404  1.0000
  C   C55       1.0  0.5465538648327312  0.4564740327236266  0.9772014718762424  1.0000
  C   C56       1.0  0.4534452206360626  0.5435256414278342  0.0227971844021724  1.0000
  C   C57       1.0  0.21506280300933162  0.39128776095607526  0.7779512238065326  1.0000
  C   C58       1.0  0.7849334563328655  0.6087198369030206  0.22205020613090917  1.0000
  C   C59       1.0  0.1843295243691045  0.37828038355687005  0.8546195439530637  1.0000
  C   C60       1.0  0.8156707139869681  0.6217262639761288  0.1453821657852715  1.0000
  C   C61       1.0  0.08006329259028183  0.4734733917795922  0.896226941097098  1.0000
  C   C62       1.0  0.9199369304210239  0.5265332551195385  0.10377422471017181  1.0000
  C   C63       1.0  0.012097478764630408  0.5787702151331189  0.8563118484578215  1.0000
  C   C64       1.0  0.9878974760112484  0.421236373614903  0.1436886038578038  1.0000
  C   C65       1.0  0.0481593491772472  0.5828468998372784  0.7797288277563086  1.0000
  C   C66       1.0  0.9518317484585737  0.41715765900320884  0.22027193863256408  1.0000
  C   C67       1.0  0.046982428159964215  0.45767012349392633  0.9764859534368148  1.0000
  C   C68       1.0  0.9530165718290037  0.5423345225732278  0.02351588318953191  1.0000
  N   N1        1.0  0.6508323451166121  0.4855790923036168  0.7420910425781247  1.0000
  N   N2        1.0  0.3491731299010539  0.5144246268082141  0.2579065352153479  1.0000
  N   N3        1.0  0.14808305134799576  0.49121840303676845  0.7400381046082531  1.0000
  N   N4        1.0  0.85190818350641  0.5087831762039414  0.259963799585826  1.0000
  O   O1        1.0  0.8343141371666293  0.34640155531085537  0.509935185532193  1.0000
  O   O2        1.0  0.1656930128589593  0.653593237320905  0.49006408029109866  1.0000
  O   O3        1.0  0.7922612670796454  0.2643131527736244  0.6249656677971348  1.0000
  O   O4        1.0  0.20774204597081794  0.7356786156942408  0.3750333848160212  1.0000
  O   O5        1.0  0.6549134503079586  0.6519849462315861  0.5117156029694598  1.0000
  O   O6        1.0  0.3450829914028192  0.3480166886247816  0.48828483899200165  1.0000
  O   O7        1.0  0.5993810596891225  0.7197854968351223  0.6268510159939142  1.0000
  O   O8        1.0  0.40061801613936154  0.28021616709680336  0.3731497827133837  1.0000
  O   O9        1.0  0.8753983257790595  0.10054881721686831  0.9319634178396901  1.0000
  O   O10       1.0  0.12459302130886131  0.8994517715706608  0.06804122265742053  1.0000
  O   O11       1.0  0.7562757900521221  0.8969895040140089  0.9298932787771083  1.0000
  O   O12       1.0  0.2437313753182337  0.10300528925161959  0.07010653097724175  1.0000
  O   O13       1.0  0.22119026671292372  0.8710679024061396  0.9297691902188494  1.0000
  O   O14       1.0  0.778819213187987  0.12893586253755268  0.07023082645209663  1.0000
  O   O15       1.0  0.33551864834046086  0.07662162814405354  0.930770103819498  1.0000
  O   O16       1.0  0.6644841877393404  0.9233830567824484  0.06922818844258674  1.0000
  O   O17       1.0  0.4178672559859393  0.414227189129747  0.6167517040796259  1.0000
  O   O18       1.0  0.5821370266989163  0.5857745304178296  0.38324763239505455  1.0000
  O   O19       1.0  0.9829800633646216  0.5740503123489449  0.616315915137257  1.0000
  O   O20       1.0  0.017024244305304095  0.42594941805204223  0.3836818228396057  1.0000
