data_image0
_chemical_formula_structural       Zn2H23C46N4O12F5
_chemical_formula_sum              "Zn2 H23 C46 N4 O12 F5"
_cell_length_a       9.691156679203898
_cell_length_b       11.01839225305348
_cell_length_c       23.850186272786747
_cell_angle_alpha    90.49351155867134
_cell_angle_beta     89.3484316029143
_cell_angle_gamma    89.70456557741277

_space_group_name_H-M_alt    "P 1"
_space_group_IT_number       1

loop_
  _space_group_symop_operation_xyz
  'x, y, z'

loop_
  _atom_site_type_symbol
  _atom_site_label
  _atom_site_symmetry_multiplicity
  _atom_site_fract_x
  _atom_site_fract_y
  _atom_site_fract_z
  _atom_site_occupancy
  Zn  Zn1       1.0  0.6368371042534663  0.5055906549715489  0.4978218590660788  1.0000
  Zn  Zn2       1.0  0.3560947295969115  0.5061534510246092  0.5005176166339211  1.0000
  H   H1        1.0  0.28324946877012275  0.50830319615131  0.6787890749985479  1.0000
  H   H2        1.0  0.7270019066368718  0.4972766876383902  0.680354994469525  1.0000
  H   H3        1.0  0.31601703797333874  0.13356615390168972  0.5546145685034176  1.0000
  H   H4        1.0  0.7185777543754597  0.09398424994721213  0.40095236010497354  1.0000
  H   H5        1.0  0.8229083072611659  0.09780861938336471  0.4622991079954204  1.0000
  H   H6        1.0  0.703791237707705  0.867136750312383  0.4074681250490286  1.0000
  H   H7        1.0  0.8073827168262327  0.8704731078669639  0.4688734484431265  1.0000
  H   H8        1.0  0.12313215712366338  0.5808755209520554  0.5801927521903778  1.0000
  H   H9        1.0  0.8619308511860738  0.5878250729287302  0.5778554122389394  1.0000
  H   H10       1.0  0.8692164141029013  0.3160054978092078  0.3982760356132928  1.0000
  H   H11       1.0  0.8721685755480522  0.4646210057517449  0.36783260080287755  1.0000
  H   H12       1.0  0.1352695597317961  0.4569639388307891  0.3693245691516012  1.0000
  H   H13       1.0  0.45621287401868227  0.2091157410323348  0.0507318130281007  1.0000
  H   H14       1.0  0.45950814099157355  0.20939266267527756  0.9444435576034209  1.0000
  H   H15       1.0  0.6939435025722815  0.4214597266324064  0.21268146550706749  1.0000
  H   H16       1.0  0.6943909400524504  0.42541068397355986  0.3176464845512328  1.0000
  H   H17       1.0  0.293831826961565  0.5965791466666348  0.31893907801352833  1.0000
  H   H18       1.0  0.2782506161426356  0.5121515935159097  0.784199295100663  1.0000
  H   H19       1.0  0.3897793670906609  0.7576950288860546  0.6174318499520979  1.0000
  H   H20       1.0  0.3838867688047998  0.8991332517901253  0.6538743586066857  1.0000
  H   H21       1.0  0.23719590945005103  0.8030863627948507  0.653663107998895  1.0000
  H   H22       1.0  0.2007330645002554  0.973204816817393  0.5870575308551338  1.0000
  H   H23       1.0  0.21150533645480613  0.833297238278348  0.5499994873997096  1.0000
  C   C1        1.0  0.48154426708816805  0.7412345257731799  0.5077590748149348  1.0000
  C   C2        1.0  0.5233974563871513  0.7303928875483479  0.9701329301916743  1.0000
  C   C3        1.0  0.5228089782373075  0.7301124823252535  0.0296020337116545  1.0000
  C   C4        1.0  0.5095207554734459  0.6233864963662229  0.0596262381051957  1.0000
  C   C5        1.0  0.49514480072297573  0.5128974234828476  0.028863622537038197  1.0000
  C   C6        1.0  0.48003713789071867  0.40121844928108896  0.0572493251881241  1.0000
  C   C7        1.0  0.4672744664107995  0.2930710669973138  0.0273176737131777  1.0000
  C   C8        1.0  0.4689110044737817  0.2932019087203416  0.9686577311320264  1.0000
  C   C9        1.0  0.5124690921264302  0.6234540349913118  0.12185462805526019  1.0000
  C   C10       1.0  0.4770580994525772  0.3969935013008338  0.119334253738991  1.0000
  C   C11       1.0  0.6074658372415132  0.46021026741828297  0.23646581033190017  1.0000
  C   C12       1.0  0.4963483804962151  0.5131491836641616  0.3880100948482479  1.0000
  C   C13       1.0  0.6076168481958248  0.4625302718359806  0.2947783280232272  1.0000
  C   C14       1.0  0.49522213658823944  0.5112568483379292  0.3249553078025684  1.0000
  C   C15       1.0  0.38173050222160754  0.5576260190813401  0.2961938545156997  1.0000
  C   C16       1.0  0.3838446119321119  0.5555300083601723  0.238057238722881  1.0000
  C   C17       1.0  0.4956342459194261  0.5079102750783306  0.20752244615977838  1.0000
  C   C18       1.0  0.3756340109664507  0.5096388252804402  0.7608810524332625  1.0000
  C   C19       1.0  0.3783055117833314  0.5073531812595248  0.7026045529474416  1.0000
  C   C20       1.0  0.5043960338065787  0.5033612807796431  0.6733503526386357  1.0000
  C   C21       1.0  0.6285761603868991  0.501465116318542  0.7027446459451028  1.0000
  C   C22       1.0  0.6237851359679567  0.5044017418340516  0.7608136184538665  1.0000
  C   C23       1.0  0.5015368114876964  0.2707303987811756  0.4990365249345956  1.0000
  C   C24       1.0  0.49884485089660313  0.508462873751192  0.7904417612643044  1.0000
  C   C25       1.0  0.5930637157127805  0.9357872058933268  0.48349644371059947  1.0000
  C   C26       1.0  0.4864072798396818  0.8762358600437776  0.5113239308922033  1.0000
  C   C27       1.0  0.38556093049484014  0.9506919251341729  0.538856376103773  1.0000
  C   C28       1.0  0.3949654706915027  0.07716615269269059  0.5341598747977656  1.0000
  C   C29       1.0  0.5008148094933134  0.13640415248966062  0.5041874534650219  1.0000
  C   C30       1.0  0.6013943469445097  0.06176033274280711  0.4799146459839889  1.0000
  C   C31       1.0  0.7306492835973017  0.05768835241332229  0.443425197219085  1.0000
  C   C32       1.0  0.7211280519553328  0.9146680388383002  0.4474522190093992  1.0000
  C   C33       1.0  0.06995271857823583  0.4565283478363327  0.4590977419243103  1.0000
  C   C34       1.0  0.5053458480269626  0.5017712266684953  0.6103669254513093  1.0000
  C   C35       1.0  0.06649281753793448  0.5459421611422144  0.5443407987165827  1.0000
  C   C36       1.0  0.922307915562115  0.550791367148129  0.5428465591552651  1.0000
  C   C37       1.0  0.9268293257073524  0.4619994579341054  0.4573554553712569  1.0000
  C   C38       1.0  0.9177260473411835  0.40577088368079467  0.3996125107133892  1.0000
  C   C39       1.0  0.0812986031278982  0.4009251245058323  0.40036406979481143  1.0000
  C   C40       1.0  0.4834712549869521  0.39748614684717865  0.8775850791502932  1.0000
  C   C41       1.0  0.5139466092759194  0.6244632805247575  0.8768699448039641  1.0000
  C   C42       1.0  0.5110893169548305  0.6238744048675359  0.9391724712689467  1.0000
  C   C43       1.0  0.4962198405685997  0.5131131766945671  0.9690011014824903  1.0000
  C   C44       1.0  0.4828111670592392  0.4014997312894906  0.9396939071507262  1.0000
  C   C45       1.0  0.27112690876745654  0.8986435167178757  0.5748592334366478  1.0000
  C   C46       1.0  0.32385358096036754  0.8361741540665051  0.6279013512955416  1.0000
  N   N1        1.0  0.4978116350410247  0.510099919372678  0.8506636666187005  1.0000
  N   N2        1.0  0.49484511334839704  0.5089750330213436  0.1473434654989845  1.0000
  N   N3        1.0  0.14345761231451354  0.4987602102108896  0.5015597501341773  1.0000
  N   N4        1.0  0.8495015084411863  0.5097923945737648  0.4983790817576618  1.0000
  O   O1        1.0  0.5978934189219416  0.6861355850682926  0.5076516863927836  1.0000
  O   O2        1.0  0.5285435455968965  0.7159671301469926  0.8486720708688439  1.0000
  O   O3        1.0  0.5299998481491102  0.714445756413852  0.1506946720445441  1.0000
  O   O4        1.0  0.4607412341313761  0.3028984715027292  0.14570190441984468  1.0000
  O   O5        1.0  0.36440703228422666  0.6905331904158061  0.5028586574091491  1.0000
  O   O6        1.0  0.6142236473077887  0.5160318916546842  0.4109945106629525  1.0000
  O   O7        1.0  0.3798937161068494  0.5112502460628576  0.4132512510860593  1.0000
  O   O8        1.0  0.6176936468485009  0.3217252060169642  0.49017281056044487  1.0000
  O   O9        1.0  0.385565539848976  0.3252074039095021  0.5038312703481722  1.0000
  O   O10       1.0  0.6215872180773658  0.4904678368096568  0.5853510929124468  1.0000
  O   O11       1.0  0.3885856584431266  0.5125310718745412  0.5869169346303948  1.0000
  O   O12       1.0  0.47209697818862406  0.3032664504688398  0.8503038162262868  1.0000
  F   F1        1.0  0.5369262562865202  0.8391358049115923  0.9461982552695716  1.0000
  F   F2        1.0  0.7435644988712298  0.5028957291976468  0.790126717453866  1.0000
  F   F3        1.0  0.5360370099649572  0.8386217787866243  0.054511402091201006  1.0000
  F   F4        1.0  0.1360749981441529  0.2842993271785303  0.39766267178954007  1.0000
  F   F5        1.0  0.27407002976713096  0.6005576200221084  0.2097224676681364  1.0000
