data_image0
_chemical_formula_structural       Li4H24C24N4O16
_chemical_formula_sum              "Li4 H24 C24 N4 O16"
_cell_length_a       8.11125172846943
_cell_length_b       8.4395319937034
_cell_length_c       9.990196109085957
_cell_angle_alpha    90.00036867390642
_cell_angle_beta     90.0002753441532
_cell_angle_gamma    90.55864568984912

_space_group_name_H-M_alt    "P 1"
_space_group_IT_number       1

loop_
  _space_group_symop_operation_xyz
  'x, y, z'

loop_
  _atom_site_type_symbol
  _atom_site_label
  _atom_site_symmetry_multiplicity
  _atom_site_fract_x
  _atom_site_fract_y
  _atom_site_fract_z
  _atom_site_occupancy
  Li  Li1       1.0  0.9383852655833564  0.409552525361896  0.399160208050823  1.0000
  Li  Li2       1.0  0.5616173840635384  0.5904439810981685  0.8991601514739216  1.0000
  Li  Li3       1.0  0.06161837109080891  0.5904468387246524  0.6008397200840534  1.0000
  Li  Li4       1.0  0.43838255394820896  0.4095553716233838  0.1008397766538067  1.0000
  H   H1        1.0  0.8769305209549003  0.10808114004026952  0.42498061514372404  1.0000
  H   H2        1.0  0.6230698360526645  0.8919179340317033  0.9249793713106981  1.0000
  H   H3        1.0  0.1230706499473655  0.8919182164735919  0.575020313967741  1.0000
  H   H4        1.0  0.37692886907161943  0.10808141490151975  0.0750205568146427  1.0000
  H   H5        1.0  0.0676396463820126  0.13396977423363413  0.4152145523972309  1.0000
  H   H6        1.0  0.4323631172518745  0.8660242711044576  0.9152163653625749  1.0000
  H   H7        1.0  0.9323627493282771  0.8660284011184631  0.5847863767134952  1.0000
  H   H8        1.0  0.5676355797929559  0.1339738928786645  0.0847835627596467  1.0000
  H   H9        1.0  0.318256280394607  0.05959430607412491  0.7254029449483639  1.0000
  H   H10       1.0  0.1817490359806371  0.9403994264195746  0.2254037934079491  1.0000
  H   H11       1.0  0.6817473885943032  0.9404097978088262  0.2745959822176331  1.0000
  H   H12       1.0  0.8182484443356232  0.05960110367541202  0.7745961347181236  1.0000
  H   H13       1.0  0.4021323564601502  0.1927848624862493  0.3299707773146565  1.0000
  H   H14       1.0  0.09786373255747093  0.8072096711010348  0.8299719957148214  1.0000
  H   H15       1.0  0.5978700554059914  0.8072156827620635  0.6700291508209517  1.0000
  H   H16       1.0  0.9021324906360135  0.19278730035931352  0.17002893338086983  1.0000
  H   H17       1.0  0.6279746717715682  0.37979909668558803  0.3961375700442105  1.0000
  H   H18       1.0  0.8720205702664571  0.6201985479794774  0.8961418670147268  1.0000
  H   H19       1.0  0.37202651527741887  0.6202026297125444  0.6038593551480814  1.0000
  H   H20       1.0  0.12797688582362812  0.3797984272811378  0.1038620650273998  1.0000
  H   H21       1.0  0.5373276435046253  0.2478556715233965  0.8083421714344395  1.0000
  H   H22       1.0  0.9626769278563572  0.7521413053946094  0.3083441160307956  1.0000
  H   H23       1.0  0.46267356778575675  0.7521496097290099  0.1916557547485596  1.0000
  H   H24       1.0  0.0373230182378848  0.24785923228102297  0.6916568130814014  1.0000
  C   C1        1.0  0.3907251989468109  0.13467318817727403  0.6587559407245109  1.0000
  C   C2        1.0  0.1092785116751145  0.865324750444188  0.1587601209131364  1.0000
  C   C3        1.0  0.6092772290721413  0.8653297269632677  0.34124198545463  1.0000
  C   C4        1.0  0.8907177357536682  0.13467577586246904  0.8412398072105631  1.0000
  C   C5        1.0  0.6017117938235829  0.33009457187800006  0.609001078562855  1.0000
  C   C6        1.0  0.8982878911925027  0.6699043636197359  0.10900734947031049  1.0000
  C   C7        1.0  0.39829185092393976  0.6699059771506841  0.3909968476124348  1.0000
  C   C8        1.0  0.10171203874588032  0.3300938041596738  0.8909945806169972  1.0000
  C   C9        1.0  0.4376413237165763  0.21083296832701148  0.4340299112477338  1.0000
  C   C10       1.0  0.0623566389246761  0.7891635813639086  0.9340339013893342  1.0000
  C   C11       1.0  0.5623598633385001  0.789168758079079  0.5659690159072639  1.0000
  C   C12       1.0  0.9376395761924101  0.21083220515032516  0.065968028684587  1.0000
  C   C13       1.0  0.5630069200260762  0.3121929310003822  0.4734210361134217  1.0000
  C   C14       1.0  0.936990008587408  0.6878029620013283  0.9734209323652436  1.0000
  C   C15       1.0  0.43699550799287584  0.6878099841401595  0.5265768900657193  1.0000
  C   C16       1.0  0.0630086803901477  0.3121940170476165  0.026582999679263305  1.0000
  C   C17       1.0  0.7303918013763351  0.44888077027278683  0.653388153371445  1.0000
  C   C18       1.0  0.769601964778147  0.5511149442859706  0.1533792930160303  1.0000
  C   C19       1.0  0.26960940183459303  0.5511233260295259  0.346609772808435  1.0000
  C   C20       1.0  0.2303979489983021  0.4488808535892732  0.8466216360836896  1.0000
  C   C21       1.0  0.5131857334378084  0.23813695925226605  0.7014543078938544  1.0000
  C   C22       1.0  0.9868108230643885  0.7618638848838658  0.201454394351714  1.0000
  C   C23       1.0  0.4868154616967145  0.761865952103925  0.2985446192642627  1.0000
  C   C24       1.0  0.0131866491754593  0.23813546026500623  0.798546534752596  1.0000
  N   N1        1.0  0.35179614557426214  0.12457478783988314  0.5260897749942259  1.0000
  N   N2        1.0  0.1482042684493408  0.8754185335323189  0.026089152991339407  1.0000
  N   N3        1.0  0.6482062743682845  0.8754269423545369  0.4739091521631522  1.0000
  N   N4        1.0  0.8517931957110675  0.12457962666645982  0.9739117761098512  1.0000
  O   O1        1.0  0.8506446067554452  0.4768658292534485  0.5742708920918176  1.0000
  O   O2        1.0  0.6493695647964657  0.5231186561552337  0.0742734340830822  1.0000
  O   O3        1.0  0.1493553635710541  0.5231382632645067  0.42572803506703144  1.0000
  O   O4        1.0  0.3506303489830245  0.47687714172398904  0.925728495997987  1.0000
  O   O5        1.0  0.9614470471892816  0.1815323346486864  0.3869416768597773  1.0000
  O   O6        1.0  0.5385579939539582  0.8184640822492144  0.8869437269050451  1.0000
  O   O7        1.0  0.038555348514918805  0.8184658406954528  0.613057250288243  1.0000
  O   O8        1.0  0.4614419440547479  0.18153527046835904  0.1130552002413339  1.0000
  O   O9        1.0  0.709501319056848  0.5137959571656483  0.7657824732240783  1.0000
  O   O10       1.0  0.7904993030134265  0.4862018550089645  0.2657983777935016  1.0000
  O   O11       1.0  0.2904986351107581  0.4862057654521197  0.23421645392853208  1.0000
  O   O12       1.0  0.20950061883942794  0.5137951278123937  0.7342015503279882  1.0000
  O   O13       1.0  0.23112078622076382  0.030511777568342797  0.4841421718950656  1.0000
  O   O14       1.0  0.2688811555021147  0.9694816270572706  0.9841428965682225  1.0000
  O   O15       1.0  0.768881633724824  0.9694899526300633  0.5158577562436619  1.0000
  O   O16       1.0  0.731117533460221  0.030515351971779108  0.0158560305695303  1.0000
