data_image0
_chemical_formula_structural       Zn2H56C64N4O8
_chemical_formula_sum              "Zn2 H56 C64 N4 O8"
_cell_length_a       9.353586629522336
_cell_length_b       10.06568542835645
_cell_length_c       15.309
_cell_angle_alpha    97.45978635232566
_cell_angle_beta     105.44121301773143
_cell_angle_gamma    103.76204096170105

_space_group_name_H-M_alt    "P 1"
_space_group_IT_number       1

loop_
  _space_group_symop_operation_xyz
  'x, y, z'

loop_
  _atom_site_type_symbol
  _atom_site_label
  _atom_site_symmetry_multiplicity
  _atom_site_fract_x
  _atom_site_fract_y
  _atom_site_fract_z
  _atom_site_occupancy
  Zn  Zn1       1.0  0.6547858286184578  0.8791724757691027  0.5411523036020184  1.0000
  Zn  Zn2       1.0  0.3452162986825442  0.12083175373950178  0.45884572533898893  1.0000
  H   H1        1.0  0.5190685749871163  0.6696904892485023  0.36536380182116096  1.0000
  H   H2        1.0  0.4809274663631768  0.3303085136114703  0.6346354037659339  1.0000
  H   H3        1.0  0.5669165066309674  0.6025081930594566  0.2148937520125287  1.0000
  H   H4        1.0  0.4330825322768348  0.3974897644707909  0.7851058519684458  1.0000
  H   H5        1.0  0.9416621351226626  0.9876390241744628  0.2960586174776125  1.0000
  H   H6        1.0  0.05833657391029589  0.0123578880260595  0.7039375775553154  1.0000
  H   H7        1.0  0.8787149248184535  0.035554799985653994  0.44072671102023964  1.0000
  H   H8        1.0  0.12128576346358952  0.9644483841932256  0.5592709945956074  1.0000
  H   H9        1.0  0.7064670855293897  0.6821142330473292  0.09800151397771373  1.0000
  H   H10       1.0  0.2935312936287247  0.3178816338234611  0.901995844580874  1.0000
  H   H11       1.0  0.038380523625136276  0.8339462851543544  0.22116985127991742  1.0000
  H   H12       1.0  0.9616177360133944  0.1660527177056181  0.7788297151666939  1.0000
  H   H13       1.0  0.19673098661765923  0.6373573954797606  0.8134172637528891  1.0000
  H   H14       1.0  0.8032677224152991  0.36263951672076183  0.1865828505432177  1.0000
  H   H15       1.0  0.36828912149717047  0.9401308787668796  0.9189055447865258  1.0000
  H   H16       1.0  0.6317106966799102  0.0598660334336429  0.08109344351828439  1.0000
  H   H17       1.0  0.3777028658184776  0.6290961546516485  0.7510222118675003  1.0000
  H   H18       1.0  0.6223006096658139  0.3709018028785991  0.2489774606219939  1.0000
  H   H19       1.0  0.5053730057386758  0.6567848484457812  0.627834716133961  1.0000
  H   H20       1.0  0.49462525389985496  0.3432141544141913  0.3721635438915953  1.0000
  H   H21       1.0  0.6345934027565434  0.0873372986446768  0.7050512041563266  1.0000
  H   H22       1.0  0.3654045270071364  0.9126606588855708  0.294947566184355  1.0000
  H   H23       1.0  0.5098820737247679  0.079312302334742  0.8301438352075081  1.0000
  H   H24       1.0  0.4901170847026179  0.9206825192063304  0.16985421409597729  1.0000
  H   H25       1.0  0.12171431682570243  0.6523275624922107  0.2232031977836684  1.0000
  H   H26       1.0  0.8782825037938622  0.3476703950380368  0.7767960453377825  1.0000
  H   H27       1.0  0.3070383369908641  0.6787984471550388  0.20716372352708126  1.0000
  H   H28       1.0  0.692959592772823  0.3211995103752088  0.7928357000241348  1.0000
  H   H29       1.0  0.16070803644005593  0.5201581625396585  0.1536863398761312  1.0000
  H   H30       1.0  0.8392876750353864  0.479839794990589  0.8463140292366162  1.0000
  H   H31       1.0  0.4315762420112534  0.6780353564547353  0.08637467614481409  1.0000
  H   H32       1.0  0.5684210280027386  0.3219605104160621  0.9136257680366597  1.0000
  H   H33       1.0  0.36346078857253167  0.6023785721733788  0.966523311658726  1.0000
  H   H34       1.0  0.6365398088738274  0.3976172946974188  0.03347702060150231  1.0000
  H   H35       1.0  0.2952951020453299  0.5110345246872257  0.046266584200402916  1.0000
  H   H36       1.0  0.7047010588245398  0.48896134218356474  0.9537330263407782  1.0000
  H   H37       1.0  0.8211787505339032  0.7688211978669626  0.8013105415777843  1.0000
  H   H38       1.0  0.1788217273928723  0.23117780499301688  0.19868873251782304  1.0000
  H   H39       1.0  8.730477279778383e-05  0.7887221851990631  0.7785253135256625  1.0000
  H   H40       1.0  0.9999142822981  0.2112768176609094  0.2214741409997032  1.0000
  H   H41       1.0  0.962998243589553  0.9319992588248454  0.839048585359322  1.0000
  H   H42       1.0  0.037002234337215605  0.06799974403512718  0.16095068873628549  1.0000
  H   H43       1.0  0.8226128064337814  0.9369551670579311  0.9379924958985271  1.0000
  H   H44       1.0  0.17738656234887173  0.0630438358020413  0.06200659776732209  1.0000
  H   H45       1.0  0.7853401098854819  0.8887403787552728  0.03889444532540409  1.0000
  H   H46       1.0  0.21466147718540904  0.11125862410469979  0.961104355989427  1.0000
  H   H47       1.0  0.6973173184194366  0.7716435881283701  0.930244852302657  1.0000
  H   H48       1.0  0.30268238023806054  0.22835646006133456  0.06975503746911468  1.0000
  H   H49       1.0  0.10174154174956843  0.6988823671892703  0.6265959277203593  1.0000
  H   H50       1.0  0.8982616946955561  0.30112186231933435  0.3734088137557094  1.0000
  H   H51       1.0  0.20914250780703011  0.4928217448633347  0.6344582092490684  1.0000
  H   H52       1.0  0.7908599493688231  0.5071835299749949  0.36554584148210273  1.0000
  H   H53       1.0  0.030773611808427904  0.25437994360123634  0.6065948023803428  1.0000
  H   H54       1.0  0.9692299545115475  0.7456253312370932  0.3934087755700588  1.0000
  H   H55       1.0  0.6414810431447434  0.42183026715111527  0.549835884899501  1.0000
  H   H56       1.0  0.3585201853674036  0.5781781436763964  0.45016692723728363  1.0000
  C   C1        1.0  0.6107418759359646  0.7365100560224747  0.3460649560356828  1.0000
  C   C2        1.0  0.38925893186565474  0.26348999216723  0.6539331545342577  1.0000
  C   C3        1.0  0.6379675986704854  0.7004932202977301  0.2626052065904148  1.0000
  C   C4        1.0  0.3620324298618556  0.2995078732216996  0.73739351965569  1.0000
  C   C5        1.0  0.761160539820466  0.7877719804777215  0.24208634917120975  1.0000
  C   C6        1.0  0.23883771981806487  0.2122270223822511  0.7579112576438121  1.0000
  C   C7        1.0  0.8465534029893291  0.9124003717836828  0.3069494758914502  1.0000
  C   C8        1.0  0.1534445267743507  0.0875975857465647  0.6930479880281695  1.0000
  C   C9        1.0  0.8114066742998389  0.9408375216619618  0.38882246286937067  1.0000
  C   C10       1.0  0.1885926944828142  0.0591614811980179  0.6111753243754094  1.0000
  C   C11       1.0  0.8007565322301815  0.7472738162157029  0.1584254391081501  1.0000
  C   C12       1.0  0.1992421768027768  0.2527230959848197  0.8415740219774293  1.0000
  C   C13       1.0  0.947840667523856  0.779941415496907  0.15580068223062685  1.0000
  C   C14       1.0  0.052161249421885714  0.22005863269279047  0.844197608769079  1.0000
  C   C15       1.0  0.0023234796303697705  0.75083734525316  0.07566816150788473  1.0000
  C   C16       1.0  0.9976744501333101  0.24916061227708744  0.924330608832797  1.0000
  C   C17       1.0  0.12709748408361324  0.6911950123809802  0.08727592386288313  1.0000
  C   C18       1.0  0.8729004456800737  0.3088029451492673  0.9127241528988606  1.0000
  C   C19       1.0  0.19748177552968826  0.6801594664588746  0.017345987308758002  1.0000
  C   C20       1.0  0.8025161542339987  0.3198384910713727  0.9826540894529856  1.0000
  C   C21       1.0  0.14390539511811806  0.7297373647248193  0.9364082356272831  1.0000
  C   C22       1.0  0.8560926541651455  0.2702574568162461  0.06359028645696443  1.0000
  C   C23       1.0  0.01167130550300751  0.778136131059334  0.9209424846467728  1.0000
  C   C24       1.0  0.9883328297309789  0.2218639171303707  0.07905812684404621  1.0000
  C   C25       1.0  0.9404962362763598  0.7898082827848469  0.9909998359702  1.0000
  C   C26       1.0  0.0595060105442258  0.21019281073458268  0.009000557556490199  1.0000
  C   C27       1.0  0.22937972250021946  0.7318719280262228  0.8672733314999235  1.0000
  C   C28       1.0  0.7706204255517051  0.2681260295040246  0.1327251464897543  1.0000
  C   C29       1.0  0.3413917423948547  0.8443629958784057  0.8672315394098931  1.0000
  C   C30       1.0  0.6586091849263482  0.1556339163221168  0.1327676293246753  1.0000
  C   C31       1.0  0.426377138505238  0.8524872985123508  0.7995859519243567  1.0000
  C   C32       1.0  0.5736256772293586  0.1475085683584396  0.20041408798486773  1.0000
  C   C33       1.0  0.4311314988809087  0.7332413099678732  0.7426022069097726  1.0000
  C   C34       1.0  0.5688689790458596  0.26675769289209933  0.2573964139753073  1.0000
  C   C35       1.0  0.502585279820913  0.7472069151132104  0.6744062649374172  1.0000
  C   C36       1.0  0.4974137590868891  0.2527910424170372  0.3255926858330227  1.0000
  C   C37       1.0  0.5760366670837128  0.9878376368224833  0.7176635737168765  1.0000
  C   C38       1.0  0.4239598236610078  0.0121592753780391  0.28233552650917904  1.0000
  C   C39       1.0  0.505807028176875  0.9824081942233178  0.7871550876054841  1.0000
  C   C40       1.0  0.4941894625678388  0.017588717977204692  0.21284205298897524  1.0000
  C   C41       1.0  0.18191836661706873  0.6342046810247978  0.172428352910778  1.0000
  C   C42       1.0  0.8180821113097066  0.3657943218351818  0.8275715743953569  1.0000
  C   C43       1.0  0.3286815868457964  0.6146632871185885  0.02933213912536558  1.0000
  C   C44       1.0  0.6713171221871619  0.3853336250819338  0.9706686283812687  1.0000
  C   C45       1.0  0.9465340654514733  0.8184733145434818  0.8305371597302057  1.0000
  C   C46       1.0  0.053466742350146  0.18152673364621558  0.1694635636818518  1.0000
  C   C47       1.0  0.8050406337636958  0.850172938497998  0.9741874639249984  1.0000
  C   C48       1.0  0.1949601740379237  0.1498271096916994  0.025811953066003906  1.0000
  C   C49       1.0  0.8657242188180447  0.5722072202789262  0.5886261244848257  1.0000
  C   C50       1.0  0.1342782383578012  0.42779805455940323  0.41137727303581784  1.0000
  C   C51       1.0  0.026181649130911918  0.5930625936512826  0.6141763046011948  1.0000
  C   C52       1.0  0.9738200287756625  0.4069437265167791  0.38582705538507867  1.0000
  C   C53       1.0  0.085539227605949  0.47884986773964033  0.6196656683955339  1.0000
  C   C54       1.0  0.9144632295698969  0.5211554070986892  0.3803383823356371  1.0000
  C   C55       1.0  0.9863598875680285  0.3446201228962592  0.6029936042527525  1.0000
  C   C56       1.0  0.013642239732973833  0.6553841066123454  0.3970109567935509  1.0000
  C   C57       1.0  0.8262521208061671  0.3235755448434219  0.579923373144787  1.0000
  C   C58       1.0  0.17374811808144133  0.6764297299949077  0.4200803167268674  1.0000
  C   C59       1.0  0.7661475098355269  0.4374736265073977  0.5712331740496808  1.0000
  C   C60       1.0  0.23385494734032625  0.5625316483309319  0.4287708766814902  1.0000
  C   C61       1.0  0.8004431849713356  0.6927515083436617  0.576203752624906  1.0000
  C   C62       1.0  0.19955849293523903  0.3072548118244001  0.42379634130872995  1.0000
  C   C63       1.0  0.7198266612754125  0.1799116992188559  0.5647607201725933  1.0000
  C   C64       1.0  0.2801735776121959  0.8200935756194738  0.43524035685693724  1.0000
  N   N1        1.0  0.6965798782299117  0.8542120925609922  0.4089362474961646  1.0000
  N   N2        1.0  0.3034168228700694  0.1457890009584375  0.5910625906711928  1.0000
  N   N3        1.0  0.5732880789795801  0.8728879534536986  0.6609116721884973  1.0000
  N   N4        1.0  0.4267101806589508  0.1271110494062739  0.3390872410475864  1.0000
  O   O1        1.0  0.6537582702803276  0.6653241469811348  0.5372746731680991  1.0000
  O   O2        1.0  0.34624496616479666  0.3346800825274698  0.4627254958342562  1.0000
  O   O3        1.0  0.8888469823433667  0.816633534224934  0.602856220316731  1.0000
  O   O4        1.0  0.11115502543805181  0.1833738312728528  0.3971427100912379  1.0000
  O   O5        1.0  0.5758120501958786  0.1633432230546674  0.541699484459535  1.0000
  O   O6        1.0  0.42418995758553985  0.8366641424431192  0.45829944594843397  1.0000
  O   O7        1.0  0.783623427886937  0.0819663945101894  0.5797571759509239  1.0000
  O   O8        1.0  0.21637759026994272  0.9180378349984152  0.4202432854024424  1.0000
