data_image0
_chemical_formula_structural       CdH34C38S2N8
_chemical_formula_sum              "Cd1 H34 C38 S2 N8"
_cell_length_a       5.677459455777826
_cell_length_b       8.166235275282352
_cell_length_c       20.230088032277376
_cell_angle_alpha    94.54880479388012
_cell_angle_beta     97.41644385545362
_cell_angle_gamma    102.44085211488635

_space_group_name_H-M_alt    "P 1"
_space_group_IT_number       1

loop_
  _space_group_symop_operation_xyz
  'x, y, z'

loop_
  _atom_site_type_symbol
  _atom_site_label
  _atom_site_symmetry_multiplicity
  _atom_site_fract_x
  _atom_site_fract_y
  _atom_site_fract_z
  _atom_site_occupancy
  Cd  Cd1       1.0  0.5000094760616774  0.5000000684338275  0.500002420667137  1.0000
  H   H1        1.0  0.9971099469655655  0.7890270925759924  0.480457642573299  1.0000
  H   H2        1.0  0.0028904649052136876  0.21097090346190583  0.5195449499456333  1.0000
  H   H3        1.0  0.3027260727234165  0.6380806364706049  0.3702237221749414  1.0000
  H   H4        1.0  0.6972739630985102  0.3619212138676389  0.6297809454273776  1.0000
  H   H5        1.0  0.4164284589006613  0.8258458762989138  0.28356339821823445  1.0000
  H   H6        1.0  0.5835641870991208  0.17415995940693563  0.7164411047796266  1.0000
  H   H7        1.0  0.14342761599260703  0.9796056302290526  0.39810182921859655  1.0000
  H   H8        1.0  0.856570919810629  0.020387306194535902  0.6018995563806159  1.0000
  H   H9        1.0  0.7070176905638589  0.013710202321320308  0.23821086821678258  1.0000
  H   H10       1.0  0.2929642782589709  0.986290768258911  0.7617916051836177  1.0000
  H   H11       1.0  0.22812908932908724  0.13927603738070363  0.3167042837844179  1.0000
  H   H12       1.0  0.7718594877991334  0.8607234797512717  0.683296420826274  1.0000
  H   H13       1.0  0.7976527873154281  0.27540422827400585  0.17328728340739735  1.0000
  H   H14       1.0  0.20234721908745007  0.7245924453828966  0.826711300633967  1.0000
  H   H15       1.0  0.831939193169667  0.07115870449764831  0.14857713487086951  1.0000
  H   H16       1.0  0.1680586837410374  0.9288418562264129  0.8514229643319241  1.0000
  H   H17       1.0  0.48081270666184384  0.34825092068792435  0.269817205633764  1.0000
  H   H18       1.0  0.5191944358415482  0.6517315905027773  0.7301807432495764  1.0000
  H   H19       1.0  0.2823144148781296  0.4872350645378206  0.07364127089730492  1.0000
  H   H20       1.0  0.7176899138209408  0.5127589810114801  0.9263583894500942  1.0000
  H   H21       1.0  0.08541564521601686  0.530214780308853  0.13001945484645466  1.0000
  H   H22       1.0  0.9146007550008689  0.4697879365722812  0.8699838816377082  1.0000
  H   H23       1.0  0.34003567393658324  0.13686855590140112  0.10800157071808773  1.0000
  H   H24       1.0  0.6599593888727994  0.8631244154011884  0.8919967181051336  1.0000
  H   H25       1.0  0.24825174771388703  0.17887579927033673  0.024882496658193507  1.0000
  H   H26       1.0  0.7517407547158256  0.8211197597093901  0.9751147815479373  1.0000
  H   H27       1.0  0.0658945985757171  0.0137108231848089  0.060590182448542904  1.0000
  H   H28       1.0  0.9340993151412533  0.9862885266738247  0.9394077538308637  1.0000
  H   H29       1.0  0.7010018741117107  0.1460477517103129  0.02902559699020202  1.0000
  H   H30       1.0  0.2989948367601725  0.8539592028970943  0.9709751381348117  1.0000
  H   H31       1.0  0.8957172091851858  0.31175433207005204  0.9972038073137315  1.0000
  H   H32       1.0  0.10428031709624717  0.6882500599633874  0.002796884273394098  1.0000
  H   H33       1.0  0.7172663805522318  0.35907473930480904  0.05927873676046151  1.0000
  H   H34       1.0  0.2827346610890443  0.6409295795313456  0.9407225804375658  1.0000
  C   C1        1.0  0.8736611032776337  0.8015630285645374  0.4362099861896312  1.0000
  C   C2        1.0  0.1263354426040451  0.19843887198002363  0.563792573102724  1.0000
  C   C3        1.0  0.48601697379280034  0.7178517891734373  0.3750615003111264  1.0000
  C   C4        1.0  0.5139800283959629  0.2821513877701848  0.6249421020606862  1.0000
  C   C5        1.0  0.5519818770078044  0.8226489280984809  0.32658430659935084  1.0000
  C   C6        1.0  0.448018158814122  0.17735292223976273  0.6734203610029681  1.0000
  C   C7        1.0  0.7916242583078202  0.9207215964812507  0.33261053747720853  1.0000
  C   C8        1.0  0.20837148063750277  0.07928285897362738  0.6673915711200281  1.0000
  C   C9        1.0  0.9543732957799732  0.9085356105018861  0.3897363456355478  1.0000
  C   C10       1.0  0.045623241628511786  0.091466297706333  0.610266707889828  1.0000
  C   C11       1.0  0.8561885691367478  0.022480434188473515  0.27926287567022723  1.0000
  C   C12       1.0  0.14380624024800429  0.9775214837955915  0.7207381352341289  1.0000
  C   C13       1.0  0.0769860403519473  0.1241705509439441  0.27569681587408473  1.0000
  C   C14       1.0  0.9229999763966035  0.8758315538651618  0.7243028781195167  1.0000
  C   C15       1.0  0.1239847456139884  0.22219495019166402  0.22083668793119676  1.0000
  C   C16       1.0  0.8760147960086043  0.7778004547298283  0.7791613472637309  1.0000
  C   C17       1.0  0.9324057191317151  0.2034368091808503  0.1603879015479066  1.0000
  C   C18       1.0  0.0675917099450984  0.7965624674804915  0.8396106603424087  1.0000
  C   C19       1.0  0.3440645464593998  0.3372988182740074  0.22536142593657624  1.0000
  C   C20       1.0  0.6559406145956216  0.6626926493740087  0.7746372024068935  1.0000
  C   C21       1.0  0.39126049730706564  0.4493942424780357  0.17590804393338294  1.0000
  C   C22       1.0  0.6087513353651842  0.5506009177484473  0.8240929222492428  1.0000
  C   C23       1.0  0.19857084735536995  0.4416048044118385  0.11681675697605702  1.0000
  C   C24       1.0  0.8014348841577643  0.5583930396800271  0.8831840556776385  1.0000
  C   C25       1.0  0.034664414577015586  0.2637416039772305  0.09750324905544261  1.0000
  C   C26       1.0  0.9653312271636806  0.7362577361055502  0.9024967298449839  1.0000
  C   C27       1.0  0.18177295118511683  0.14167089752924514  0.0713605139132127  1.0000
  C   C28       1.0  0.8182227159751674  0.8583284195625682  0.9286379822881515  1.0000
  C   C29       1.0  0.8250008510102232  0.2707645496902914  0.042755849097844106  1.0000
  C   C30       1.0  0.17499668374441057  0.7292398346794898  0.9572443482562607  1.0000
  C   C31       1.0  0.610977451579849  0.5690483317084798  0.18171838374201604  1.0000
  C   C32       1.0  0.3890309968299732  0.4309519864327599  0.818282109594435  1.0000
  C   C33       1.0  0.8092259917081035  0.5789395954277836  0.23340079112560375  1.0000
  C   C34       1.0  0.1907743483776443  0.42105326224705664  0.7665981889974703  1.0000
  C   C35       1.0  0.6501311704766833  0.6874308192017295  0.13440163484526835  1.0000
  C   C36       1.0  0.3498806839127012  0.31257824214154084  0.8655938042219237  1.0000
  C   C37       1.0  0.08258261096178643  0.6398108220059485  0.5767191850417248  1.0000
  C   C38       1.0  0.9174402166921781  0.3602132432432584  0.4232766122203132  1.0000
  S   S1        1.0  0.3713069779096969  0.731843677542095  0.5866169613756967  1.0000
  S   S2        1.0  0.6287131921599708  0.2681778600121447  0.41337569557244797  1.0000
  N   N1        1.0  0.6439202125500642  0.7070276554731052  0.42928808381186206  1.0000
  N   N2        1.0  0.3560803134717431  0.2929754406095811  0.5707156499378387  1.0000
  N   N3        1.0  0.8726623199821261  0.5726900243232508  0.5688096401412466  1.0000
  N   N4        1.0  0.12735860988715333  0.4273150801948448  0.43119047731651255  1.0000
  N   N5        1.0  0.9788367714711228  0.5863248260403394  0.27399787847142687  1.0000
  N   N6        1.0  0.0211572939921112  0.41366566910068775  0.7260032665230656  1.0000
  N   N7        1.0  0.6812764656500362  0.7863345599353267  0.0956609974403193  1.0000
  N   N8        1.0  0.31873808362189476  0.2136439505604599  0.904336127581452  1.0000
