data_image0
_chemical_formula_structural       Li4H60C32O24
_chemical_formula_sum              "Li4 H60 C32 O24"
_cell_length_a       5.280071959005103
_cell_length_b       12.132053582939596
_cell_length_c       16.221648060930118
_cell_angle_alpha    98.15958652557231
_cell_angle_beta     89.99999278505776
_cell_angle_gamma    89.99983441431539

_space_group_name_H-M_alt    "P 1"
_space_group_IT_number       1

loop_
  _space_group_symop_operation_xyz
  'x, y, z'

loop_
  _atom_site_type_symbol
  _atom_site_label
  _atom_site_symmetry_multiplicity
  _atom_site_fract_x
  _atom_site_fract_y
  _atom_site_fract_z
  _atom_site_occupancy
  Li  Li1       1.0  0.5402138538644294  0.6345668383796337  0.10377755770976192  1.0000
  Li  Li2       1.0  0.0402135855211228  0.8654353155159383  0.8962291363404447  1.0000
  Li  Li3       1.0  0.4597891379435168  0.36543525223133594  0.8962226065449671  1.0000
  Li  Li4       1.0  0.9597818306138991  0.13457097996510473  0.1037763866478159  1.0000
  H   H1        1.0  0.3023971596808225  0.5511428816707777  0.29706086025276335  1.0000
  H   H2        1.0  0.8024094968040602  0.9488547791472968  0.7029441640281178  1.0000
  H   H3        1.0  0.6975982564742509  0.4488599949516755  0.7029338355630658  1.0000
  H   H4        1.0  0.19759160109030197  0.05114731146482402  0.29705600022665385  1.0000
  H   H5        1.0  0.31751951473826523  0.7220820242142807  0.23817806421531887  1.0000
  H   H6        1.0  0.8175272599192952  0.7779148166254757  0.761830576757383  1.0000
  H   H7        1.0  0.6824872648865608  0.27792338154311835  0.7618205872386241  1.0000
  H   H8        1.0  0.18246058057412282  0.22208813778397746  0.23817337403847463  1.0000
  H   H9        1.0  0.4519606185761306  0.8273782892394124  0.08398067556223052  1.0000
  H   H10       1.0  0.9519423404113282  0.6726258404809969  0.9160237836810056  1.0000
  H   H11       1.0  0.5480518427728073  0.17263049907467828  0.916024484073411  1.0000
  H   H12       1.0  0.04804360616703459  0.3273779310494334  0.0839784006677462  1.0000
  H   H13       1.0  0.2769841289674987  0.7576704866952824  0.015973610831132107  1.0000
  H   H14       1.0  0.7769595843300722  0.7423321648555755  0.9840276030157258  1.0000
  H   H15       1.0  0.7230321202193793  0.24233578284561474  0.9840288271633284  1.0000
  H   H16       1.0  0.22302636225073513  0.2576715807473917  0.0159714963397448  1.0000
  H   H17       1.0  0.7416711027074002  0.510190597462959  0.9719676468016729  1.0000
  H   H18       1.0  0.24167130011595359  0.9897962710458472  0.02803134537301591  1.0000
  H   H19       1.0  0.2583451465406482  0.48980059575107054  0.0280227803368831  1.0000
  H   H20       1.0  0.7583373734219734  0.010208338332539299  0.9719715405226523  1.0000
  H   H21       1.0  0.7773498033838566  0.8932347394172809  0.20563046683458452  1.0000
  H   H22       1.0  0.2773514753878459  0.6067570557673321  0.7943659458668719  1.0000
  H   H23       1.0  0.2226418249660966  0.10676068979016409  0.7943690210298726  1.0000
  H   H24       1.0  0.7226553042590141  0.393241704136102  0.2056338801924866  1.0000
  H   H25       1.0  0.8398144820256733  0.48634852259996825  0.06020783255542031  1.0000
  H   H26       1.0  0.33981846868115895  0.0136537441820792  0.9397969138409581  1.0000
  H   H27       1.0  0.1601733584809537  0.5136518871111377  0.9397903116060748  1.0000
  H   H28       1.0  0.660178841358629  0.986355850890078  0.0602052453505948  1.0000
  H   H29       1.0  0.3563919223347299  0.7379256145711038  0.38771422126196603  1.0000
  H   H30       1.0  0.8564018987714375  0.7620795005015213  0.612294646268687  1.0000
  H   H31       1.0  0.6436072816161912  0.26208480799071765  0.6122874054797054  1.0000
  H   H32       1.0  0.1435897295447361  0.23792510370175532  0.3877076226287457  1.0000
  H   H33       1.0  0.19263997970815436  0.855631694238781  0.3619131772692725  1.0000
  H   H34       1.0  0.6926620925556078  0.6443661313613447  0.638095554457017  1.0000
  H   H35       1.0  0.8073724816740652  0.14436952739166742  0.6380825834458008  1.0000
  H   H36       1.0  0.3073465809882094  0.35563601110108334  0.3619107797841323  1.0000
  H   H37       1.0  0.9862164488846331  0.781700313213662  0.4822959236980466  1.0000
  H   H38       1.0  0.4862348183446059  0.718293787833531  0.5177081362549671  1.0000
  H   H39       1.0  0.013775179415375802  0.21831007305431882  0.5177013840532112  1.0000
  H   H40       1.0  0.5137530221718195  0.2817033119143275  0.4822921377058763  1.0000
  H   H41       1.0  0.7796928511477148  0.770956723243586  0.39610844688258606  1.0000
  H   H42       1.0  0.2796996515983494  0.7290251288235295  0.6038931211030487  1.0000
  H   H43       1.0  0.2203158224083168  0.22904448801818228  0.6038860798352701  1.0000
  H   H44       1.0  0.72029008285174  0.27096534581117027  0.39611079545778694  1.0000
  H   H45       1.0  0.7771044379689795  0.5931394900854842  0.4575385771753773  1.0000
  H   H46       1.0  0.27709495370778825  0.9068474493552188  0.5424739872093484  1.0000
  H   H47       1.0  0.2228871903501215  0.40686588456819084  0.5424563722870063  1.0000
  H   H48       1.0  0.7228928868057096  0.09314887994223402  0.4575336061865444  1.0000
  H   H49       1.0  0.1094033502387788  0.5837183287429468  0.4480881875857606  1.0000
  H   H50       1.0  0.6093972033575525  0.916271271486586  0.5519197027889788  1.0000
  H   H51       1.0  0.890595853732691  0.41628706664808846  0.5519092298710575  1.0000
  H   H52       1.0  0.3906001067331601  0.0837225545907003  0.4480870199615765  1.0000
  H   H53       1.0  0.9085558540676644  0.45953017335691015  0.33284434200874113  1.0000
  H   H54       1.0  0.40854870796605525  0.04046534830023061  0.6671597245816798  1.0000
  H   H55       1.0  0.0914509255478535  0.5404785371782522  0.6671515626471987  1.0000
  H   H56       1.0  0.5914315568833147  0.9595350925284406  0.332842121571943  1.0000
  H   H57       1.0  0.7251886762948275  0.5697097755466916  0.30460473070507993  1.0000
  H   H58       1.0  0.2251977362481483  0.9302830454749226  0.6954071941032468  1.0000
  H   H59       1.0  0.2748162094110285  0.4302972903789809  0.69539347284789  1.0000
  H   H60       1.0  0.7748147251453616  0.0697116443823944  0.3046033151876771  1.0000
  C   C1        1.0  0.12065145447525791  0.5785481480025396  0.27283220421353604  1.0000
  C   C2        1.0  0.6206487924710586  0.9214455604232085  0.7271711723570533  1.0000
  C   C3        1.0  0.8793591130026713  0.42145057041465617  0.7271626858564703  1.0000
  C   C4        1.0  0.379354199343247  0.07855566121300939  0.27282458835826157  1.0000
  C   C5        1.0  0.1465464969571997  0.7053902707990716  0.27320582817500144  1.0000
  C   C6        1.0  0.6465522864764282  0.7946017562874059  0.7267992290070069  1.0000
  C   C7        1.0  0.8534697522590378  0.29460927510547924  0.7267885294450309  1.0000
  C   C8        1.0  0.3534488114277394  0.20539702436146004  0.2732030650471131  1.0000
  C   C9        1.0  0.17667081027174455  0.7656068483812248  0.3628625920923341  1.0000
  C   C10       1.0  0.676686621619524  0.7343843248904276  0.6371442300397304  1.0000
  C   C11       1.0  0.823328393728616  0.2343902254322502  0.6371345968749438  1.0000
  C   C12       1.0  0.32331447629491816  0.2656111406096997  0.362859576815076  1.0000
  C   C13       1.0  0.9586071740417168  0.7385734185968716  0.418607942403419  1.0000
  C   C14       1.0  0.458615679216912  0.7614165993700155  0.5814012491655306  1.0000
  C   C15       1.0  0.0414014995010987  0.2614311389265964  0.5813887735056866  1.0000
  C   C16       1.0  0.5413797369602166  0.23857722670842213  0.4186054735850675  1.0000
  C   C17       1.0  0.9376363027124698  0.6128086002027403  0.4188177737143875  1.0000
  C   C18       1.0  0.43763825859633  0.8871847532721521  0.5811892890973952  1.0000
  C   C19       1.0  0.0623685830036607  0.3871959521375387  0.5811783251961559  1.0000
  C   C20       1.0  0.5623476880070015  0.11281153972801414  0.4188139853079562  1.0000
  C   C21       1.0  0.9090460685966804  0.5496002032501508  0.3306375960917337  1.0000
  C   C22       1.0  0.40905124166504697  0.9503906714578964  0.6693673634981608  1.0000
  C   C23       1.0  0.0909512414661009  0.4504043387237573  0.6693572688216847  1.0000
  C   C24       1.0  0.5909441745047346  0.04960643865632621  0.3306341444598075  1.0000
  C   C25       1.0  0.11207230912742722  0.5161054953615293  0.1840004934388446  1.0000
  C   C26       1.0  0.6121107468788692  0.9838808071835105  0.8160113775974837  1.0000
  C   C27       1.0  0.8878946983817073  0.4838783334330543  0.816004597727968  1.0000
  C   C28       1.0  0.38792065364948075  0.016114694596609497  0.18399674824717493  1.0000
  C   C29       1.0  0.9270527730964774  0.7534045366578611  0.22919430402699698  1.0000
  C   C30       1.0  0.4270970761477458  0.7465796391287823  0.7708081272806668  1.0000
  C   C31       1.0  0.07295400654793133  0.2465958522997411  0.7708013721394026  1.0000
  C   C32       1.0  0.5729097035010753  0.25341829846933445  0.22919284822717867  1.0000
  O   O1        1.0  0.4390993272090427  0.7559022316605208  0.04574290308850241  1.0000
  O   O2        1.0  0.9390861792565632  0.7440977399682251  0.9542599000522571  1.0000
  O   O3        1.0  0.5609055585129782  0.24409985376379947  0.9542566441675149  1.0000
  O   O4        1.0  0.06090734299130671  0.25590186299057655  0.045741244553553904  1.0000
  O   O5        1.0  0.7508193162484248  0.5408618149206105  0.03193755270229561  1.0000
  O   O6        1.0  0.25083344304995586  0.9591366999062317  0.9680626227009554  1.0000
  O   O7        1.0  0.24917041817912636  0.45913691388025063  0.9680585713655461  1.0000
  O   O8        1.0  0.7491638669766161  0.04087624142761831  0.0319417256818397  1.0000
  O   O9        1.0  0.9564588230955094  0.4351657510340984  0.1640302049528231  1.0000
  O   O10       1.0  0.4564569331617109  0.06483056051082771  0.8359757948020106  1.0000
  O   O11       1.0  0.043546062646584005  0.5648305108415813  0.8359693674601234  1.0000
  O   O12       1.0  0.5435422708288656  0.9351682201391968  0.16402649925215945  1.0000
  O   O13       1.0  0.26841670764496683  0.5453672772270011  0.13242316446147132  1.0000
  O   O14       1.0  0.7684060268721636  0.9546345209605605  0.867574263270001  1.0000
  O   O15       1.0  0.7316109050738149  0.4546264347509991  0.8675699843178889  1.0000
  O   O16       1.0  0.23157802580680453  0.045366695501691395  0.1324208804471283  1.0000
  O   O17       1.0  0.7537731638667894  0.6954608719388632  0.1947625689287946  1.0000
  O   O18       1.0  0.25379049970908346  0.8045369829189184  0.8052584997330925  1.0000
  O   O19       1.0  0.2462222523357767  0.3045286766772151  0.8052301571072604  1.0000
  O   O20       1.0  0.7462087042854152  0.1954601531204574  0.19474609321805764  1.0000
  O   O21       1.0  0.9381980755418199  0.8626958152108487  0.23168194244514953  1.0000
  O   O22       1.0  0.4382014704683002  0.6372891693319859  0.7683193388612395  1.0000
  O   O23       1.0  0.06178787108305529  0.13729463868419597  0.7683195061211521  1.0000
  O   O24       1.0  0.5617901578811626  0.36270626506095044  0.23168076600187257  1.0000
