data_image0
_chemical_formula_structural       Ca4H32C16O28
_chemical_formula_sum              "Ca4 H32 C16 O28"
_cell_length_a       6.600345294045522
_cell_length_b       6.916822455005795
_cell_length_c       17.580947740107984
_cell_angle_alpha    89.99999848075545
_cell_angle_beta     89.99959942796065
_cell_angle_gamma    90.00014749729907

_space_group_name_H-M_alt    "P 1"
_space_group_IT_number       1

loop_
  _space_group_symop_operation_xyz
  'x, y, z'

loop_
  _atom_site_type_symbol
  _atom_site_label
  _atom_site_symmetry_multiplicity
  _atom_site_fract_x
  _atom_site_fract_y
  _atom_site_fract_z
  _atom_site_occupancy
  Ca  Ca1       1.0  0.4381095229855915  0.7472800777043601  0.20387068711036693  1.0000
  Ca  Ca2       1.0  0.5618922939348749  0.24728037296075203  0.7961292684165711  1.0000
  Ca  Ca3       1.0  0.06189204119083059  0.2472797674773517  0.7038703914787873  1.0000
  Ca  Ca4       1.0  0.9381067455851306  0.7472806831840586  0.2961295640521087  1.0000
  H   H1        1.0  0.25710122321918044  0.6691109996900196  0.47294288035426024  1.0000
  H   H2        1.0  0.7428973514889421  0.16910453868875663  0.5270565066461541  1.0000
  H   H3        1.0  0.24292086124101786  0.16909956563988257  0.9729404044535382  1.0000
  H   H4        1.0  0.7570868038829629  0.6691029609948698  0.027058982534995793  1.0000
  H   H5        1.0  0.7254040017072113  0.6823300690418534  0.47421182349371777  1.0000
  H   H6        1.0  0.2745885485825994  0.18233403023884157  0.5257881322669958  1.0000
  H   H7        1.0  0.7746051722575229  0.1823360614106662  0.9742126774171137  1.0000
  H   H8        1.0  0.22540707397212145  0.6823323751457622  0.02578784711536739  1.0000
  H   H9        1.0  0.5599683405041274  0.3533869332416941  0.14221230506922206  1.0000
  H   H10       1.0  0.44003073411442256  0.8533851231897811  0.8577887876942822  1.0000
  H   H11       1.0  0.9400338606844157  0.8533857460338011  0.6422115866171864  1.0000
  H   H12       1.0  0.0599652139394422  0.35338631039770246  0.35778893734877215  1.0000
  H   H13       1.0  0.5671437706942298  0.031198539131899797  0.09025605282594279  1.0000
  H   H14       1.0  0.4328620052131882  0.5311923684496874  0.9097456098259112  1.0000
  H   H15       1.0  0.9328630717226005  0.5311901056491165  0.5902553531519243  1.0000
  H   H16       1.0  0.0671336137468188  0.031193573168550898  0.4097457407142853  1.0000
  H   H17       1.0  0.7366687161517973  0.08981380477901271  0.20952016350656064  1.0000
  H   H18       1.0  0.26333115849197947  0.5898101249346082  0.7904809301554251  1.0000
  H   H19       1.0  0.7633299981944857  0.589807848682021  0.7095199076313178  1.0000
  H   H20       1.0  0.23666836136723648  0.08980885227690288  0.2904811860326574  1.0000
  H   H21       1.0  0.31941578264250126  0.35162137805964727  0.14103464020963938  1.0000
  H   H22       1.0  0.6805832871890516  0.8516216012328853  0.8589664525598975  1.0000
  H   H23       1.0  0.18058420767749786  0.8516195570863657  0.641034032153243  1.0000
  H   H24       1.0  0.8194133470778766  0.3516205307031866  0.3589670606182834  1.0000
  H   H25       1.0  0.3280244763876822  0.027077858074228793  0.08817854837036518  1.0000
  H   H26       1.0  0.6719782582102308  0.5270780542626382  0.9118225455019767  1.0000
  H   H27       1.0  0.17198016558947413  0.5270774618284263  0.588177394046454  1.0000
  H   H28       1.0  0.8280165087194362  0.027078450501044002  0.4118236998338175  1.0000
  H   H29       1.0  0.6474831859634732  0.08783879574463067  0.2951573017690875  1.0000
  H   H30       1.0  0.352515168248999  0.5878382349137252  0.7048443606991697  1.0000
  H   H31       1.0  0.8525139240931737  0.5878359490039384  0.7951562436254915  1.0000
  H   H32       1.0  0.1474859451909794  0.08783674440459069  0.20484485004323713  1.0000
  C   C1        1.0  0.4335035914749382  0.6701767392887844  0.3669409692534628  1.0000
  C   C2        1.0  0.5664934710873553  0.170172726928179  0.6330550049599919  1.0000
  C   C3        1.0  0.0665068393690049  0.1701706573212931  0.8669429367429229  1.0000
  C   C4        1.0  0.933493253299467  0.6701701343957964  0.1330558814543252  1.0000
  C   C5        1.0  0.4118312146906717  0.6717872742084906  0.4510809439893392  1.0000
  C   C6        1.0  0.5881673673162666  0.17179344453198547  0.5489161678117112  1.0000
  C   C7        1.0  0.08818522490116719  0.17178991969170446  0.9510834235337949  1.0000
  C   C8        1.0  0.911831537974976  0.671780678817086  0.048911981850828595  1.0000
  C   C9        1.0  0.5723208761506129  0.6779174500092395  0.49770905066204546  1.0000
  C   C10       1.0  0.42766257176850786  0.1779188962862435  0.5022869235427975  1.0000
  C   C11       1.0  0.9276878471009979  0.17791225031520239  0.9977106414349561  1.0000
  C   C12       1.0  0.0723137816255743  0.6779154214987813  0.0022904519240540995  1.0000
  C   C13       1.0  0.5566739359151994  0.6777005635489955  0.5822039471854054  1.0000
  C   C14       1.0  0.4433246621241409  0.17770350334475887  0.4177937333929974  1.0000
  C   C15       1.0  0.943333454271773  0.17770702446348705  0.08220707484336028  1.0000
  C   C16       1.0  0.05666968897092058  0.6777028254379683  0.9177928809192861  1.0000
  O   O1        1.0  0.27215179438596937  0.6662715721830421  0.32701159245097233  1.0000
  O   O2        1.0  0.7278437424717552  0.1662708409591858  0.6729889321581977  1.0000
  O   O3        1.0  0.22784270562573283  0.16626877583789934  0.8270108623788912  1.0000
  O   O4        1.0  0.7721588915190337  0.6662721915611695  0.17298966222234918  1.0000
  O   O5        1.0  0.607112985814787  0.6748886541792698  0.3359964488961821  1.0000
  O   O6        1.0  0.39289014978557196  0.1748871057547774  0.6640035068760921  1.0000
  O   O7        1.0  0.8928911732216489  0.17489059824438155  0.8359986995525615  1.0000
  O   O8        1.0  0.10711196238656129  0.6748909446919384  0.16400125621969144  1.0000
  O   O9        1.0  0.724119377255846  0.6767263301098225  0.6188900323904318  1.0000
  O   O10       1.0  0.275876187965558  0.17673031076358822  0.38111106098056513  1.0000
  O   O11       1.0  0.7758918705701418  0.1767352735046543  0.1188896168048217  1.0000
  O   O12       1.0  0.2241097549673867  0.6767257046279979  0.8811092013680334  1.0000
  O   O13       1.0  0.38289030359801046  0.6754189551040921  0.6140016640915035  1.0000
  O   O14       1.0  0.6171067731745976  0.17542232299200575  0.38599658529422937  1.0000
  O   O15       1.0  0.1171127435682422  0.17542028189982511  0.11400337054519835  1.0000
  O   O16       1.0  0.8828858482626456  0.6754224419485977  0.8859965852311971  1.0000
  O   O17       1.0  0.4386215842128323  0.42131971176205224  0.1600647436883023  1.0000
  O   O18       1.0  0.5613791897637554  0.9213196458945063  0.8399374864362411  1.0000
  O   O19       1.0  0.0613767248069053  0.9213175995979268  0.6600638788975386  1.0000
  O   O20       1.0  0.9386225341007872  0.42132031230624273  0.3399377824314412  1.0000
  O   O21       1.0  0.44909512832401066  0.94244196687454  0.08959867581914688  1.0000
  O   O22       1.0  0.5509102481734727  0.44243933091276927  0.9104029854297334  1.0000
  O   O23       1.0  0.05090909889513989  0.44243873831469216  0.5895978401450319  1.0000
  O   O24       1.0  0.9490887022444452  0.9424411137128246  0.4104032523162217  1.0000
  O   O25       1.0  0.6888888900466484  0.004718311312636601  0.25152933803938987  1.0000
  O   O26       1.0  0.31111529896674023  0.5047161986751191  0.7484711871098069  1.0000
  O   O27       1.0  0.8111118392334902  0.5047139176823805  0.7515289570818664  1.0000
  O   O28       1.0  0.18888780454999923  0.0047148092975035985  0.2484721368708448  1.0000
