data_image0
_chemical_formula_structural       Al2C48O12F30
_chemical_formula_sum              "Al2 C48 O12 F30"
_cell_length_a       3.958489271034571
_cell_length_b       29.196033836569143
_cell_length_c       29.1957830105517
_cell_angle_alpha    120.00037070998958
_cell_angle_beta     89.99967299928593
_cell_angle_gamma    90.00045497777465

_space_group_name_H-M_alt    "P 1"
_space_group_IT_number       1

loop_
  _space_group_symop_operation_xyz
  'x, y, z'

loop_
  _atom_site_type_symbol
  _atom_site_label
  _atom_site_symmetry_multiplicity
  _atom_site_fract_x
  _atom_site_fract_y
  _atom_site_fract_z
  _atom_site_occupancy
  Al  Al1       1.0  0.997708235809995  0.4999999846077614  0.4999994477033027  1.0000
  Al  Al2       1.0  0.9976893867205305  0.16666745500928234  0.833332909641115  1.0000
  C   C1        1.0  0.498760907901115  0.4643730247645125  0.41923562968897693  1.0000
  C   C2        1.0  0.49876587234996367  0.4548624509691521  0.5356245036471847  1.0000
  C   C3        1.0  0.49875163197829414  0.5807626336759597  0.5451341496127284  1.0000
  C   C4        1.0  0.4987737975550318  0.21180686532179038  0.7977036390182449  1.0000
  C   C5        1.0  0.4987223560279048  0.08589880101064297  0.7881963944760955  1.0000
  C   C6        1.0  0.49874339485582914  0.20229889730450176  0.914102237813502  1.0000
  C   C7        1.0  0.5013545290582331  0.2435523522439668  0.7704274751996112  1.0000
  C   C8        1.0  0.49451393781502156  0.21921189695089546  0.7154561077185521  1.0000
  C   C9        1.0  0.4981783098248869  0.24781417953516882  0.6889529737785125  1.0000
  C   C10       1.0  0.5002357329787231  0.3041110026952013  0.7159146073875462  1.0000
  C   C11       1.0  0.502892867994703  0.3279694332027178  0.7722873266979563  1.0000
  C   C12       1.0  0.5077468900240446  0.29859115353972504  0.7980354152820938  1.0000
  C   C13       1.0  0.49988353136243563  0.3385817942805289  0.692354496210605  1.0000
  C   C14       1.0  0.4998893137425781  0.32807410153640165  0.6409535009687631  1.0000
  C   C15       1.0  0.5028974241135843  0.3386909673095815  0.5610346634192922  1.0000
  C   C16       1.0  0.5002444524671432  0.36253854087652115  0.6173949470861686  1.0000
  C   C17       1.0  0.49817403815093547  0.41883924621267005  0.6443663980266265  1.0000
  C   C18       1.0  0.4945048044421441  0.447444385695654  0.6178617751343792  1.0000
  C   C19       1.0  0.5013588317693163  0.4231144770318735  0.5628969906552612  1.0000
  C   C20       1.0  0.5077516512286806  0.3680733086179018  0.5352914213558577  1.0000
  C   C21       1.0  0.5013435029803902  0.02687653649509524  0.7564467621681105  1.0000
  C   C22       1.0  0.4945072664125974  0.9962486238371966  0.780792871417688  1.0000
  C   C23       1.0  0.4981793691075681  0.941138447280217  0.7521849124662124  1.0000
  C   C24       1.0  0.5002284153791123  0.9118060784140738  0.6958922438485828  1.0000
  C   C25       1.0  0.5028899393110039  0.9443192326833127  0.6720312367707136  1.0000
  C   C26       1.0  0.5077387490522937  0.9994476078200519  0.7014135873068454  1.0000
  C   C27       1.0  0.4998737629575204  0.8537752937437659  0.6614179696527671  1.0000
  C   C28       1.0  0.49987994981380274  0.8128779747845273  0.6719256852260215  1.0000
  C   C29       1.0  0.5028786948123596  0.7223458609640616  0.6613088149374632  1.0000
  C   C30       1.0  0.5002326380682122  0.754856399532656  0.6374586425472655  1.0000
  C   C31       1.0  0.4981690045393705  0.7255304485120249  0.5811609248824751  1.0000
  C   C32       1.0  0.4945049751211386  0.6704163949660114  0.5525506755721209  1.0000
  C   C33       1.0  0.5013673313143343  0.6397841095991835  0.5768845720110676  1.0000
  C   C34       1.0  0.507748239156122  0.6672174656602864  0.631921692063031  1.0000
  C   C35       1.0  0.5013298411893317  0.22957178022042526  0.9731209702967407  1.0000
  C   C36       1.0  0.49449728967439915  0.2845470672185185  0.003756372552309943  1.0000
  C   C37       1.0  0.4981624868045175  0.3110472473435237  0.05885737157501577  1.0000
  C   C38       1.0  0.5002275637452058  0.2840876828691634  0.08819447902499887  1.0000
  C   C39       1.0  0.5028892220163429  0.22771234826933548  0.05567624338384998  1.0000
  C   C40       1.0  0.507732343489657  0.2019679620707819  0.0005558548696384527  1.0000
  C   C41       1.0  0.49987845945445736  0.3076477426316018  0.14622537223373655  1.0000
  C   C42       1.0  0.4998816473523889  0.35904773302875975  0.18711956307578959  1.0000
  C   C43       1.0  0.5028908579348085  0.4389672543319776  0.2776571654752047  1.0000
  C   C44       1.0  0.5002398837114015  0.3826049365908872  0.2451416671017128  1.0000
  C   C45       1.0  0.4981670182393074  0.35563585741289233  0.27447321742703684  1.0000
  C   C46       1.0  0.4944986094721031  0.3821366520433216  0.32957839511544046  1.0000
  C   C47       1.0  0.5013633098939252  0.43710432156542833  0.36021751414848785  1.0000
  C   C48       1.0  0.5077534592447961  0.46470824445638204  0.3327788977615356  1.0000
  O   O1        1.0  0.7340248571709937  0.5562941394421375  0.5535081815310577  1.0000
  O   O2        1.0  0.7340228328040723  0.4972148755507605  0.4437055500794429  1.0000
  O   O3        1.0  0.7340126023311058  0.4464911693835418  0.5027841567005211  1.0000
  O   O4        1.0  0.2609362199838756  0.5597100367384088  0.5118471485673695  1.0000
  O   O5        1.0  0.2609207993181499  0.4881527498627208  0.5478618238826627  1.0000
  O   O6        1.0  0.2609269745524614  0.45213748506855467  0.44028911128349074  1.0000
  O   O7        1.0  0.7340018813203173  0.16945805323855737  0.889631444063106  1.0000
  O   O8        1.0  0.7340121118344456  0.22017556951866624  0.8305419015050362  1.0000
  O   O9        1.0  0.734009961639238  0.11036922356338146  0.7798239927809334  1.0000
  O   O10       1.0  0.2608983833784749  0.21453312793918403  0.8930410249789702  1.0000
  O   O11       1.0  0.26090429506301405  0.10695799136830439  0.8214883127937043  1.0000
  O   O12       1.0  0.2609045584158238  0.1785099039660524  0.7854666811744766  1.0000
  F   F1        1.0  0.5065895780577279  0.3251192395366831  0.851297953218044  1.0000
  F   F2        1.0  0.49902861694582873  0.38068637846206593  0.8052148826733329  1.0000
  F   F3        1.0  0.4954881131542522  0.16602519126460194  0.6860474200818631  1.0000
  F   F4        1.0  0.501288267876923  0.21737889215147282  0.6360039996718997  1.0000
  F   F5        1.0  0.5012709935201444  0.44927801457098576  0.6973180581932324  1.0000
  F   F6        1.0  0.49549097278330123  0.5006317877532638  0.6472786724273121  1.0000
  F   F7        1.0  0.4990466107196597  0.2859710030424054  0.5281005337955875  1.0000
  F   F8        1.0  0.5065949491914239  0.34154387986048107  0.4820220051008732  1.0000
  F   F9        1.0  0.4999954280598829  0.39032833923771887  0.7296920421631512  1.0000
  F   F10       1.0  0.4999744617415161  0.2763259993056337  0.6036223076329321  1.0000
  F   F11       1.0  0.5065743901837154  0.02618014788890131  0.6748818399241615  1.0000
  F   F12       1.0  0.49902531686391444  0.9245297360131912  0.6193153631139906  1.0000
  F   F13       1.0  0.4954859773742158  0.020024113478605374  0.8339752761294366  1.0000
  F   F14       1.0  0.5012979845291526  0.9186273896547377  0.7826222383970601  1.0000
  F   F15       1.0  0.5012573025387468  0.7480413254145547  0.5507210412882698  1.0000
  F   F16       1.0  0.4954804776110749  0.6466475936649587  0.4993655445977935  1.0000
  F   F17       1.0  0.49902825258221384  0.7421300820534567  0.7140265368924827  1.0000
  F   F18       1.0  0.5065874006955441  0.6404791045790362  0.6584536310166983  1.0000
  F   F19       1.0  0.5000057504254443  0.8393658957721046  0.6096735710741754  1.0000
  F   F20       1.0  0.49996774337699895  0.8272965573283244  0.723672544769677  1.0000
  F   F21       1.0  0.5065643390698041  0.14870201256407967  0.9738181131161882  1.0000
  F   F22       1.0  0.49902781521240774  0.1947868822926537  0.07547011054251837  1.0000
  F   F23       1.0  0.49548900096763054  0.3139531605208674  0.9799755053991746  1.0000
  F   F24       1.0  0.501280913580821  0.3639985895921001  0.0813736155961492  1.0000
  F   F25       1.0  0.5012630834165677  0.3026819614648133  0.25195678876202265  1.0000
  F   F26       1.0  0.49547745439269875  0.3527214247998174  0.3533507914687561  1.0000
  F   F27       1.0  0.499047305214674  0.4719003580631025  0.2578693589911153  1.0000
  F   F28       1.0  0.5066025047888231  0.5179788116246584  0.35952113211171616  1.0000
  F   F29       1.0  0.5000034027930057  0.2703096988578579  0.16063449184238718  1.0000
  F   F30       1.0  0.49995880128143716  0.3963791773317666  0.17270265732696533  1.0000
