data_image0
_chemical_formula_structural       Ca4H44C68N8O20
_chemical_formula_sum              "Ca4 H44 C68 N8 O20"
_cell_length_a       10.01904825
_cell_length_b       11.919539995482653
_cell_length_c       14.7122
_cell_angle_alpha    108.43417103242403
_cell_angle_beta     90.0
_cell_angle_gamma    114.85178333942292

_space_group_name_H-M_alt    "P 1"
_space_group_IT_number       1

loop_
  _space_group_symop_operation_xyz
  'x, y, z'

loop_
  _atom_site_type_symbol
  _atom_site_label
  _atom_site_symmetry_multiplicity
  _atom_site_fract_x
  _atom_site_fract_y
  _atom_site_fract_z
  _atom_site_occupancy
  Ca  Ca1       1.0  0.6017023036292102  0.9155778731502552  0.9093267847428732  1.0000
  Ca  Ca2       1.0  0.6859213220870544  0.084316354203807  0.5906193367421791  1.0000
  Ca  Ca3       1.0  0.398297068664256  0.0844219000740836  0.0906728852760068  1.0000
  Ca  Ca4       1.0  0.3140785434044203  0.9156844054305395  0.40938058598624855  1.0000
  H   H1        1.0  0.2189829550917963  0.7505790991922937  0.8840414556363569  1.0000
  H   H2        1.0  0.4677693559866256  0.24937727199193202  0.6159538922422598  1.0000
  H   H3        1.0  0.7810154191028715  0.24942067403204501  0.1159595737985128  1.0000
  H   H4        1.0  0.5322315076036475  0.7506234876424145  0.38404671019416264  1.0000
  H   H5        1.0  0.006593116721752808  0.5255197929949063  0.8265293817708892  1.0000
  H   H6        1.0  0.4804775997503938  0.47442868690929885  0.6735312355230716  1.0000
  H   H7        1.0  0.9934077585712943  0.4744789938194316  0.17347071524643098  1.0000
  H   H8        1.0  0.5195217725430723  0.525571086315047  0.3264691142038032  1.0000
  H   H9        1.0  0.05753407617174837  0.3295862149448325  0.8039100384614315  1.0000
  H   H10       1.0  0.7274250040466441  0.670397775719465  0.6961834661562635  1.0000
  H   H11       1.0  0.942467785517323  0.6704145446895069  0.19608920455899437  1.0000
  H   H12       1.0  0.272575859543629  0.3296029839148815  0.303817815988161  1.0000
  H   H13       1.0  0.502813617142806  0.2875690944733051  0.8599024637013315  1.0000
  H   H14       1.0  0.21469228959383455  0.7123576844108399  0.6403068876979319  1.0000
  H   H15       1.0  0.4971892426450637  0.7124316651610343  0.14009813873509103  1.0000
  H   H16       1.0  0.7853070826996316  0.2876420888134987  0.35969210261294643  1.0000
  H   H17       1.0  0.24191242950603004  0.2462888222737334  0.8210767979248174  1.0000
  H   H18       1.0  0.9950901514389798  0.7536843178805341  0.679041115207717  1.0000
  H   H19       1.0  0.758089937083824  0.7537109509506055  0.17892219238606089  1.0000
  H   H20       1.0  0.004910218953284582  0.24631545534380453  0.3209592345191581  1.0000
  H   H21       1.0  0.7688264245339412  0.4455594253626671  0.918998794896325  1.0000
  H   H22       1.0  0.322695037981056  0.5544531711917102  0.5813324593094719  1.0000
  H   H23       1.0  0.2311759420559127  0.5544403478616715  0.08100087512254822  1.0000
  H   H24       1.0  0.6773053324112083  0.4455466020326355  0.41866653100140644  1.0000
  H   H25       1.0  0.9664138773627118  0.6832516844635848  0.9794061065627417  1.0000
  H   H26       1.0  0.2827642901287675  0.3168427841210075  0.5208237750962253  1.0000
  H   H27       1.0  0.033586986227561504  0.31674907517076184  0.020593816165686007  1.0000
  H   H28       1.0  0.7172355753627144  0.6831579755133319  0.479176827340197  1.0000
  H   H29       1.0  0.8943944500143672  0.8589303195198924  0.9837356200156292  1.0000
  H   H30       1.0  0.0350206192506235  0.14102802448433494  0.516284702770001  1.0000
  H   H31       1.0  0.10560691847669552  0.1410694537044463  0.01626472971124571  1.0000
  H   H32       1.0  0.9649787530428499  0.8589717487400038  0.483715646956874  1.0000
  H   H33       1.0  0.10904693150455097  0.9416230428593906  0.8991656794545263  1.0000
  H   H34       1.0  0.16777031956896593  0.058487208285242814  0.6009030765138732  1.0000
  H   H35       1.0  0.8909519475909065  0.0583757439549473  0.10083373785479921  1.0000
  H   H36       1.0  0.8322290527245003  0.9415125649390959  0.3990965935049999  1.0000
  H   H37       1.0  0.6270779447132142  0.1315062087290642  0.8337872504142323  1.0000
  H   H38       1.0  0.4956002751570949  0.8684886324452634  0.6662825253966247  1.0000
  H   H39       1.0  0.3729214275802518  0.8684935644952816  0.16621377902064438  1.0000
  H   H40       1.0  0.5044000952351695  0.1315111407790752  0.3337178243302503  1.0000
  H   H41       1.0  0.7817478705737883  0.136966974503558  0.8412274951681197  1.0000
  H   H42       1.0  0.6447912409372804  0.8629953151406866  0.6588985134873155  1.0000
  H   H43       1.0  0.21825199491768635  0.8630337851307885  0.1587731072683026  1.0000
  H   H44       1.0  0.355209129454984  0.1370044580836591  0.34110183623955953  1.0000
  C   C1        1.0  0.23908992489110403  0.6644704380137298  0.8726892952008072  1.0000
  C   C2        1.0  0.5739888735866715  0.3354662049704444  0.6272710913349114  1.0000
  C   C3        1.0  0.7609114435999587  0.33552933521060885  0.1273110545260678  1.0000
  C   C4        1.0  0.4260104987067948  0.6645335682539013  0.37272857868396153  1.0000
  C   C5        1.0  0.1191626358697278  0.5373912373764186  0.8415533135003628  1.0000
  C   C6        1.0  0.5811802933220847  0.4625641473978064  0.6584655714486161  1.0000
  C   C7        1.0  0.8808372413245281  0.4626075494379195  0.1584461038089628  1.0000
  C   C8        1.0  0.4188195721693972  0.5374366122365402  0.3415350309878065  1.0000
  C   C9        1.0  0.1473826083991341  0.4300895572916019  0.8290062691923621  1.0000
  C   C10       1.0  0.7167139164374562  0.5698628682526135  0.6710295300359022  1.0000
  C   C11       1.0  0.8526187600919287  0.5699102159327367  0.1709920414105213  1.0000
  C   C12       1.0  0.28328545585601006  0.4301369049717323  0.32897081969097286  1.0000
  C   C13       1.0  0.2957639635942613  0.45154298843854695  0.8496130377014524  1.0000
  C   C14       1.0  0.8436148900440515  0.5483768855755785  0.650402187367682  1.0000
  C   C15       1.0  0.7042378980948101  0.5484577711957925  0.15038552561097873  1.0000
  C   C16       1.0  0.15638597354622158  0.451623874058761  0.3495984150687406  1.0000
  C   C17       1.0  0.4101464549059131  0.5835621303689749  0.8798864230917474  1.0000
  C   C18       1.0  0.8259467978403735  0.41633702903509834  0.620057563401069  1.0000
  C   C19       1.0  0.5898544086843601  0.4164386292653718  0.12011281992868562  1.0000
  C   C20       1.0  0.174053572551891  0.5836627441892404  0.3799427863257989  1.0000
  C   C21       1.0  0.5626622115351053  0.6082499999145057  0.9033820211577961  1.0000
  C   C22       1.0  0.9537835012488713  0.39165211871957695  0.5965749582076257  1.0000
  C   C23       1.0  0.4373376539563694  0.3917507597198409  0.09661722186262979  1.0000
  C   C24       1.0  0.04621636424260339  0.6083486409147625  0.40342564422879684  1.0000
  C   C25       1.0  0.5937541371511941  0.49978336961659414  0.8964472676162103  1.0000
  C   C26       1.0  0.09335873335112413  0.5001315723475203  0.6036611733168158  1.0000
  C   C27       1.0  0.4062472313398615  0.5002164036077447  0.1035524024026628  1.0000
  C   C28       1.0  0.9066406389423493  0.4998682008768185  0.39633917641005917  1.0000
  C   C29       1.0  0.47562407419788144  0.3687249910287208  0.8655166893996836  1.0000
  C   C30       1.0  0.1063170245988303  0.6312077063154433  0.6346404813250857  1.0000
  C   C31       1.0  0.5243772942931813  0.631274782195618  0.13448298061918962  1.0000
  C   C32       1.0  0.893682347694636  0.3687920669089025  0.3653585089857927  1.0000
  C   C33       1.0  0.3322200653234262  0.34570218156761  0.8429533678052934  1.0000
  C   C34       1.0  0.9859325972059025  0.6542443255165864  0.6571420888854361  1.0000
  C   C35       1.0  0.6677827944644434  0.6542985780667294  0.15704655492313435  1.0000
  C   C36       1.0  0.014066775087563592  0.3457554477077522  0.3428582608414388  1.0000
  C   C37       1.0  0.7426689809834882  0.5270408372189479  0.9228047873895162  1.0000
  C   C38       1.0  0.21506159942516237  0.4729263844753079  0.5773850179494389  1.0000
  C   C39       1.0  0.257332880705576  0.47295992241539864  0.0771951353389113  1.0000
  C   C40       1.0  0.7849377728683109  0.5270733887490309  0.42261465206943427  1.0000
  C   C41       1.0  0.8507149339417596  0.6563019767820464  0.955152282293632  1.0000
  C   C42       1.0  0.1939159524405625  0.3436928643922812  0.5449820657769777  1.0000
  C   C43       1.0  0.14928692774731192  0.343698782852293  0.044847640434795714  1.0000
  C   C44       1.0  0.8060849111497107  0.6563078952420653  0.45501785695145  1.0000
  C   C45       1.0  0.8096954637257242  0.7567688219587225  0.9586176513724779  1.0000
  C   C46       1.0  0.052391946747491126  0.24317373948546364  0.5413598847044838  1.0000
  C   C47       1.0  0.1903063979633473  0.243231937675624  0.041382951063944504  1.0000
  C   C48       1.0  0.947607425545975  0.756826033738875  0.4586404650223912  1.0000
  C   C49       1.0  0.8661854052094854  0.9554722392961494  0.8333916623028299  1.0000
  C   C50       1.0  0.9107321308835238  0.0444338249779435  0.6664351442572851  1.0000
  C   C51       1.0  0.1338149534799982  0.0445295067481979  0.1666098725511418  1.0000
  C   C52       1.0  0.08926773460795803  0.9555669346564032  0.3335647784711355  1.0000
  C   C53       1.0  0.008803550628883348  0.9833215529000727  0.7920387613417148  1.0000
  C   C54       1.0  0.025505291444346802  0.0165943754740496  0.7078497069096912  1.0000
  C   C55       1.0  0.9911953284665744  0.016677233914265302  0.20796065596761076  1.0000
  C   C56       1.0  0.9744930827503211  0.9834053977502961  0.29214996310918195  1.0000
  C   C57       1.0  0.12236251368697278  0.9682166565299752  0.8341043661673169  1.0000
  C   C58       1.0  0.1542965194918722  0.03181270899444401  0.665917159006028  1.0000
  C   C59       1.0  0.8776348741116781  0.0317811438743547  0.1658941187244594  1.0000
  C   C60       1.0  0.8457018547027957  0.9681870642299019  0.3340831907208468  1.0000
  C   C61       1.0  0.36027509355405135  0.9493278913898424  0.83311033912274  1.0000
  C   C62       1.0  0.41105395118113824  0.050739944124679005  0.6670529050745841  1.0000
  C   C63       1.0  0.6397212961458082  0.050669909014494904  0.166888825477038  1.0000
  C   C64       1.0  0.5889449279143193  0.949258842689659  0.3329471919427363  1.0000
  C   C65       1.0  0.25112450423387866  0.982895423778942  0.7920431020513875  1.0000
  C   C66       1.0  0.26829121374342446  0.0171181591854364  0.7080396317368951  1.0000
  C   C67       1.0  0.7488723903667706  0.0171013902153945  0.20795513013083414  1.0000
  C   C68       1.0  0.7317076653520334  0.9828806276289017  0.2919597855724306  1.0000
  N   N1        1.0  0.3806051313329206  0.6880653652763584  0.8898840376433341  1.0000
  N   N2        1.0  0.6918732615012857  0.3118367533577242  0.6100226433302751  1.0000
  N   N3        1.0  0.6193952390593438  0.3119344079479803  0.1101163120835409  1.0000
  N   N4        1.0  0.3081271088909788  0.6881630198666215  0.3899777063965928  1.0000
  N   N5        1.0  0.6707710109603084  0.7346564689300267  0.9328224293223997  1.0000
  N   N6        1.0  0.9355171556096735  0.2652308535540158  0.5670736639279781  1.0000
  N   N7        1.0  0.329229359431956  0.2653433042943121  0.06717724069647353  1.0000
  N   N8        1.0  0.06448221668379267  0.7347689196703302  0.43292736550689176  1.0000
  O   O1        1.0  0.8724948902632762  0.0102063842970921  0.9235994107260623  1.0000
  O   O2        1.0  0.8623300610234711  0.9897440684271219  0.576227892435881  1.0000
  O   O3        1.0  0.12750597332699698  0.9897943753372545  0.07640119171036013  1.0000
  O   O4        1.0  0.137669804468004  0.010256691207224802  0.42377271000054856  1.0000
  O   O5        1.0  0.7438357924583557  0.8748213846620774  0.7755305647353694  1.0000
  O   O6        1.0  0.8689975181458252  0.1250471960319146  0.7243111083497311  1.0000
  O   O7        1.0  0.2561615719347401  0.1251803613822702  0.2244709701186025  1.0000
  O   O8        1.0  0.13100185414764107  0.8749525771924241  0.27568924137713674  1.0000
  O   O9        1.0  0.7000770985457763  0.1323130921112039  0.8794140943399141  1.0000
  O   O10       1.0  0.5677810362708372  0.86760480908292  0.6206577207819066  1.0000
  O   O11       1.0  0.29992227374769714  0.867686681113135  0.12058693509495552  1.0000
  O   O12       1.0  0.4322193341214274  0.1323949641414188  0.37934262894496834  1.0000
  O   O13       1.0  0.3900306629792568  0.9851247103848594  0.9252551630892112  1.0000
  O   O14       1.0  0.4050553182350143  0.014995404859803304  0.5749065211383524  1.0000
  O   O15       1.0  0.6099667131166201  0.0148750628394865  0.0747445069296617  1.0000
  O   O16       1.0  0.5949440540584519  0.9850043683645354  0.4250938285885226  1.0000
  O   O17       1.0  0.4157633436395188  0.8816138039401055  0.776232128881311  1.0000
  O   O18       1.0  0.5342521821933843  0.1184796782344861  0.7239472016762961  1.0000
  O   O19       1.0  0.5842355354559388  0.11838498287423253  0.2237686478440111  1.0000
  O   O20       1.0  0.4657461920012906  0.8815200949898525  0.27605314805057896  1.0000
