data_image0
_chemical_formula_structural       Zn8H104C160N16O48
_chemical_formula_sum              "Zn8 H104 C160 N16 O48"
_cell_length_a       12.266378293096288
_cell_length_b       15.704962243199931
_cell_length_c       26.64429602000307
_cell_angle_alpha    90.00001874678291
_cell_angle_beta     89.99994661713919
_cell_angle_gamma    96.13240975353555

_space_group_name_H-M_alt    "P 1"
_space_group_IT_number       1

loop_
  _space_group_symop_operation_xyz
  'x, y, z'

loop_
  _atom_site_type_symbol
  _atom_site_label
  _atom_site_symmetry_multiplicity
  _atom_site_fract_x
  _atom_site_fract_y
  _atom_site_fract_z
  _atom_site_occupancy
  Zn  Zn1       1.0  0.1181677474336098  0.5902729396493456  0.2283761160886897  1.0000
  Zn  Zn2       1.0  0.8818330530299004  0.909727571687938  0.7283760578798705  1.0000
  Zn  Zn3       1.0  0.8818327433246934  0.4097271777549167  0.7716239153250726  1.0000
  Zn  Zn4       1.0  0.1181674377284025  0.09027254571632429  0.2716239735338917  1.0000
  Zn  Zn5       1.0  0.2664167126694039  0.777042673439681  0.2510327339449745  1.0000
  Zn  Zn6       1.0  0.7335832279302892  0.722957847053017  0.7510330786011893  1.0000
  Zn  Zn7       1.0  0.7335829628937488  0.2229574442638551  0.7489669221541106  1.0000
  Zn  Zn8       1.0  0.26641735079917334  0.27704291075720283  0.2489669528126157  1.0000
  H   H1        1.0  0.8719756360120883  0.19129576603118886  0.20244578829726828  1.0000
  H   H2        1.0  0.12802485736860086  0.30870521121181577  0.7024464090759253  1.0000
  H   H3        1.0  0.1280248547469611  0.8087043513729241  0.7975534924867914  1.0000
  H   H4        1.0  0.8719765365549036  0.691295546299351  0.2975551235971068  1.0000
  H   H5        1.0  0.5243351092117763  0.1710408372456556  0.2093392687338493  1.0000
  H   H6        1.0  0.4756660098312863  0.328958861580638  0.7093401197033272  1.0000
  H   H7        1.0  0.4756669239671609  0.8289586391537968  0.7906600120498125  1.0000
  H   H8        1.0  0.524334480926278  0.6710412558237735  0.2906606623401302  1.0000
  H   H9        1.0  0.7384345936247526  0.9384469150565166  0.8733196844557368  1.0000
  H   H10       1.0  0.26156583310815046  0.5615530125303465  0.37332042628558065  1.0000
  H   H11       1.0  0.2615652578810809  0.06155448345887749  0.1266795963285787  1.0000
  H   H12       1.0  0.7384345696786311  0.4384464644680222  0.6266799804429863  1.0000
  H   H13       1.0  0.7023166285139623  0.9510371226510798  0.965102940307787  1.0000
  H   H14       1.0  0.2976828900427435  0.5489634815171626  0.465103288912914  1.0000
  H   H15       1.0  0.2976831350203497  0.048963635458420605  0.0348967157913407  1.0000
  H   H16       1.0  0.7023158823529909  0.4510359960799093  0.5348971178160014  1.0000
  H   H17       1.0  0.9995561121901699  0.8376914481228399  0.9970962048606893  1.0000
  H   H18       1.0  0.00044316734918941594  0.6623078877389261  0.49709632742159476  1.0000
  H   H19       1.0  0.0004416690684650039  0.1623067489615053  0.0029034512386161  1.0000
  H   H20       1.0  0.9995574113806497  0.3376928700712298  0.5029033286773625  1.0000
  H   H21       1.0  0.03553702185440241  0.8269658486944281  0.9054111207362396  1.0000
  H   H22       1.0  0.9644632536395576  0.673033451030136  0.40541083210425194  1.0000
  H   H23       1.0  0.9644617505416946  0.17303362890256574  0.0945889106778282  1.0000
  H   H24       1.0  0.035537325090651  0.3269673067799417  0.5945884486798434  1.0000
  H   H25       1.0  0.8145195722439238  0.7421014308444213  0.0529902254852388  1.0000
  H   H26       1.0  0.1854797676625424  0.7578977317249523  0.5529900612103447  1.0000
  H   H27       1.0  0.18548065460090868  0.25789676534194683  0.9470098059283956  1.0000
  H   H28       1.0  0.8145190047343006  0.24210174587189934  0.4470092195740136  1.0000
  H   H29       1.0  0.9155155295912392  0.6747754297701364  0.12181018038074137  1.0000
  H   H30       1.0  0.08448303538338561  0.8252250408105795  0.621808946434882  1.0000
  H   H31       1.0  0.08448414597080499  0.3252246879336198  0.8781906016628935  1.0000
  H   H32       1.0  0.9155166401797671  0.17477507689295635  0.378190709664203  1.0000
  H   H33       1.0  0.07113657721356503  0.9230535956184271  0.16371916754213336  1.0000
  H   H34       1.0  0.9288651659167043  0.5769468901466652  0.663720150968757  1.0000
  H   H35       1.0  0.9288631863211165  0.07694716249100253  0.8362801132421396  1.0000
  H   H36       1.0  0.0711369552319141  0.423053226659043  0.3362806310743522  1.0000
  H   H37       1.0  0.9658155407926828  0.9905480976339477  0.0966888757736797  1.0000
  H   H38       1.0  0.0341845281555635  0.5094510817171879  0.5966898544104424  1.0000
  H   H39       1.0  0.034181513241584596  0.009450740155713799  0.9033107803258387  1.0000
  H   H40       1.0  0.9658150594356911  0.4905483955805324  0.4033105523183024  1.0000
  H   H41       1.0  0.8318035427293251  0.6532305963621923  0.8971176010476611  1.0000
  H   H42       1.0  0.1681952946659706  0.8467699815313807  0.3971180625676709  1.0000
  H   H43       1.0  0.1681954056087207  0.34677016204680206  0.1028828056813396  1.0000
  H   H44       1.0  0.8318036536724448  0.15323077687754252  0.602881968846475  1.0000
  H   H45       1.0  0.8308543609545751  0.5948082618627879  0.9844094496912277  1.0000
  H   H46       1.0  0.16914430434337643  0.9051923501513387  0.4844099220659713  1.0000
  H   H47       1.0  0.16914386015947255  0.4051931372514516  0.0155905817231385  1.0000
  H   H48       1.0  0.8308545560238798  0.09480776785161987  0.515590109348139  1.0000
  H   H49       1.0  0.5118444146014197  0.679016681990035  0.0085770260321354  1.0000
  H   H50       1.0  0.4881551008380569  0.8209831036250251  0.5085763688505551  1.0000
  H   H51       1.0  0.48815453373699563  0.32098407641889554  0.9914230053820176  1.0000
  H   H52       1.0  0.5118444867535743  0.1790163736726171  0.4914236625633421  1.0000
  H   H53       1.0  0.5134991261520412  0.7351878118721161  0.920749001473105  1.0000
  H   H54       1.0  0.48649966465481503  0.7648127752582283  0.4207481847981498  1.0000
  H   H55       1.0  0.48649982218600474  0.26481294653687837  0.0792514052558957  1.0000
  H   H56       1.0  0.5134991957128108  0.23518734274465908  0.5792514713011058  1.0000
  H   H57       1.0  0.676597417333575  0.7169713385313374  0.1178945758137715  1.0000
  H   H58       1.0  0.3234042401998849  0.7830278485096471  0.6178939819425509  1.0000
  H   H59       1.0  0.32340298545357626  0.2830281384669533  0.882105455599941  1.0000
  H   H60       1.0  0.6765961625876359  0.21697162848857943  0.38210567415631397  1.0000
  H   H61       1.0  0.5255741941214396  0.7289671394200425  0.17999945905245335  1.0000
  H   H62       1.0  0.47442661374616085  0.7710327126018867  0.6799995487575146  1.0000
  H   H63       1.0  0.4744262086657116  0.2710323375782551  0.8200005723612662  1.0000
  H   H64       1.0  0.5255738770121425  0.2289674048023755  0.32000048265624764  1.0000
  H   H65       1.0  0.34259880341222265  0.5066735108386311  0.1152997002529119  1.0000
  H   H66       1.0  0.6574036744323237  0.9933256748887801  0.6152993790536598  1.0000
  H   H67       1.0  0.6574023265985574  0.49332532545449936  0.8847010817902898  1.0000
  H   H68       1.0  0.3425976315218763  0.0066744422160596  0.38470027704507004  1.0000
  H   H69       1.0  0.4936633543162827  0.4938925175469536  0.05365157510378538  1.0000
  H   H70       1.0  0.5063397020602736  0.006107119825287601  0.5536508494314916  1.0000
  H   H71       1.0  0.506337863666026  0.5061069591520706  0.9463488316246043  1.0000
  H   H72       1.0  0.49366151592314367  0.9938923568735163  0.446348431352348  1.0000
  H   H73       1.0  0.9017942765089372  0.5225335899403163  0.2644245577526476  1.0000
  H   H74       1.0  0.09820636491445361  0.9774662950813495  0.7644233472705936  1.0000
  H   H75       1.0  0.0982061262778444  0.47746588705805243  0.7355758489759195  1.0000
  H   H76       1.0  0.9017956682644906  0.0225331813181029  0.2355759335130756  1.0000
  H   H77       1.0  0.7796570812054  0.38619518937408504  0.2615429033627592  1.0000
  H   H78       1.0  0.2203431197224788  0.1138045301567203  0.761543071681821  1.0000
  H   H79       1.0  0.22034413677764764  0.6138042873247824  0.7384567527359278  1.0000
  H   H80       1.0  0.7796573710354621  0.886195587247613  0.2384573350467889  1.0000
  H   H81       1.0  0.02527342247616821  0.28143263006383995  0.17043687605684002  1.0000
  H   H82       1.0  0.9747272219821639  0.2185689750734454  0.6704371164923728  1.0000
  H   H83       1.0  0.9747279714495604  0.7185681274468863  0.8295624047270849  1.0000
  H   H84       1.0  0.0252733567465597  0.7814317827369237  0.3295636655511345  1.0000
  H   H85       1.0  0.13791840419741416  0.42235557194359796  0.17701012980102598  1.0000
  H   H86       1.0  0.8620820513604099  0.07764475495088871  0.6770092654165436  1.0000
  H   H87       1.0  0.8620821745320483  0.5776451858666293  0.8229899016127789  1.0000
  H   H88       1.0  0.13791843939789325  0.9223553624533668  0.32299076599721827  1.0000
  H   H89       1.0  0.3554079147105895  0.09082457028755193  0.19474592984584393  1.0000
  H   H90       1.0  0.6445924179087541  0.4091751231337  0.6947459732319246  1.0000
  H   H91       1.0  0.6445933912432408  0.9091755468173588  0.8052541015677405  1.0000
  H   H92       1.0  0.3554072576540293  0.5908249945699071  0.3052540581820081  1.0000
  H   H93       1.0  0.2390442299271882  0.9520025185958476  0.2059184102834806  1.0000
  H   H94       1.0  0.7609557116457708  0.5479973438564939  0.7059179588502076  1.0000
  H   H95       1.0  0.7609554456355951  0.047997599107759505  0.7940816211304522  1.0000
  H   H96       1.0  0.2390447791132715  0.45200277354761914  0.2940813219338523  1.0000
  H   H97       1.0  0.4997952114748826  0.8360566197391891  0.2644839738821858  1.0000
  H   H98       1.0  0.500205429829002  0.6639432653061732  0.7644851578380382  1.0000
  H   H99       1.0  0.5002043761174804  0.1639428575583111  0.7355153069020018  1.0000
  H   H100      1.0  0.49979596409561816  0.3360574922047732  0.2355152488904437  1.0000
  H   H101      1.0  0.6278415351495354  0.9673762947010476  0.2532939468002269  1.0000
  H   H102      1.0  0.37215904024449736  0.5326229455644055  0.7532951603341116  1.0000
  H   H103      1.0  0.37215877966757194  0.0326225418910653  0.7467049586688929  1.0000
  H   H104      1.0  0.627842265708601  0.46737717154064745  0.24670562170917518  1.0000
  C   C1        1.0  0.9155299803570995  0.8806418817491134  0.8288969998050888  1.0000
  C   C2        1.0  0.08446963078947795  0.6193573883671847  0.3288974533808542  1.0000
  C   C3        1.0  0.08446870406821459  0.1193569554418445  0.1711026562940816  1.0000
  C   C4        1.0  0.9155308599692019  0.3806427290369997  0.6711022027180532  1.0000
  C   C5        1.0  0.8894511071297442  0.8819400306845822  0.8834189939752334  1.0000
  C   C6        1.0  0.1105501148883974  0.6180599005503993  0.3834190608060267  1.0000
  C   C7        1.0  0.11054938362893549  0.11806008671960203  0.116580662123674  1.0000
  C   C8        1.0  0.8894512790369616  0.381940856960398  0.6165805952927528  1.0000
  C   C9        1.0  0.7952214480504194  0.91643469825366  0.9005277449959265  1.0000
  C   C10       1.0  0.2047790130132086  0.5835658803740812  0.4005277647828862  1.0000
  C   C11       1.0  0.20477840345504456  0.0835667002618052  0.09947191110323668  1.0000
  C   C12       1.0  0.7952214777454714  0.4164342370301028  0.5994718913160213  1.0000
  C   C13       1.0  0.7746427474900555  0.9236183757393733  0.9514226958309847  1.0000
  C   C14       1.0  0.22535752526218286  0.5763815823761647  0.45142270541141727  1.0000
  C   C15       1.0  0.22535692807272772  0.07638174196423363  0.048577335582948  1.0000
  C   C16       1.0  0.7746421503006006  0.42361853532744226  0.5485773260025155  1.0000
  C   C17       1.0  0.8487228435420346  0.8956213188615224  0.9861058979819645  1.0000
  C   C18       1.0  0.15127744880280863  0.6043792932169297  0.4861059447162148  1.0000
  C   C19       1.0  0.1512759288544316  0.10437815873540053  0.0138937581172485  1.0000
  C   C20       1.0  0.8487223147315034  0.39562146489257094  0.513893711382913  1.0000
  C   C21       1.0  0.9422631207937043  0.859390036043834  0.9699346834403214  1.0000
  C   C22       1.0  0.05773630026659763  0.6406099296069531  0.469934401943128  1.0000
  C   C23       1.0  0.057735563631240376  0.14060880114720214  0.030065347973703603  1.0000
  C   C24       1.0  0.9422634632677143  0.3593908285025479  0.5300652541559998  1.0000
  C   C25       1.0  0.9618661505045976  0.8530681062402791  0.9186970704381707  1.0000
  C   C26       1.0  0.03813328360035231  0.6469311989768373  0.41869679856304737  1.0000
  C   C27       1.0  0.03813262189150629  0.14693137135671458  0.08130296097589708  1.0000
  C   C28       1.0  0.9618663919628003  0.3530689187266987  0.5813028575360377  1.0000
  C   C29       1.0  0.8846493593115738  0.8697560167531794  0.0720502121677384  1.0000
  C   C30       1.0  0.11535003098859417  0.6302437936723776  0.5720504286643973  1.0000
  C   C31       1.0  0.11534932511374052  0.130242820437779  0.9279494439314391  1.0000
  C   C32       1.0  0.8846488293790316  0.3697563243305098  0.42794922743486546  1.0000
  C   C33       1.0  0.8694104643424083  0.7809456349136142  0.0781029094821335  1.0000
  C   C34       1.0  0.1305890019970235  0.719054818283567  0.5781020106208459  1.0000
  C   C35       1.0  0.13058903527732474  0.21905320197821965  0.9218978725614165  1.0000
  C   C36       1.0  0.8694106735661293  0.2809452994199688  0.42189764547823927  1.0000
  C   C37       1.0  0.9262926997337928  0.7437940649584717  0.11596991032099879  1.0000
  C   C38       1.0  0.0737057887834993  0.7562057629335116  0.6159690430057977  1.0000
  C   C39       1.0  0.07370679988630968  0.2562047719332838  0.8840304964077035  1.0000
  C   C40       1.0  0.9262938867796534  0.2437943547700243  0.38403061309328007  1.0000
  C   C41       1.0  0.9995543535567606  0.7947466948843598  0.1468999717431672  1.0000
  C   C42       1.0  0.00044334675627769884  0.7052537858030022  0.6468998766423296  1.0000
  C   C43       1.0  0.0004445947820314966  0.20525406352449235  0.8530996843561311  1.0000
  C   C44       1.0  0.9995563288065055  0.2947463319006047  0.35310015477160306  1.0000
  C   C45       1.0  0.01375133177216271  0.8837069232931328  0.1399538643477953  1.0000
  C   C46       1.0  0.9862487398499694  0.6162929133752613  0.6399544554442186  1.0000
  C   C47       1.0  0.9862474406243039  0.11629255430379001  0.8600457917514247  1.0000
  C   C48       1.0  0.013751662936435587  0.3837065636231855  0.3600463265992033  1.0000
  C   C49       1.0  0.9556158749509223  0.921644529310889  0.1027562112057936  1.0000
  C   C50       1.0  0.04438427000698648  0.5783552928177256  0.6027568234372822  1.0000
  C   C51       1.0  0.04438217022155299  0.0783555889912719  0.8972430695787849  1.0000
  C   C52       1.0  0.9556162207509473  0.4216448245866077  0.3972435832913276  1.0000
  C   C53       1.0  0.06408520899183404  0.7529980542781944  0.1854465047227905  1.0000
  C   C54       1.0  0.9359139577459741  0.7470018004715299  0.6854463919627348  1.0000
  C   C55       1.0  0.9359144665713188  0.2470020634253416  0.8145531513762946  1.0000
  C   C56       1.0  0.06408562984564982  0.25299767682611934  0.31455363945115516  1.0000
  C   C57       1.0  0.6690859074954503  0.727576695172978  0.8498974050682121  1.0000
  C   C58       1.0  0.3309130229960714  0.7724238642630468  0.34989703187287097  1.0000
  C   C59       1.0  0.3309129528714365  0.2724234228300518  0.1501030016607459  1.0000
  C   C60       1.0  0.6690859253419745  0.22757689414594753  0.6501033748561298  1.0000
  C   C61       1.0  0.6718929052720239  0.697133082179768  0.9031208006019326  1.0000
  C   C62       1.0  0.3281059202886851  0.8028674980601737  0.4031204344782963  1.0000
  C   C63       1.0  0.3281060430663913  0.30286767622915534  0.09687923081221327  1.0000
  C   C64       1.0  0.6718929400789405  0.1971326199427139  0.5968792216209593  1.0000
  C   C65       1.0  0.76156722544885  0.6579636140868106  0.9215127065811685  1.0000
  C   C66       1.0  0.23843237904738862  0.8420369730427952  0.42151238644974137  1.0000
  C   C67       1.0  0.2384316349176743  0.3420365039162974  0.0784880754626371  1.0000
  C   C68       1.0  0.7615665692906572  0.15796378536620637  0.5784880202792593  1.0000
  C   C69       1.0  0.7616654257158684  0.6255394788750266  0.9699951253023966  1.0000
  C   C70       1.0  0.2383339952245649  0.8744604867995209  0.4699955620928833  1.0000
  C   C71       1.0  0.2383334346513877  0.37446063912793903  0.030004906111706493  1.0000
  C   C72       1.0  0.7616640499471712  0.1255396315027895  0.5300044693213976  1.0000
  C   C73       1.0  0.6710876705018904  0.632534755635717  0.0012084309430945997  1.0000
  C   C74       1.0  0.3289118594644478  0.8674650270992003  0.5012082263014364  1.0000
  C   C75       1.0  0.3289111898649962  0.36746536236731236  0.9987919757858634  1.0000
  C   C76       1.0  0.6710870009028156  0.13253509090376533  0.498791805112674  1.0000
  C   C77       1.0  0.5816113070191804  0.6728974828479439  0.9840552134211931  1.0000
  C   C78       1.0  0.4183881741739057  0.8271031287281262  0.4840544379519329  1.0000
  C   C79       1.0  0.4183868261229691  0.3271032758604804  0.0159455686228327  1.0000
  C   C80       1.0  0.5816107741645099  0.1728976296807971  0.5159455934622201  1.0000
  C   C81       1.0  0.5828007226779164  0.7045052267854216  0.9351013988920014  1.0000
  C   C82       1.0  0.4171979518617589  0.7954947255490126  0.43510061783996423  1.0000
  C   C83       1.0  0.4171981376889774  0.29549489121760797  0.0648990078369636  1.0000
  C   C84       1.0  0.5828000933103468  0.20450539275322646  0.564899038259469  1.0000
  C   C85       1.0  0.5919550069289626  0.6056564566363748  0.0822974708367141  1.0000
  C   C86       1.0  0.4080459935604281  0.8943433571957655  0.5822968621380369  1.0000
  C   C87       1.0  0.40804458066229893  0.3943430206613456  0.9177029358920307  1.0000
  C   C88       1.0  0.5919544092270925  0.10565611980245392  0.417702793960828  1.0000
  C   C89       1.0  0.6031437551872754  0.6714163988406483  0.1177643529139587  1.0000
  C   C90       1.0  0.3968579026025694  0.8285827881495109  0.6177641116503807  1.0000
  C   C91       1.0  0.39685583240397887  0.328583078457072  0.882236053814779  1.0000
  C   C92       1.0  0.6031433153804784  0.171416688549364  0.3822355444483065  1.0000
  C   C93       1.0  0.5192038574848254  0.6778567355699466  0.15217924213570197  1.0000
  C   C94       1.0  0.4807961020648434  0.8221424654708828  0.6521785883324398  1.0000
  C   C95       1.0  0.4807957301064291  0.32214274172777374  0.8478211645930429  1.0000
  C   C96       1.0  0.5192043007226771  0.1778570115273368  0.3478210677664251  1.0000
  C   C97       1.0  0.4246459601705509  0.6190659225165334  0.1511219948009028  1.0000
  C   C98       1.0  0.5753548166586883  0.8809332778117636  0.6511216871094232  1.0000
  C   C99       1.0  0.5753535394495515  0.3809329143752224  0.8488784119277922  1.0000
  C   C100      1.0  0.42464567409999177  0.11906683959242773  0.3488779689894841  1.0000
  C   C101      1.0  0.4157417644769764  0.5525007509527384  0.11576920787118179  1.0000
  C   C102      1.0  0.584259897246014  0.9474984352576146  0.6157692845084882  1.0000
  C   C103      1.0  0.5842586383098051  0.4474987260456303  0.8842311988573852  1.0000
  C   C104      1.0  0.41574059351265896  0.05250168214656979  0.38423037159041934  1.0000
  C   C105      1.0  0.49955805716580665  0.5454514027931551  0.08121470149254147  1.0000
  C   C106      1.0  0.5004435847111424  0.9545471295045405  0.5812144401045316  1.0000
  C   C107      1.0  0.5004414424542886  0.4545474340986004  0.9187857052361608  1.0000
  C   C108      1.0  0.49955681807674773  0.0454523474936082  0.4187848406794785  1.0000
  C   C109      1.0  0.3333414182021456  0.6304691582305395  0.1866050321464598  1.0000
  C   C110      1.0  0.6666585614466243  0.8695306966727756  0.6866054337459601  1.0000
  C   C111      1.0  0.6666581693894854  0.3695303190671098  0.8133949992674303  1.0000
  C   C112      1.0  0.33334192931167905  0.13046942073147963  0.31339459766780203  1.0000
  C   C113      1.0  0.9253838442055838  0.4678443041712796  0.2434752230529043  1.0000
  C   C114      1.0  0.0746164803148801  0.0321560487030723  0.7434746874742899  1.0000
  C   C115      1.0  0.0746166465527267  0.5321558132329756  0.756524808360858  1.0000
  C   C116      1.0  0.9253847376677982  0.9678434279958736  0.2565253439392521  1.0000
  C   C117      1.0  0.8572048483068856  0.3916847250483145  0.2416575805011476  1.0000
  C   C118      1.0  0.1427954797967317  0.1083156271156369  0.7416574056907521  1.0000
  C   C119      1.0  0.1427964576473144  0.6083153920565252  0.7583420755975895  1.0000
  C   C120      1.0  0.8572050109612094  0.8916844902886963  0.2583430010378649  1.0000
  C   C121      1.0  0.891489185467968  0.3224708539959096  0.21464202816683547  1.0000
  C   C122      1.0  0.10851119589649018  0.17752948760838186  0.7146426320250825  1.0000
  C   C123      1.0  0.1085113052907118  0.6775292634082747  0.7853576279320718  1.0000
  C   C124      1.0  0.8914892948607046  0.8224706297961007  0.2853585253332298  1.0000
  C   C125      1.0  0.9941069675424642  0.33386434935211884  0.1906398718962592  1.0000
  C   C126      1.0  0.005893549114503606  0.16613662327605994  0.6906397669192686  1.0000
  C   C127      1.0  0.005893523216208516  0.6661357680520655  0.8093597842026483  1.0000
  C   C128      1.0  0.9941078448093777  0.8338641342350359  0.3093613904389159  1.0000
  C   C129      1.0  0.0571675396270734  0.4120408692245263  0.194434138089008  1.0000
  C   C130      1.0  0.9428328815783188  0.0879594644807824  0.6944339917058642  1.0000
  C   C131      1.0  0.942832951131237  0.5879592481797362  0.8055658933247472  1.0000
  C   C132      1.0  0.057167609179614914  0.912040652923551  0.3055664150227457  1.0000
  C   C133      1.0  0.7197320898964392  0.2277368945529901  0.2198536778769196  1.0000
  C   C134      1.0  0.2802689204468081  0.27226216797706126  0.7198538510515107  1.0000
  C   C135      1.0  0.28026904011544923  0.7722619417399201  0.7801459782217248  1.0000
  C   C136      1.0  0.7197323855062833  0.7277379491279915  0.2801469309917763  1.0000
  C   C137      1.0  0.6773221447110842  0.13195891384559394  0.21816663747919313  1.0000
  C   C138      1.0  0.3226781417330784  0.3680407887304895  0.7181675615655436  1.0000
  C   C139      1.0  0.3226791612431228  0.8680412032592386  0.7818330186195366  1.0000
  C   C140      1.0  0.6773222610529571  0.6319586882680283  0.281833595792726  1.0000
  C   C141      1.0  0.5022708473084805  0.0400748332084717  0.22193032347354352  1.0000
  C   C142      1.0  0.49772943171593914  0.4599248708386696  0.7219308149149697  1.0000
  C   C143      1.0  0.4977295554794098  0.9599246437896768  0.7780689573104738  1.0000
  C   C144      1.0  0.5022718742378984  0.5400752462662338  0.2780692164986149  1.0000
  C   C145      1.0  0.39084653093793514  0.0348090756451853  0.2088457451864443  1.0000
  C   C146      1.0  0.6091538618541531  0.46519126369343405  0.7088461898770575  1.0000
  C   C147      1.0  0.6091539598207447  0.9651910417590058  0.7911539109124632  1.0000
  C   C148      1.0  0.39084753207083617  0.5348094938174413  0.2911538415365698  1.0000
  C   C149      1.0  0.3257005406728338  0.9581265918062203  0.21575802175738085  1.0000
  C   C150      1.0  0.6742994694715562  0.5418739148983392  0.7157583569215973  1.0000
  C   C151      1.0  0.6742992228614783  0.0418741663032804  0.7842416343417398  1.0000
  C   C152      1.0  0.32570110925791335  0.45812684291188077  0.2842416744922005  1.0000
  C   C153      1.0  0.47122745899374496  0.8931525719801385  0.24812701365700454  1.0000
  C   C154      1.0  0.5287723993630279  0.6068473069708986  0.7481277990456974  1.0000
  C   C155      1.0  0.5287729437941451  0.10684690501800992  0.7518722671270126  1.0000
  C   C156      1.0  0.4712281793664345  0.3931534508393213  0.2518722323681004  1.0000
  C   C157      1.0  0.5428631541092201  0.9669092367018095  0.2419857284985767  1.0000
  C   C158      1.0  0.4571374435795547  0.5330899991434209  0.7419865303787104  1.0000
  C   C159      1.0  0.4571371607075179  0.03308959989037421  0.7580135522853908  1.0000
  C   C160      1.0  0.5428638623739062  0.46691011796156096  0.2580138763497217  1.0000
  N   N1        1.0  0.02368862673400679  0.4784474033525896  0.2202434280478798  1.0000
  N   N2        1.0  0.9763125587842366  0.0215529401415253  0.7202425038823321  1.0000
  N   N3        1.0  0.9763118640243036  0.5215527140516727  0.7797566033658825  1.0000
  N   N4        1.0  0.023688747169970346  0.9784471769633144  0.2797571522163977  1.0000
  N   N5        1.0  0.8298029918006976  0.24269297598226566  0.2118515677799735  1.0000
  N   N6        1.0  0.1701973950648465  0.25730736453136427  0.7118525358872673  1.0000
  N   N7        1.0  0.17019749895872144  0.7573071414217766  0.7881473376892316  1.0000
  N   N8        1.0  0.8298030956919789  0.7426927528731826  0.2881489967858997  1.0000
  N   N9        1.0  0.5655505034765155  0.11855651782844491  0.2163238642247407  1.0000
  N   N10       1.0  0.4344496986295923  0.3814425436213612  0.7163247429797223  1.0000
  N   N11       1.0  0.4344498113398458  0.8814423187638099  0.7836757918740817  1.0000
  N   N12       1.0  0.5655516073231297  0.618557573483763  0.2836764143784123  1.0000
  N   N13       1.0  0.36448493365655565  0.8878325792613425  0.2350304242859309  1.0000
  N   N14       1.0  0.635514950520779  0.6121672945704332  0.7350307896263857  1.0000
  N   N15       1.0  0.6355139267110699  0.11216753874154511  0.7649692318133247  1.0000
  N   N16       1.0  0.3644863554330513  0.3878328225344773  0.2649692417871989  1.0000
  O   O1        1.0  0.8385662172797836  0.9009047850596802  0.7988665757389342  1.0000
  O   O2        1.0  0.1614344442105207  0.5990957538308521  0.29886661710065  1.0000
  O   O3        1.0  0.1614335462545284  0.0990959730498204  0.2011330803601936  1.0000
  O   O4        1.0  0.8385668617433167  0.40090436327405843  0.7011334143129346  1.0000
  O   O5        1.0  0.00759156459970712  0.8632383479149084  0.8138298027151477  1.0000
  O   O6        1.0  0.9924079003097858  0.6367596355000132  0.31383024574117263  1.0000
  O   O7        1.0  0.9924077590791854  0.13675920816470466  0.186169478068912  1.0000
  O   O8        1.0  0.007592678420046196  0.3632411223101357  0.6861694103577776  1.0000
  O   O9        1.0  0.8254592874844063  0.9089379833694482  0.0358409777176263  1.0000
  O   O10       1.0  0.1745401742025336  0.5910618129027583  0.5358415366024687  1.0000
  O   O11       1.0  0.1745384937745982  0.091060213714826  0.9641583030668244  1.0000
  O   O12       1.0  0.8254585981939326  0.4089376646941716  0.46415811949674435  1.0000
  O   O13       1.0  0.1402356981717858  0.7996868646830109  0.20820558548612667  1.0000
  O   O14       1.0  0.8597635996384057  0.7003142797746946  0.7082054963708941  1.0000
  O   O15       1.0  0.8597649685292054  0.2003145335331027  0.791794070612866  1.0000
  O   O16       1.0  0.14023616389552976  0.29968647833488404  0.2917945350430813  1.0000
  O   O17       1.0  0.03858977526403611  0.6730775198905121  0.19228774159508788  1.0000
  O   O18       1.0  0.9614101931813082  0.8269223372340307  0.6922880086258304  1.0000
  O   O19       1.0  0.9614115306901637  0.3269225972143275  0.8077119145036419  1.0000
  O   O20       1.0  0.0385902975770023  0.1730777801702246  0.3077120227879249  1.0000
  O   O21       1.0  0.7540377489099086  0.7124497240815729  0.8229647916688094  1.0000
  O   O22       1.0  0.245961234679676  0.7875508248270723  0.3229644578069042  1.0000
  O   O23       1.0  0.2459611994281374  0.2875510343274216  0.17703561506019838  1.0000
  O   O24       1.0  0.7540376256875873  0.21244929317588662  0.6770355736072061  1.0000
  O   O25       1.0  0.5890636441979209  0.7624113352814986  0.8334593857184558  1.0000
  O   O26       1.0  0.41093604592584404  0.7375885770239351  0.3334589715037879  1.0000
  O   O27       1.0  0.41093603136486206  0.23758878242211523  0.16654064569547697  1.0000
  O   O28       1.0  0.5890636296369395  0.26241154067967193  0.6665410599101448  1.0000
  O   O29       1.0  0.6780122066170974  0.5986889023284477  0.04879722340306359  1.0000
  O   O30       1.0  0.3219888599181786  0.9013108984092283  0.548797028253702  1.0000
  O   O31       1.0  0.3219873809745265  0.40131057496920153  0.9512028080108266  1.0000
  O   O32       1.0  0.6780108156449743  0.09868921929430743  0.451202627845376  1.0000
  O   O33       1.0  0.3490640341595679  0.6927953259507262  0.2173943639286193  1.0000
  O   O34       1.0  0.6509344303384239  0.8072058223981884  0.7173951355693617  1.0000
  O   O35       1.0  0.650934826208065  0.3072047920521613  0.7826052921706435  1.0000
  O   O36       1.0  0.3490653331955187  0.19279493571138323  0.2826048958446208  1.0000
  O   O37       1.0  0.24636363697026553  0.5781593583602175  0.18391141105969666  1.0000
  O   O38       1.0  0.753636347989044  0.9218404954902156  0.6839117854564803  1.0000
  O   O39       1.0  0.7536358626501992  0.42183947853146714  0.8160886203541509  1.0000
  O   O40       1.0  0.24636431871157774  0.07816090272596908  0.3160882459573672  1.0000
  O   O41       1.0  0.6570436215228312  0.282252887253847  0.22908343939234038  1.0000
  O   O42       1.0  0.34295483706719654  0.21774553937578392  0.7290824492406853  1.0000
  O   O43       1.0  0.34295506290174416  0.7177459499372603  0.7709169673365324  1.0000
  O   O44       1.0  0.657045565720324  0.7822539376224357  0.2709172068581793  1.0000
  O   O45       1.0  0.7406551275436043  0.07613491172747901  0.2202105832043273  1.0000
  O   O46       1.0  0.25934669729147697  0.42386415064274263  0.7202107945711874  1.0000
  O   O47       1.0  0.2593468176630651  0.923863924266229  0.7797898235238421  1.0000
  O   O48       1.0  0.7406545206900857  0.5761353260564236  0.2797903627869047  1.0000
