data_image0
_chemical_formula_structural       Al2H11C22N2Cl3O10
_chemical_formula_sum              "Al2 H11 C22 N2 Cl3 O10"
_cell_length_a       6.646337476248435
_cell_length_b       11.125346713926735
_cell_length_c       16.866699799483783
_cell_angle_alpha    84.07499130250245
_cell_angle_beta     84.03238874706798
_cell_angle_gamma    73.02016997196264

_space_group_name_H-M_alt    "P 1"
_space_group_IT_number       1

loop_
  _space_group_symop_operation_xyz
  'x, y, z'

loop_
  _atom_site_type_symbol
  _atom_site_label
  _atom_site_symmetry_multiplicity
  _atom_site_fract_x
  _atom_site_fract_y
  _atom_site_fract_z
  _atom_site_occupancy
  Al  Al1       1.0  0.5030062766376203  0.4934795782346129  0.5027366208843063  1.0000
  Al  Al2       1.0  0.001321067314052058  0.4965753243412863  0.5045574530446473  1.0000
  H   H1        1.0  0.2383868247073765  0.5737499635323077  0.4086460338229046  1.0000
  H   H2        1.0  0.8190214179209789  0.34205320677551043  0.5434864671811752  1.0000
  H   H3        1.0  0.9310661552435633  0.42825427097348984  0.7389236053571437  1.0000
  H   H4        1.0  0.85796918312154  0.4255568337637141  0.8878735961953838  1.0000
  H   H5        1.0  0.3617338101628533  0.5922146854854802  0.8998094672957251  1.0000
  H   H6        1.0  0.546632205060206  0.5955597884247724  0.09835575749598041  1.0000
  H   H7        1.0  0.20805817158885287  0.4159148205969672  0.12160514330005867  1.0000
  H   H8        1.0  0.14099237676010992  0.4153609588632536  0.2707335329768696  1.0000
  H   H9        1.0  0.8441080105563756  0.8783812294490686  0.5551513278661773  1.0000
  H   H10       1.0  0.2894712168093319  0.8706392482155682  0.44786554685936153  1.0000
  H   H11       1.0  0.7107771827494673  0.11420129148802262  0.5499760808765402  1.0000
  C   C1        1.0  0.6456041465656741  0.7203308742762431  0.5056089422059102  1.0000
  C   C2        1.0  0.7830220196754922  0.49901714621429955  0.3580549921402181  1.0000
  C   C3        1.0  0.3587313749859861  0.2660336162890076  0.4992778682363194  1.0000
  C   C4        1.0  0.21715199486929754  0.504240557084117  0.6463666640627395  1.0000
  C   C5        1.0  0.18443370618762608  0.5117806989677193  0.7350017820303378  1.0000
  C   C6        1.0  0.023916038910741167  0.46391578830017  0.7752419046442398  1.0000
  C   C7        1.0  0.9826393930995111  0.46248683590586376  0.857427169777516  1.0000
  C   C8        1.0  0.10640968460531035  0.509112059987885  0.9021822543659113  1.0000
  C   C9        1.0  0.2680047919320857  0.5562599731320005  0.8639835583162849  1.0000
  C   C10       1.0  0.30433721028733635  0.5604685084016623  0.7808824513623379  1.0000
  C   C11       1.0  0.6760386713259194  0.5554753881025575  0.13661254234500572  1.0000
  C   C12       1.0  0.8805472903539454  0.5061938503957606  0.1016076342738756  1.0000
  C   C13       1.0  0.05023603235684253  0.45484579994070623  0.14968535424603152  1.0000
  C   C14       1.0  0.012261444147867472  0.45468435784574274  0.23205916538553592  1.0000
  C   C15       1.0  0.808619148608827  0.5047351634181894  0.26877412349361407  1.0000
  C   C16       1.0  0.6408346466229136  0.5567359892384686  0.21946310373262176  1.0000
  C   C17       1.0  0.4279292176311245  0.1259107621216629  0.49588355748851853  1.0000
  C   C18       1.0  0.5722140959691728  0.860845773960854  0.5030391085975339  1.0000
  C   C19       1.0  0.31077090306298055  0.0559258180294648  0.4654290362092297  1.0000
  C   C20       1.0  0.6940651637812322  0.928795538632457  0.5309643634696928  1.0000
  C   C21       1.0  0.38139514092034704  0.9245452615247629  0.47037259957727434  1.0000
  C   C22       1.0  0.620213239819897  0.0593244665810317  0.5277451747080449  1.0000
  N   N1        1.0  0.08220364850884464  0.5109324856030498  0.9863617577642715  1.0000
  N   N2        1.0  0.900112189613829  0.51112505339605  0.01712994163326438  1.0000
  Cl  Cl1       1.0  0.4945867925553884  0.6310636840129006  0.7395115504059647  1.0000
  Cl  Cl2       1.0  0.3863003290653708  0.6313984428298698  0.2567390456889882  1.0000
  Cl  Cl3       1.0  0.08114180800470902  0.12466998746690189  0.4178113463848732  1.0000
  O   O1        1.0  0.5100987729507979  0.6645717034313066  0.49457810899991017  1.0000
  O   O2        1.0  0.9359746041798473  0.5120762172966451  0.3928537618111818  1.0000
  O   O3        1.0  0.1631232766974336  0.3220401792087769  0.49631379810330145  1.0000
  O   O4        1.0  0.3924609178202376  0.5102935357619316  0.6110788431655791  1.0000
  O   O5        1.0  0.5014806747538713  0.31843466449270613  0.5077975353352713  1.0000
  O   O6        1.0  0.0652120029022356  0.48802141203795213  0.6126980537986384  1.0000
  O   O7        1.0  0.8385474610203616  0.6670665437162171  0.5170781272654281  1.0000
  O   O8        1.0  0.6136188495367565  0.48053630129214747  0.39191502459917166  1.0000
  O   O9        1.0  0.23550963212533563  0.5492377606520336  0.4656231284823135  1.0000
  O   O10       1.0  0.7735193345324732  0.43349459143423985  0.5372378020709689  1.0000
