data_image0
_chemical_formula_structural       Cd2H40C52Br4N4O8
_chemical_formula_sum              "Cd2 H40 C52 Br4 N4 O8"
_cell_length_a       8.714523592959157
_cell_length_b       10.374935192925545
_cell_length_c       14.756521294812059
_cell_angle_alpha    80.01388347978391
_cell_angle_beta     73.6274773047733
_cell_angle_gamma    65.21746994260809

_space_group_name_H-M_alt    "P 1"
_space_group_IT_number       1

loop_
  _space_group_symop_operation_xyz
  'x, y, z'

loop_
  _atom_site_type_symbol
  _atom_site_label
  _atom_site_symmetry_multiplicity
  _atom_site_fract_x
  _atom_site_fract_y
  _atom_site_fract_z
  _atom_site_occupancy
  Cd  Cd1       1.0  0.639671478361713  0.2504113660030072  0.7478737188786011  1.0000
  Cd  Cd2       1.0  0.3603192786146252  0.7495916307550916  0.2521280525399375  1.0000
  H   H1        1.0  0.07700557107018852  0.1013808657393795  0.9436814027866445  1.0000
  H   H2        1.0  0.12015709950971872  0.4004237297869579  0.5586559742206487  1.0000
  H   H3        1.0  0.9229905648529456  0.8986221310187119  0.05631498968509868  1.0000
  H   H4        1.0  0.879829419008523  0.599586713390039  0.4413461553333774  1.0000
  H   H5        1.0  0.5805139988666356  0.434397484119124  0.05149622704601597  1.0000
  H   H6        1.0  0.06733015811168037  0.0658635751472048  0.44752197456854487  1.0000
  H   H7        1.0  0.419481917058356  0.5656001937683328  0.9485079788149446  1.0000
  H   H8        1.0  0.9326655353599947  0.9341372940626372  0.5524832016163754  1.0000
  H   H9        1.0  0.13586248526345204  0.06393601642691492  0.10631740551292519  1.0000
  H   H10       1.0  0.30588421093016654  0.4349804323413764  0.3985882054074778  1.0000
  H   H11       1.0  0.8641440992656019  0.936068044105312  0.8936764220522376  1.0000
  H   H12       1.0  0.6941075351657634  0.5650225644167223  0.6014137823244778  1.0000
  H   H13       1.0  0.6641830256228332  0.3902263909940801  0.20732481940631678  1.0000
  H   H14       1.0  0.2633384580098977  0.10821242319065051  0.29404849752954476  1.0000
  H   H15       1.0  0.3358222166247064  0.6097691593451202  0.7926771959607987  1.0000
  H   H16       1.0  0.7366606179640415  0.891784190922678  0.7059555134803117  1.0000
  H   H17       1.0  0.915403710080895  0.28101402012292453  0.2832955955640485  1.0000
  H   H18       1.0  0.4799936140452844  0.21540894208887812  0.22183289828329575  1.0000
  H   H19       1.0  0.08460904317693278  0.7189804664421473  0.716703079423631  1.0000
  H   H20       1.0  0.5200042801189116  0.7845887357985788  0.7781717402045059  1.0000
  H   H21       1.0  0.05051564206975456  0.100730899747056  0.25414047166538006  1.0000
  H   H22       1.0  0.40824329806510223  0.3954325015774672  0.25126195533526635  1.0000
  H   H23       1.0  0.9494958144198977  0.8992657143662728  0.7458547751278316  1.0000
  H   H24       1.0  0.5917572467066493  0.6045651763099897  0.748742443411018  1.0000
  H   H25       1.0  0.7275379420607923  0.28106827260346284  0.4318805772323911  1.0000
  H   H26       1.0  0.4408936867088259  0.2187694045598434  0.0704361946246692  1.0000
  H   H27       1.0  0.27247018235028986  0.718926213961609  0.5681179048699717  1.0000
  H   H28       1.0  0.5591063783847123  0.7812272095534852  0.9295680326986042  1.0000
  H   H29       1.0  0.8115250220687286  0.9776701227107695  0.23819250142273052  1.0000
  H   H30       1.0  0.03135210891507984  0.5189068921853348  0.26406294724544205  1.0000
  H   H31       1.0  0.18848259044577306  0.0223339378214575  0.7617990927239615  1.0000
  H   H32       1.0  0.9686484151961569  0.4810950407986354  0.7359392548341573  1.0000
  H   H33       1.0  0.5359800999276986  0.1891432950896075  0.5501172813585667  1.0000
  H   H34       1.0  0.2742465227654878  0.31209750014878784  0.9503501341575741  1.0000
  H   H35       1.0  0.46402812287559675  0.8108469363789512  0.44987849794669876  1.0000
  H   H36       1.0  0.7257558464211799  0.6879012415127974  0.049653091275018754  1.0000
  H   H37       1.0  0.6098482456019456  0.8912246457312492  0.353010229354659  1.0000
  H   H38       1.0  0.8565732053562557  0.6065725180898909  0.14735661757057975  1.0000
  H   H39       1.0  0.3901587929364255  0.1087751597044644  0.6469793343632871  1.0000
  H   H40       1.0  0.14342751144511875  0.3934283511199439  0.8526447407176574  1.0000
  C   C1        1.0  0.7671071193026936  0.2651786784506101  0.8969731010984671  1.0000
  C   C2        1.0  0.9283868295944658  0.2371556765915699  0.6014022722332156  1.0000
  C   C3        1.0  0.23288998753471188  0.734820063210968  0.10302815408526554  1.0000
  C   C4        1.0  0.07160574269411077  0.7628462563924003  0.39860064907092135  1.0000
  C   C5        1.0  0.8187598596531062  0.2621884093762574  0.9870258466426092  1.0000
  C   C6        1.0  0.06736369526886707  0.2389821767696816  0.5132390206102427  1.0000
  C   C7        1.0  0.1812357188601226  0.7378135236077128  0.012975273869898244  1.0000
  C   C8        1.0  0.9326248519122727  0.7610218837625455  0.48676561170470456  1.0000
  C   C9        1.0  0.9804075409932409  0.16411481740143333  0.001167481890462237  1.0000
  C   C10       1.0  0.1445561344368758  0.3367791874711727  0.500947247270055  1.0000
  C   C11       1.0  0.019592551408294315  0.8358881793566655  0.9988297758349559  1.0000
  C   C12       1.0  0.8554311159760816  0.6632270006093108  0.4990539568504244  1.0000
  C   C13       1.0  0.703272730888557  0.34947001282053963  0.06027371190067039  1.0000
  C   C14       1.0  0.11358770570036116  0.1506570109056398  0.43985693007132187  1.0000
  C   C15       1.0  0.2967273433076517  0.6505287288410457  0.9397281922233202  1.0000
  C   C16       1.0  0.886408189564122  0.8493449220783307  0.5601450791229465  1.0000
  C   C17       1.0  0.015858565056824127  0.1431329364969116  0.08959484207812099  1.0000
  C   C18       1.0  0.24859849427991082  0.3561632796351404  0.4139719027613749  1.0000
  C   C19       1.0  0.9841473380012155  0.8568689964870587  0.9104019810546756  1.0000
  C   C20       1.0  0.7513895434598373  0.6438418446712078  0.5860326846631734  1.0000
  C   C21       1.0  0.7450616089091753  0.3263967519799849  0.14682413903256014  1.0000
  C   C22       1.0  0.21954298571325392  0.1724973575316113  0.35471295809256986  1.0000
  C   C23       1.0  0.25494147151168534  0.6736019896816003  0.8531759642997939  1.0000
  C   C24       1.0  0.780452677995243  0.8275056392264872  0.6452923446249553  1.0000
  C   C25       1.0  0.9199987187899626  0.1848179894843653  0.2592337872735867  1.0000
  C   C26       1.0  0.36586975021020857  0.3123315304569871  0.244857526155691  1.0000
  C   C27       1.0  0.08001222825829765  0.8151796884030916  0.7407614146292116  1.0000
  C   C28       1.0  0.6341277974395614  0.6876682749787193  0.755146350182933  1.0000
  C   C29       1.0  0.7861606742779657  0.1356333288931353  0.3265634386012549  1.0000
  C   C30       1.0  0.25039456093579565  0.3625150749545938  0.17583160949971696  1.0000
  C   C31       1.0  0.2138505895215421  0.8643643489943216  0.6734326519833116  1.0000
  C   C32       1.0  0.7496044943776284  0.637485794255241  0.8241702048434546  1.0000
  C   C33       1.0  0.7048306528749111  0.1934111568919263  0.4149164359023273  1.0000
  C   C34       1.0  0.31401361828152835  0.30600739326487064  0.08694766892253368  1.0000
  C   C35       1.0  0.2951783365946598  0.8065822658990173  0.5850805300403222  1.0000
  C   C36       1.0  0.6859887897709811  0.6939913483967146  0.9130531067781715  1.0000
  C   C37       1.0  0.7487834040651792  0.0264592538906001  0.30597395273210976  1.0000
  C   C38       1.0  0.08388750175770107  0.471028546223522  0.19591289352766947  1.0000
  C   C39       1.0  0.25122490147818904  0.9735405515451135  0.6940191657129161  1.0000
  C   C40       1.0  0.916115039458589  0.5289733867604411  0.8040872914468834  1.0000
  C   C41       1.0  0.5936388688914819  0.1407511462238844  0.4822443275784279  1.0000
  C   C42       1.0  0.21672098301721832  0.3593514106973431  0.01862803540548437  1.0000
  C   C43       1.0  0.4063709856365778  0.8592412127929309  0.5177511222045152  1.0000
  C   C44       1.0  0.7832817417865386  0.6406473309642422  0.981373628976996  1.0000
  C   C45       1.0  0.6350228318972526  0.9756372503517882  0.3727791270694495  1.0000
  C   C46       1.0  0.9854068369910746  0.5226035072808133  0.12809098777398012  1.0000
  C   C47       1.0  0.36498636846778987  0.0243593637615405  0.6272123486832653  1.0000
  C   C48       1.0  0.014596213666600332  0.4773973619290289  0.8719092420909715  1.0000
  C   C49       1.0  0.5570321677814648  0.029501647897234303  0.4634749760904737  1.0000
  C   C50       1.0  0.050567151922692156  0.47005519289622555  0.036947116042035974  1.0000
  C   C51       1.0  0.4429788776590088  0.9704917748937092  0.5365175230152344  1.0000
  C   C52       1.0  0.9494377140472353  0.529944612539488  0.963054263708514  1.0000
  Br  Br1       1.0  0.5101330953124761  0.0630637216417895  0.8389381807638896  1.0000
  Br  Br2       1.0  0.4067909026595444  0.4378153903930198  0.6590275041164019  1.0000
  Br  Br3       1.0  0.48986318533228956  0.936936083793917  0.1610621408476617  1.0000
  Br  Br4       1.0  0.5932091549704311  0.5621801599461804  0.3409676415380785  1.0000
  N   N1        1.0  0.8943406294979184  0.2191353428599427  0.16152892169767327  1.0000
  N   N2        1.0  0.2762699881444138  0.2792173056204064  0.3415705694115657  1.0000
  N   N3        1.0  0.10566609975276714  0.7808655263498993  0.8384688350072976  1.0000
  N   N4        1.0  0.7237249180004643  0.7207846273635639  0.6584312234692927  1.0000
  O   O1        1.0  0.6258110533619434  0.3635916143723321  0.8824209818530446  1.0000
  O   O2        1.0  0.8725787522728585  0.1381289429978807  0.6150906795666413  1.0000
  O   O3        1.0  0.3741735282381314  0.6364103186116381  0.11758510840751768  1.0000
  O   O4        1.0  0.12742077361610907  0.8618708624378328  0.3849136293988236  1.0000
  O   O5        1.0  0.8636970911650226  0.1631574206860549  0.8441270669526231  1.0000
  O   O6        1.0  0.8685056415806974  0.3404970780492107  0.6535739082869654  1.0000
  O   O7        1.0  0.13629210772395353  0.8368508949426783  0.15587469632728804  1.0000
  O   O8        1.0  0.1314830982905875  0.6595059187088808  0.3464298802366272  1.0000
