data_image0
_chemical_formula_structural       Zn4H112C148N16O24
_chemical_formula_sum              "Zn4 H112 C148 N16 O24"
_cell_length_a       11.671786675011093
_cell_length_b       15.381696749008835
_cell_length_c       26.850704401018096
_cell_angle_alpha    89.99993784475332
_cell_angle_beta     89.99988214993488
_cell_angle_gamma    90.00010545713913

_space_group_name_H-M_alt    "P 1"
_space_group_IT_number       1

loop_
  _space_group_symop_operation_xyz
  'x, y, z'

loop_
  _atom_site_type_symbol
  _atom_site_label
  _atom_site_symmetry_multiplicity
  _atom_site_fract_x
  _atom_site_fract_y
  _atom_site_fract_z
  _atom_site_occupancy
  Zn  Zn1       1.0  0.5295751906024151  0.5654613759319674  0.7036183718971432  1.0000
  Zn  Zn2       1.0  0.9704230281488507  0.43453641796001824  0.20361866943844836  1.0000
  Zn  Zn3       1.0  0.470422321687792  0.06546244150030132  0.7963822280456728  1.0000
  Zn  Zn4       1.0  0.0295760309455559  0.9345357818193776  0.2963811203319581  1.0000
  H   H1        1.0  0.5389262042720873  0.48250578976156094  0.5506011787747698  1.0000
  H   H2        1.0  0.961074450531825  0.5174935943226728  0.05060217803162462  1.0000
  H   H3        1.0  0.46107318112108686  0.982506763744617  0.949397672437222  1.0000
  H   H4        1.0  0.038926162536292004  0.0174931200039907  0.44939712588881536  1.0000
  H   H5        1.0  0.24422903164554552  0.5198931161859548  0.29890808849697253  1.0000
  H   H6        1.0  0.25577102259551765  0.48010835296413046  0.7989083861572015  1.0000
  H   H7        1.0  0.755771587268626  0.01989280860453851  0.20109195879256705  1.0000
  H   H8        1.0  0.7442326407848371  0.9801062903268095  0.7010908389724835  1.0000
  H   H9        1.0  0.277991979573514  0.6714132018425831  0.5975430222677363  1.0000
  H   H10       1.0  0.22201245254138513  0.3285879987430676  0.09754398061705423  1.0000
  H   H11       1.0  0.7220083612224784  0.1714157163870454  0.9024575118705163  1.0000
  H   H12       1.0  0.7779906321890592  0.8285862515997239  0.4024566198120355  1.0000
  H   H13       1.0  0.1290706793184597  0.7540795715389663  0.5548525631729222  1.0000
  H   H14       1.0  0.37093138407447407  0.24592040969185552  0.05485194971373632  1.0000
  H   H15       1.0  0.8709298629313835  0.2540809119588019  0.9451486644839309  1.0000
  H   H16       1.0  0.6290680721323056  0.7459203250104027  0.44514795719889133  1.0000
  H   H17       1.0  0.0137646431056027  0.7855637363369966  0.47881772829452995  1.0000
  H   H18       1.0  0.4862354184042487  0.2144354415432091  0.9788161223112158  1.0000
  H   H19       1.0  0.9862357664762839  0.2855640900233142  0.021183271285629208  1.0000
  H   H20       1.0  0.5137616001691184  0.7144373001713904  0.52118401267947  1.0000
  H   H21       1.0  0.0539779372809619  0.7034123034578742  0.4004510766297501  1.0000
  H   H22       1.0  0.44601992396283646  0.29658832316049194  0.900449455656457  1.0000
  H   H23       1.0  0.9460231288637998  0.20341115250467823  0.09954997397186102  1.0000
  H   H24       1.0  0.5539781515829603  0.7965900891997324  0.5995506283116047  1.0000
  H   H25       1.0  0.20409621413976714  0.5924760147011058  0.397502517828329  1.0000
  H   H26       1.0  0.29589994749007087  0.407524617502034  0.8975020797510925  1.0000
  H   H27       1.0  0.7959011545885273  0.09247464948042251  0.10249785681409664  1.0000
  H   H28       1.0  0.7041001119394394  0.9075259365153844  0.6024979353177076  1.0000
  H   H29       1.0  0.0331410000377019  0.3002897117932833  0.34794905034905826  1.0000
  H   H30       1.0  0.46685539557008576  0.6997103641815983  0.8479501397797053  1.0000
  H   H31       1.0  0.9668560183646804  0.8002893517983269  0.15205119522764934  1.0000
  H   H32       1.0  0.533143300642301  0.19970918992873984  0.6520526113643401  1.0000
  H   H33       1.0  0.03232078352485251  0.20388740313760692  0.42129538734852917  1.0000
  H   H34       1.0  0.46767612252784824  0.7961151343518156  0.9212952988821643  1.0000
  H   H35       1.0  0.9676777134759932  0.7038845827703711  0.07870529052997453  1.0000
  H   H36       1.0  0.5323210950902961  0.29611279768987947  0.5787059026705565  1.0000
  H   H37       1.0  0.11035486386926859  0.16244721760990194  0.5037267222513793  1.0000
  H   H38       1.0  0.38964058679712826  0.8375548108617608  0.003726469443300601  1.0000
  H   H39       1.0  0.889641171235624  0.6624441476599686  0.9962738174589848  1.0000
  H   H40       1.0  0.6103548088844376  0.3375537418157677  0.4962741254200652  1.0000
  H   H41       1.0  0.2726667920688612  0.24781694117038464  0.5405018221143224  1.0000
  H   H42       1.0  0.2273301984847436  0.7521843674955448  0.0405017677559059  1.0000
  H   H43       1.0  0.7273311646171124  0.747815015523351  0.9594982921450782  1.0000
  H   H44       1.0  0.772667559454341  0.25218424388585  0.45949776283747223  1.0000
  H   H45       1.0  0.35402048891270244  0.3727102832724682  0.49628093307425314  1.0000
  H   H46       1.0  0.14597949013619166  0.6272901617623888  0.9962812376971046  1.0000
  H   H47       1.0  0.6459792762790784  0.8727097582938443  0.0037188950937761013  1.0000
  H   H48       1.0  0.8540198863653997  0.12729036474915742  0.5037182065563999  1.0000
  H   H49       1.0  0.4037151138612174  0.538794818708702  0.3983262595837688  1.0000
  H   H50       1.0  0.0962853277087845  0.46120451168867777  0.898327084311511  1.0000
  H   H51       1.0  0.5962846943500821  0.03879512793194101  0.10167377596678762  1.0000
  H   H52       1.0  0.9037157193053246  0.9612054596260509  0.601672524988608  1.0000
  H   H53       1.0  0.4539608697999284  0.4539251168454329  0.4363703305318368  1.0000
  H   H54       1.0  0.04604110566504719  0.5460734913415451  0.9363715199990923  1.0000
  H   H55       1.0  0.5460390933128849  0.9539249895426138  0.06362907476668063  1.0000
  H   H56       1.0  0.9539623567458405  0.04607371973457222  0.5636283471230075  1.0000
  H   H57       1.0  0.5297144648810956  0.4187726672848201  0.7883230853172666  1.0000
  H   H58       1.0  0.9702859242116942  0.5812256162294107  0.2883232918791948  1.0000
  H   H59       1.0  0.4702847651906125  0.9187728042720668  0.7116772951962179  1.0000
  H   H60       1.0  0.029713987399148302  0.08122492942609942  0.21167783460851558  1.0000
  H   H61       1.0  0.6869889261370618  0.4233257242852205  0.6469218813445111  1.0000
  H   H62       1.0  0.8130112738622299  0.5766747775331068  0.14692185922042716  1.0000
  H   H63       1.0  0.3130094582630321  0.9233247245886532  0.853078123912255  1.0000
  H   H64       1.0  0.1869860563584282  0.07667469154340273  0.35307927009461093  1.0000
  H   H65       1.0  0.7555693843439072  0.27342613651794073  0.6973596800958223  1.0000
  H   H66       1.0  0.7444322910310888  0.7265749198523822  0.19735999875090476  1.0000
  H   H67       1.0  0.24442949151938353  0.7734251370604  0.8026404182579373  1.0000
  H   H68       1.0  0.25556797479389093  0.22657307439904886  0.3026406650361083  1.0000
  H   H69       1.0  0.6303611959794965  0.19991587749917983  0.7778898623497102  1.0000
  H   H70       1.0  0.8696409559150949  0.8000837260334425  0.2778889058758908  1.0000
  H   H71       1.0  0.36963835750567137  0.6999145545620635  0.7221106540881127  1.0000
  H   H72       1.0  0.1303603458194331  0.30008250924329627  0.22211096739739136  1.0000
  H   H73       1.0  0.5952020459355084  0.279474003845806  0.8225430580971181  1.0000
  H   H74       1.0  0.9047990383478463  0.7205268153209377  0.32254286439119556  1.0000
  H   H75       1.0  0.4047985581998574  0.7794728143954258  0.67745703649981  1.0000
  H   H76       1.0  0.09520121273799022  0.22052498414546315  0.17745780315208048  1.0000
  H   H77       1.0  0.789529468114388  0.11863429310709964  0.8042444321413459  1.0000
  H   H78       1.0  0.7104725593384772  0.8813659106103845  0.3042439402294549  1.0000
  H   H79       1.0  0.2104707440584406  0.6186340990969087  0.6957553899174658  1.0000
  H   H80       1.0  0.28952808371165156  0.38136431489395056  0.19575625499252428  1.0000
  H   H81       1.0  0.9831466813084121  0.10870570800295815  0.842340928176846  1.0000
  H   H82       1.0  0.5168543094974893  0.8912970240205739  0.3423398587182903  1.0000
  H   H83       1.0  0.016853506668411497  0.6087046669108108  0.6576585276188143  1.0000
  H   H84       1.0  0.4831463577543643  0.391294469391383  0.15765995790641096  1.0000
  H   H85       1.0  0.9826191944890396  0.3857180375523799  0.8660489727446647  1.0000
  H   H86       1.0  0.5173808276036097  0.6142852996697671  0.3660488197154735  1.0000
  H   H87       1.0  0.017380811794545495  0.8857157418696816  0.6339506834388475  1.0000
  H   H88       1.0  0.4826183078077619  0.11428278923270342  0.13395079652214295  1.0000
  H   H89       1.0  0.7899992580778629  0.39575324358874303  0.8279398136192102  1.0000
  H   H90       1.0  0.71000265748998  0.6042488655986277  0.3279402390956677  1.0000
  H   H91       1.0  0.2100007726615587  0.8957517935776881  0.6720602087612378  1.0000
  H   H92       1.0  0.28999816699592174  0.10424666531329052  0.17205975580407082  1.0000
  H   H93       1.0  0.13160105723632398  0.3023312934608598  0.9012007854524458  1.0000
  H   H94       1.0  0.3684002275346074  0.6976719322312449  0.4012006385547125  1.0000
  H   H95       1.0  0.8684004593707966  0.8023302473818676  0.5987985500887805  1.0000
  H   H96       1.0  0.6315999678545055  0.19766969549866795  0.09879967075333702  1.0000
  H   H97       1.0  0.11174361166111879  0.18959598337647077  0.9108299994570717  1.0000
  H   H98       1.0  0.3882584844095049  0.8104072240703675  0.4108297647510641  1.0000
  H   H99       1.0  0.8882584869773993  0.6895943330241041  0.5891694060998989  1.0000
  H   H100      1.0  0.6117436992479099  0.31040562810312633  0.08917084696980032  1.0000
  H   H101      1.0  0.1881085385532373  0.33025747930975774  0.7970381210095356  1.0000
  H   H102      1.0  0.311890667752202  0.669745293629717  0.29703841451674873  1.0000
  H   H103      1.0  0.8118896190403363  0.8302548570585132  0.7029611971897368  1.0000
  H   H104      1.0  0.6881103163457495  0.1697435882021523  0.20296265699442986  1.0000
  H   H105      1.0  0.36678641493281106  0.2418675300618888  0.7493633414878078  1.0000
  H   H106      1.0  0.13321215971283348  0.758134032965856  0.24936485748284556  1.0000
  H   H107      1.0  0.6332132407905746  0.7418639189738272  0.750634914317779  1.0000
  H   H108      1.0  0.8667864694870461  0.25813313570533586  0.2506365315637994  1.0000
  H   H109      1.0  0.2696362908555514  0.10204141443546183  0.8776501932234598  1.0000
  H   H110      1.0  0.23036253481311056  0.897959905509403  0.37765041804272687  1.0000
  H   H111      1.0  0.7303638808802474  0.6020394817256973  0.6223488942817214  1.0000
  H   H112      1.0  0.7696355783758406  0.3979597664059967  0.12235051173341563  1.0000
  C   C1        1.0  0.4551300826529071  0.5613363823807732  0.6078250164718073  1.0000
  C   C2        1.0  0.04487173060834951  0.4386621982268012  0.10782606517260263  1.0000
  C   C3        1.0  0.5448717034232401  0.06133802004850962  0.892174096311962  1.0000
  C   C4        1.0  0.9551290520733103  0.9386600666848469  0.39217334960541467  1.0000
  C   C5        1.0  0.29703023546668555  0.6370314751411286  0.5630523091562482  1.0000
  C   C6        1.0  0.20297435950701734  0.3629697907993545  0.06305326321034242  1.0000
  C   C7        1.0  0.7029708783107936  0.13703389786748946  0.9369471290458125  1.0000
  C   C8        1.0  0.797027952247035  0.8629693050125341  0.43694694343570734  1.0000
  C   C9        1.0  0.38598312714926664  0.5777181852203769  0.5623483955762583  1.0000
  C   C10       1.0  0.11401890084671608  0.422282431928757  0.062349392495392016  1.0000
  C   C11       1.0  0.6140178420815162  0.07771918271361503  0.9376507070339317  1.0000
  C   C12       1.0  0.8859826986866394  0.9222820684648741  0.4376500324545917  1.0000
  C   C13       1.0  0.41254637875582745  0.5324924167862194  0.5170099223557332  1.0000
  C   C14       1.0  0.08745586332009479  0.46750828627264707  0.017010914987103803  1.0000
  C   C15       1.0  0.5874536234923724  0.03249329144341571  0.9829895807727242  1.0000
  C   C16       1.0  0.9125441328927336  0.9675072236995065  0.48298885430538274  1.0000
  C   C17       1.0  0.34642037125185954  0.5441185670573674  0.4741373301020247  1.0000
  C   C18       1.0  0.15357885558795908  0.4558819199356706  0.9741377343710342  1.0000
  C   C19       1.0  0.6535777363991216  0.04411844945171591  0.02586270214303711  1.0000
  C   C20       1.0  0.8464221784534656  0.9558822817557343  0.525862250664652  1.0000
  C   C21       1.0  0.2554909213143404  0.6062111326642423  0.47505278377859395  1.0000
  C   C22       1.0  0.2445083012046396  0.39379000271787135  0.9750527727091411  1.0000
  C   C23       1.0  0.74450648089131  0.10621244344027053  0.024946837473180508  1.0000
  C   C24       1.0  0.7554917247532347  0.8937908899939518  0.5249472508898736  1.0000
  C   C25       1.0  0.23161963532970017  0.6541050095014002  0.5200091420841775  1.0000
  C   C26       1.0  0.26838173582035546  0.345896337997914  0.020009303276694406  1.0000
  C   C27       1.0  0.768382376820213  0.15410614134790998  0.9799906579438376  1.0000
  C   C28       1.0  0.7316179640284375  0.8458969799724375  0.4799901691144657  1.0000
  C   C29       1.0  0.14398874167133607  0.718279272859043  0.5203577556209853  1.0000
  C   C30       1.0  0.35601177106673987  0.28172207397949495  0.020357505723964706  1.0000
  C   C31       1.0  0.8560108565700447  0.21828117730262875  0.9796423769812681  1.0000
  C   C32       1.0  0.643986058855326  0.7817225947981544  0.47964237895408984  1.0000
  C   C33       1.0  0.0803867746469749  0.735858603491984  0.4783063678940282  1.0000
  C   C34       1.0  0.41961328927886393  0.2641425257267971  0.9783051631626097  1.0000
  C   C35       1.0  0.9196143705690288  0.23585886359812497  0.0216954074153008  1.0000
  C   C36       1.0  0.5803829936660277  0.7641444759983715  0.5216938236679811  1.0000
  C   C37       1.0  0.10322308586347619  0.688986719157683  0.43404831543727357  1.0000
  C   C38       1.0  0.39677461673850434  0.3110138437981221  0.934047474487507  1.0000
  C   C39       1.0  0.8967762315943303  0.1889855634103057  0.06595199926491092  1.0000
  C   C40       1.0  0.603221780431042  0.8110170422020105  0.5659522280919804  1.0000
  C   C41       1.0  0.18761026479475623  0.6260743441684654  0.4324032751481895  1.0000
  C   C42       1.0  0.3123874455721634  0.37392557178037583  0.9324032155956277  1.0000
  C   C43       1.0  0.8123880425834072  0.12607501836787097  0.06759633376706382  1.0000
  C   C44       1.0  0.6876108184440497  0.8739269340060363  0.567596447911406  1.0000
  C   C45       1.0  0.10621323095406149  0.42859296043301504  0.2874760763619123  1.0000
  C   C46       1.0  0.3937877340333458  0.57140788025648  0.7874761936577318  1.0000
  C   C47       1.0  0.8937866704240137  0.9285923842764064  0.21252334466965558  1.0000
  C   C48       1.0  0.6062157901155344  0.07140604286861671  0.7125232853010036  1.0000
  C   C49       1.0  0.10418582761739259  0.3366673971080375  0.3641158084199746  1.0000
  C   C50       1.0  0.39581306195598387  0.6633332983586089  0.8641166116680171  1.0000
  C   C51       1.0  0.8958129929706473  0.8366669689889579  0.13588441456308695  1.0000
  C   C52       1.0  0.6041889726754092  0.16333095325132518  0.6358846723485387  1.0000
  C   C53       1.0  0.1515591838820498  0.40460599426164373  0.3371823944757538  1.0000
  C   C54       1.0  0.34843983286742025  0.5953954023634651  0.8371829099341358  1.0000
  C   C55       1.0  0.8484398022707679  0.904604149008229  0.16281741388376506  1.0000
  C   C56       1.0  0.6515620362036003  0.09539307207536044  0.662816926557426  1.0000
  C   C57       1.0  0.24452525204915787  0.4535343211779122  0.3582376511760474  1.0000
  C   C58       1.0  0.2554745220454748  0.5464650851810691  0.858238280319114  1.0000
  C   C59       1.0  0.755474710108821  0.9535343369594997  0.14176287165425805  1.0000
  C   C60       1.0  0.7445272277854754  0.04646487439010371  0.6417615865606906  1.0000
  C   C61       1.0  0.28512215849964667  0.4358379469295245  0.4060155284359227  1.0000
  C   C62       1.0  0.21487824676098907  0.5641600686509562  0.9060165553927465  1.0000
  C   C63       1.0  0.714876903768115  0.9358392970558855  0.09398463295524104  1.0000
  C   C64       1.0  0.7851252597254543  0.0641600048261424  0.5939836729262141  1.0000
  C   C65       1.0  0.23926698868294946  0.3635708300025442  0.43258917594620544  1.0000
  C   C66       1.0  0.2607350046356487  0.6364277853490492  0.9325904893635202  1.0000
  C   C67       1.0  0.7607336110071257  0.8635722942270264  0.06740991303759362  1.0000
  C   C68       1.0  0.7392669644301507  0.1364270580075768  0.5674104389328962  1.0000
  C   C69       1.0  0.1470505903929507  0.3134033686842842  0.4113704226530361  1.0000
  C   C70       1.0  0.3529480760503175  0.6865959369947775  0.9113716222893304  1.0000
  C   C71       1.0  0.8529473167348767  0.8134036206422339  0.08862981477866333  1.0000
  C   C72       1.0  0.6470531585042282  0.1865943911370636  0.588630392139166  1.0000
  C   C73       1.0  0.10193566697094521  0.2412565249615426  0.43807851691894245  1.0000
  C   C74       1.0  0.3980637301310637  0.7587446804802983  0.9380796313239447  1.0000
  C   C75       1.0  0.8980620643335725  0.7412549398711125  0.061921765321201916  1.0000
  C   C76       1.0  0.6019359667170433  0.2587444227608984  0.5619223382958725  1.0000
  C   C77       1.0  0.1455732370733784  0.21816413100462032  0.4838881034853985  1.0000
  C   C78       1.0  0.3544233734236499  0.7818363375100079  0.9838888702192111  1.0000
  C   C79       1.0  0.8544244379561334  0.7181625720564426  0.016111820666900208  1.0000
  C   C80       1.0  0.6455738093984421  0.281834276885725  0.516111967771778  1.0000
  C   C81       1.0  0.23698256042413854  0.26677259654088203  0.5045389023195385  1.0000
  C   C82       1.0  0.26301631347096327  0.7332281301466566  0.004539572619783902  1.0000
  C   C83       1.0  0.7630154424564424  0.7667713024769754  0.9954615725966821  1.0000
  C   C84       1.0  0.73698311180204  0.23322788878670767  0.49546145946474973  1.0000
  C   C85       1.0  0.2825472799545992  0.3374332567521493  0.4798136240790926  1.0000
  C   C86       1.0  0.2174519200782257  0.6625652691142535  0.9798149600433492  1.0000
  C   C87       1.0  0.7174515425015571  0.8374327999245852  0.020185853568911206  1.0000
  C   C88       1.0  0.7825475423855296  0.16256599166853655  0.5201859520206897  1.0000
  C   C89       1.0  0.37789289257619885  0.4931866705499176  0.4277091271284591  1.0000
  C   C90       1.0  0.12210741025334929  0.5068132542942865  0.9277102728237313  1.0000
  C   C91       1.0  0.6221063094498404  0.9931866325765316  0.07229025378644142  1.0000
  C   C92       1.0  0.8778942429469011  0.0068133605349843  0.5722896186823336  1.0000
  C   C93       1.0  0.5829454432821422  0.4015282127020968  0.7567637457976776  1.0000
  C   C94       1.0  0.9170542380634642  0.5984720809818144  0.2567639893438952  1.0000
  C   C95       1.0  0.41705374476582324  0.9015275657704224  0.7432359005665605  1.0000
  C   C96       1.0  0.08294657234545612  0.09847140837674573  0.2432363815728352  1.0000
  C   C97       1.0  0.6671238145872563  0.4009698840441018  0.6841674749954267  1.0000
  C   C98       1.0  0.8328787798457568  0.5990311973241091  0.18416779361642455  1.0000
  C   C99       1.0  0.3328762288649401  0.9009683324145005  0.815832544145174  1.0000
  C   C100      1.0  0.16712031838855523  0.09902985404636412  0.3158336942431533  1.0000
  C   C101      1.0  0.7007243494557825  0.32677000782059934  0.7084662868535434  1.0000
  C   C102      1.0  0.7992772734784522  0.6732316776284011  0.20846584463830456  1.0000
  C   C103      1.0  0.29927551317124557  0.8267684555251763  0.7915341507997058  1.0000
  C   C104      1.0  0.20072286235035358  0.17323042710251715  0.291534852278133  1.0000
  C   C105      1.0  0.6570966458422234  0.2625247091422907  0.7932391489163353  1.0000
  C   C106      1.0  0.8429045768094809  0.7374768156743419  0.2932390001405666  1.0000
  C   C107      1.0  0.34290306022165135  0.7625240282488192  0.7067609562074255  1.0000
  C   C108      1.0  0.15709657234942398  0.23747436488886112  0.20676165687546447  1.0000
  C   C109      1.0  0.7768563190031513  0.25755197932358703  0.8139923698580136  1.0000
  C   C110      1.0  0.7231456624230647  0.742450156292577  0.3139923252969652  1.0000
  C   C111      1.0  0.22314423171157927  0.7575511712788129  0.6860066210646707  1.0000
  C   C112      1.0  0.2768563556222148  0.24244661106192925  0.18600795620054816  1.0000
  C   C113      1.0  0.8327748156555116  0.17720522228963637  0.8173744039354606  1.0000
  C   C114      1.0  0.6672245795042144  0.82279755704068  0.31737324228827657  1.0000
  C   C115      1.0  0.16722553925240646  0.6772036927971428  0.682625381747414  1.0000
  C   C116      1.0  0.33277506404967727  0.3227953961976766  0.182626244449594  1.0000
  C   C117      1.0  0.9409904093217419  0.17183265764906963  0.839126859079592  1.0000
  C   C118      1.0  0.5590097398927442  0.8281694303407151  0.3391257910558212  1.0000
  C   C119      1.0  0.05900993249403539  0.6718310189447222  0.6608725575103238  1.0000
  C   C120      1.0  0.4409899167517893  0.32816681102096373  0.16087369234590915  1.0000
  C   C121      1.0  0.9949804772739128  0.24649154140553978  0.8574928103292482  1.0000
  C   C122      1.0  0.5050187284534715  0.7535124621520951  0.3574925819072875  1.0000
  C   C123      1.0  0.0050191897179346  0.746489212327241  0.6425061874635463  1.0000
  C   C124      1.0  0.4949798894845401  0.2535086524397769  0.14250694786201737  1.0000
  C   C125      1.0  0.9402948718322292  0.32702293571892244  0.8526381885766486  1.0000
  C   C126      1.0  0.5597035000502187  0.6729797767905908  0.3526375887430576  1.0000
  C   C127      1.0  0.05970499141365339  0.8270219737061097  0.6473615040599088  1.0000
  C   C128      1.0  0.44029492163199535  0.17297718210831903  0.14736199104189046  1.0000
  C   C129      1.0  0.8319199190025443  0.33254177771593163  0.8311847945140232  1.0000
  C   C130      1.0  0.6680811244770408  0.6674609754454153  0.3311852182928733  1.0000
  C   C131      1.0  0.1680799576929246  0.8325402755805416  0.6688145222654429  1.0000
  C   C132      1.0  0.33191985405537144  0.16745818946049706  0.16881473734822805  1.0000
  C   C133      1.0  0.11043545834684211  0.24103181731054243  0.882449350601249  1.0000
  C   C134      1.0  0.38956505819730575  0.7589714439118823  0.3824495190984863  1.0000
  C   C135      1.0  0.8895650521064622  0.7410301149984947  0.6175500230115107  1.0000
  C   C136      1.0  0.6104344298094445  0.2589684921035059  0.11755112456891233  1.0000
  C   C137      1.0  0.2313314758726506  0.26992150474616494  0.8056766274594483  1.0000
  C   C138      1.0  0.2686694031770643  0.7300812518258013  0.30567692222080484  1.0000
  C   C139      1.0  0.7686691049858823  0.7699194889053518  0.6943219833516282  1.0000
  C   C140      1.0  0.7313300144229588  0.23007767247744942  0.19432411181917797  1.0000
  C   C141      1.0  0.31945680183279984  0.22614358240215182  0.7828909796081975  1.0000
  C   C142      1.0  0.18054247127112427  0.7738579170973524  0.28289132614131063  1.0000
  C   C143      1.0  0.6805419588038218  0.7261407507585177  0.7171080308225374  1.0000
  C   C144      1.0  0.8194579097821872  0.2738576676954453  0.21711005313881065  1.0000
  C   C145      1.0  0.27124200023988726  0.15067977049260867  0.8484129556025197  1.0000
  C   C146      1.0  0.22875696348313568  0.8493229050991575  0.3484132120675271  1.0000
  C   C147      1.0  0.7287600035598273  0.6506777801515399  0.6515864741240451  1.0000
  C   C148      1.0  0.7712410311747461  0.3493201123340911  0.15158774791617458  1.0000
  N   N1        1.0  0.5936628945250674  0.4470375435698487  0.7147629665430771  1.0000
  N   N2        1.0  0.9063352716033319  0.552961529450755  0.21476399281670674  1.0000
  N   N3        1.0  0.40633469089471674  0.9470374522766537  0.7852370239872147  1.0000
  N   N4        1.0  0.09366285759190872  0.052960142035743715  0.28523789608523503  1.0000
  N   N5        1.0  0.6463915161182143  0.32817484325928353  0.7541965821753396  1.0000
  N   N6        1.0  0.8536107476512883  0.671826105414489  0.2541964645805025  1.0000
  N   N7        1.0  0.3536074931649297  0.8281728030196903  0.7458038546059458  1.0000
  N   N8        1.0  0.146391955052124  0.17182291564511595  0.24580348834892626  1.0000
  N   N9        1.0  0.34338271872054804  0.15189558769558434  0.8099677490075055  1.0000
  N   N10       1.0  0.15661299946281562  0.8481052103713794  0.3099684432968176  1.0000
  N   N11       1.0  0.656616717743951  0.6518934242235588  0.690030562676043  1.0000
  N   N12       1.0  0.843384135463985  0.34810439541590205  0.19003214501321258  1.0000
  N   N13       1.0  0.2019039477114575  0.22108808097389954  0.8469221286804685  1.0000
  N   N14       1.0  0.2980950230510189  0.7789145974427784  0.34692236674722227  1.0000
  N   N15       1.0  0.7980965141390258  0.7210855340703192  0.6530768848892026  1.0000
  N   N16       1.0  0.7019036567916929  0.27891365583682415  0.15307863696364885  1.0000
  O   O1        1.0  0.4191723739978173  0.5925201338326788  0.6494943207781605  1.0000
  O   O2        1.0  0.08083181281164542  0.4074803181895135  0.14949535662660915  1.0000
  O   O3        1.0  0.5808303448399811  0.09252060019675672  0.8505040277790459  1.0000
  O   O4        1.0  0.9191688938800625  0.9074788657396202  0.3505044499468753  1.0000
  O   O5        1.0  0.5476694253433508  0.517345204245622  0.604465672708969  1.0000
  O   O6        1.0  0.9523301183538281  0.48265277752603464  0.10446670143810624  1.0000
  O   O7        1.0  0.4523313967598384  0.017346056785868303  0.8955330949670999  1.0000
  O   O8        1.0  0.047670771531379295  0.9826519786587727  0.39553380330761473  1.0000
  O   O9        1.0  0.5021324255984183  0.47649345623705136  0.5161309655001249  1.0000
  O   O10       1.0  0.9978692487326767  0.5235059931630915  0.016132672914970708  1.0000
  O   O11       1.0  0.49786865867654473  0.9764937659292344  0.9838675170156466  1.0000
  O   O12       1.0  0.0021305222205895997  0.023505402381083205  0.48386662727180174  1.0000
  O   O13       1.0  0.0206933229932602  0.38545138344981233  0.2696441936516508  1.0000
  O   O14       1.0  0.47930686942798667  0.6145507912746524  0.7696442075286287  1.0000
  O   O15       1.0  0.9793056164806658  0.8854515425067362  0.23035637146291787  1.0000
  O   O16       1.0  0.5206959030869313  0.1145455506003685  0.730355989496417  1.0000
  O   O17       1.0  0.15203411263163963  0.49119794203620876  0.2633131693673506  1.0000
  O   O18       1.0  0.3479678232135655  0.5088022943152666  0.7633137390294426  1.0000
  O   O19       1.0  0.847965941315543  0.9911985566460263  0.23668621278208962  1.0000
  O   O20       1.0  0.6520372618966662  0.008798524467849199  0.7366861512409744  1.0000
  O   O21       1.0  0.29085249338086067  0.5199100208265152  0.33159845765514023  1.0000
  O   O22       1.0  0.20914826326571762  0.48009008613331633  0.8315995419596051  1.0000
  O   O23       1.0  0.7091472688085217  0.01990971037719901  0.16840121719458526  1.0000
  O   O24       1.0  0.7908545433034176  0.9800881502502251  0.6683996831817682  1.0000
