data_image0
_chemical_formula_structural       Hg6H48C60I12N24
_chemical_formula_sum              "Hg6 H48 C60 I12 N24"
_cell_length_a       13.244407025314931
_cell_length_b       13.25606041033826
_cell_length_c       17.199448389039507
_cell_angle_alpha    99.73227202169632
_cell_angle_beta     111.6169344800302
_cell_angle_gamma    107.60410225710646

_space_group_name_H-M_alt    "P 1"
_space_group_IT_number       1

loop_
  _space_group_symop_operation_xyz
  'x, y, z'

loop_
  _atom_site_type_symbol
  _atom_site_label
  _atom_site_symmetry_multiplicity
  _atom_site_fract_x
  _atom_site_fract_y
  _atom_site_fract_z
  _atom_site_occupancy
  Hg  Hg1       1.0  0.3162177639582352  0.0662092821048219  0.2501400965130145  1.0000
  Hg  Hg2       1.0  0.6837810416830052  0.9338023326152153  0.7498549021285327  1.0000
  Hg  Hg3       1.0  0.06487695075742306  0.8171909367979496  0.48531510536798816  1.0000
  Hg  Hg4       1.0  0.8312447390849798  0.5796795484819557  0.0146301315923409  1.0000
  Hg  Hg5       1.0  0.9351167386435788  0.18280219179845858  0.5146839859552443  1.0000
  Hg  Hg6       1.0  0.16875145414858397  0.42031040430454436  0.9853604560385847  1.0000
  H   H1        1.0  0.3238806027780684  0.49382565022043684  0.36096255691131773  1.0000
  H   H2        1.0  0.6334679828795585  0.9635701510904439  0.13915132631774435  1.0000
  H   H3        1.0  0.6761175465388333  0.5061741273566726  0.6390404441878204  1.0000
  H   H4        1.0  0.3665438392926674  0.03643877210393501  0.8608601816889561  1.0000
  H   H5        1.0  0.5164090272169801  0.8490714608359156  0.48417984275636183  1.0000
  H   H6        1.0  0.8651286755075629  0.03236751836925579  0.015414986667444472  1.0000
  H   H7        1.0  0.48358437473754623  0.1509309025198817  0.5158164311582496  1.0000
  H   H8        1.0  0.1348716092319223  0.9676239829659891  0.984584491347583  1.0000
  H   H9        1.0  0.7067546213679989  0.6399021180058782  0.4734212434242266  1.0000
  H   H10       1.0  0.6665734003926572  0.23336560987438307  0.026306879397466745  1.0000
  H   H11       1.0  0.29324288844422597  0.36010021737416753  0.5265784640557314  1.0000
  H   H12       1.0  0.3334442525227247  0.7666400772849473  0.9737010872071536  1.0000
  H   H13       1.0  0.3295155261975465  0.3379002729998959  0.337662578742396  1.0000
  H   H14       1.0  0.500485309490955  0.9920811991243214  0.16225579550501126  1.0000
  H   H15       1.0  0.6704813208962505  0.6620987974090369  0.6623324079048416  1.0000
  H   H16       1.0  0.4995283084049972  0.007937698247012301  0.8377593808200743  1.0000
  H   H17       1.0  0.6180127746062708  0.2564860188859015  0.3516415127409687  1.0000
  H   H18       1.0  0.4043931742545225  0.26599096171712233  0.1480447513027059  1.0000
  H   H19       1.0  0.3819921824973562  0.7435220610263968  0.6483674347981392  1.0000
  H   H20       1.0  0.5956113388716843  0.7340190930832546  0.8519463326556361  1.0000
  H   H21       1.0  0.699580777273411  0.4857662606410287  0.4164282035708665  1.0000
  H   H22       1.0  0.5689884372949477  0.2828882948486537  0.0831763940159362  1.0000
  H   H23       1.0  0.300418024071277  0.5142367918662742  0.5835789353509995  1.0000
  H   H24       1.0  0.43102597103791845  0.7171216589490041  0.9168249127331976  1.0000
  H   H25       1.0  0.3485920300468096  0.8180496896087635  0.5147528603359176  1.0000
  H   H26       1.0  0.8033397507489892  0.8339320191546804  0.9850621190351205  1.0000
  H   H27       1.0  0.6514131364717668  0.18195351134367854  0.4852484618967452  1.0000
  H   H28       1.0  0.19663791090015786  0.1660620058135152  0.014926368093639994  1.0000
  H   H29       1.0  0.01863955858664219  0.6270781366509723  0.2928218320091176  1.0000
  H   H30       1.0  0.8344390223359138  0.7266322479688724  0.20725423074357247  1.0000
  H   H31       1.0  0.9813590251165465  0.3729325242957701  0.7071799477353125  1.0000
  H   H32       1.0  0.1655570710169556  0.2733461090649669  0.792730587410297  1.0000
  H   H33       1.0  0.18682090024167056  0.554072057985401  0.27346245348084613  1.0000
  H   H34       1.0  0.7813507302390832  0.9144000479598233  0.22661112284908577  1.0000
  H   H35       1.0  0.8131697551925967  0.4459294241534695  0.7265352765415116  1.0000
  H   H36       1.0  0.21866111913931263  0.08558819410885117  0.7733886879393664  1.0000
  H   H37       1.0  0.6821710616038317  0.9472906750874373  0.43858576730673354  1.0000
  H   H38       1.0  0.008952995486424743  0.24322106757919226  0.06067893482443053  1.0000
  H   H39       1.0  0.3178249183861154  0.05271156591656732  0.5614187466529685  1.0000
  H   H40       1.0  0.9910509902347753  0.7567739073974381  0.9393144850438799  1.0000
  H   H41       1.0  0.007924267735269603  0.0072624517446512995  0.6494593559524802  1.0000
  H   H42       1.0  0.8577688105323061  0.3583963091448227  0.850221682374233  1.0000
  H   H43       1.0  0.9920707005113415  0.9927446558879964  0.3505531460185837  1.0000
  H   H44       1.0  0.14222492729240346  0.6415952130498184  0.14977370116020697  1.0000
  H   H45       1.0  0.8424003935799217  0.8026005357083006  0.6254205269983331  1.0000
  H   H46       1.0  0.6770327383332172  0.2170392508718634  0.8743720325417996  1.0000
  H   H47       1.0  0.15759017569758535  0.19740414927502314  0.3745852016115947  1.0000
  H   H48       1.0  0.32296481240911135  0.782957201979599  0.1256297457845363  1.0000
  C   C1        1.0  0.515348659472231  0.5531184137785274  0.4151205445231057  1.0000
  C   C2        1.0  0.6382728977214283  0.1005545732109994  0.08480240673883091  1.0000
  C   C3        1.0  0.4846560870156224  0.446885579229651  0.5848831044613974  1.0000
  C   C4        1.0  0.3617442332863235  0.8994535622012806  0.9152086793564821  1.0000
  C   C5        1.0  0.4082665220258193  0.5653046351320654  0.39527783243581643  1.0000
  C   C6        1.0  0.6705300266560171  0.0135367275626166  0.10474145107970405  1.0000
  C   C7        1.0  0.5917346310183546  0.43469266147208424  0.6047250421278036  1.0000
  C   C8        1.0  0.32948947360383596  0.9864730412859761  0.8952728376996646  1.0000
  C   C9        1.0  0.4092376667540876  0.6716023814966192  0.41984597812388796  1.0000
  C   C10       1.0  0.7521826375238804  0.9898327590309893  0.08004081814097938  1.0000
  C   C11       1.0  0.5907596053999454  0.3283974534629053  0.580153304610235  1.0000
  C   C12       1.0  0.2478231043555254  0.010167943873042904  0.919960299650917  1.0000
  C   C13       1.0  0.515333576215383  0.7661735165822636  0.4639173924782938  1.0000
  C   C14       1.0  0.8026157189955254  0.0516623962284157  0.03585392263121178  1.0000
  C   C15       1.0  0.4846599917598978  0.23382713082177986  0.5360815867573976  1.0000
  C   C16       1.0  0.19739486326498232  0.9483399173510279  0.9641528077899437  1.0000
  C   C17       1.0  0.6207632033245218  0.7518906711674305  0.48249842973122276  1.0000
  C   C18       1.0  0.7696338262183459  0.13839356171981623  0.01725463890119281  1.0000
  C   C19       1.0  0.37923420461079604  0.24811332040984277  0.5175020704875876  1.0000
  C   C20       1.0  0.2303754588485703  0.8616096012977721  0.982750699906795  1.0000
  C   C21       1.0  0.6225320402784363  0.6464916725136689  0.45996425406170977  1.0000
  C   C22       1.0  0.6867529720914121  0.1627475003733352  0.03985547090685068  1.0000
  C   C23       1.0  0.37746632714784323  0.3535164680943694  0.5400382669568559  1.0000
  C   C24       1.0  0.3132657315011899  0.8372606895786351  0.9601531407486876  1.0000
  C   C25       1.0  0.41880962876847855  0.346075962482864  0.35173564730941814  1.0000
  C   C26       1.0  0.49442748147782806  0.0671802728611226  0.1481645321395249  1.0000
  C   C27       1.0  0.5811907615128362  0.6539255680396252  0.648263560353911  1.0000
  C   C28       1.0  0.5055822700472915  0.9328337436488424  0.8518413343437317  1.0000
  C   C29       1.0  0.5702174415049797  0.3078215634589867  0.36014124679695675  1.0000
  C   C30       1.0  0.4473700797051094  0.20983485308784114  0.1395563282663375  1.0000
  C   C31       1.0  0.4297855984491932  0.692184061083985  0.639863920336218  1.0000
  C   C32       1.0  0.5526375458872367  0.790178463840924  0.860440720449951  1.0000
  C   C33       1.0  0.6122380080664412  0.42154296364461885  0.3934601606350796  1.0000
  C   C34       1.0  0.5278417886530062  0.2186026587218279  0.10624234647482916  1.0000
  C   C35       1.0  0.38776308769585904  0.5784617920126323  0.6065460999009318  1.0000
  C   C36       1.0  0.4721697178294874  0.7814081198515692  0.8937582940709632  1.0000
  C   C37       1.0  0.2804667717786701  0.7574904944408516  0.4518156202503292  1.0000
  C   C38       1.0  0.8058089165340048  0.8289481303510796  0.04804621877057257  1.0000
  C   C39       1.0  0.7195345566123165  0.2425152050305996  0.5481844421927846  1.0000
  C   C40       1.0  0.1941739520737613  0.17104676303223704  0.9519426391856599  1.0000
  C   C41       1.0  0.1122165451975904  0.655782813283615  0.3364547801425247  1.0000
  C   C42       1.0  0.8195997956859313  0.776501088102485  0.16356788688464963  1.0000
  C   C43       1.0  0.8877812952915531  0.344226218971059  0.6635442375280077  1.0000
  C   C44       1.0  0.1803918716554236  0.2234764327656222  0.8364150317168679  1.0000
  C   C45       1.0  0.19321137433576047  0.6174122217266813  0.32617598747940235  1.0000
  C   C46       1.0  0.7917699672503956  0.8678897197317496  0.1738312879437984  1.0000
  C   C47       1.0  0.806784530819698  0.38259008899094493  0.6738244454103821  1.0000
  C   C48       1.0  0.2082325459303931  0.1320977018157379  0.8261635524318578  1.0000
  C   C49       1.0  0.7491336405602523  0.9384601223503565  0.4936655609519107  1.0000
  C   C50       1.0  0.9449632615910911  0.25518753614496603  0.005707160960611159  1.0000
  C   C51       1.0  0.2508610083317108  0.06153715527683802  0.5063355511710839  1.0000
  C   C52       1.0  0.0550384404031378  0.7448057257226353  0.9942877203035464  1.0000
  C   C53       1.0  0.9157070746237607  0.9642735421917052  0.6016670513743066  1.0000
  C   C54       1.0  0.8626426298542994  0.3139691714625101  0.8979793417384698  1.0000
  C   C55       1.0  0.08428423786779858  0.035732771483694095  0.3983414393095188  1.0000
  C   C56       1.0  0.13735504980734703  0.6860240387081332  0.10201677004024391  1.0000
  C   C57       1.0  0.8350070168116231  0.8626504985988105  0.5904252939621416  1.0000
  C   C58       1.0  0.772180763789649  0.24458740119231948  0.9092649344325069  1.0000
  C   C59       1.0  0.1649867278750463  0.13734842289439092  0.4095769736046151  1.0000
  C   C60       1.0  0.22782000695686835  0.7554090910248874  0.09073597608418282  1.0000
  I   I1        1.0  0.4229225228018834  0.9547405539628143  0.34567431637402996  1.0000
  I   I2        1.0  0.10911813234122998  0.07765367601203368  0.15492042675288084  1.0000
  I   I3        1.0  0.5770432687413914  0.045242604221499505  0.6543093927883773  1.0000
  I   I4        1.0  0.8908726513807323  0.922347686617762  0.8450842993893346  1.0000
  I   I5        1.0  0.8357273296402709  0.6932253907862249  0.3706186529841063  1.0000
  I   I6        1.0  0.8222873932643752  0.4651249969392666  0.1291828830422119  1.0000
  I   I7        1.0  0.1642703072588176  0.3067678592207699  0.6293751267546597  1.0000
  I   I8        1.0  0.17779272193693876  0.5348720364775373  0.8708215440625935  1.0000
  I   I9        1.0  0.2109467777175454  0.8666346384897281  0.6597501740155707  1.0000
  I   I10       1.0  0.7065474561260743  0.5509770887976302  0.8400929136790154  1.0000
  I   I11       1.0  0.789046153950096  0.1333642806313478  0.34025187324610334  1.0000
  I   I12       1.0  0.2933892961248219  0.44895317070118784  0.15989392298808977  1.0000
  N   N1        1.0  0.5151250542630096  0.4458847048426763  0.3881894119577325  1.0000
  N   N2        1.0  0.5577151626810773  0.1270107902271818  0.11163919981733977  1.0000
  N   N3        1.0  0.4848725788074049  0.5541159544219739  0.6118106688033507  1.0000
  N   N4        1.0  0.442298303713443  0.8730024038791768  0.8883675531743336  1.0000
  N   N5        1.0  0.4499015028124304  0.2622423505150094  0.335072427635744  1.0000
  N   N6        1.0  0.42703391606769237  0.11475223753639337  0.1647481894739187  1.0000
  N   N7        1.0  0.55009976463176  0.7377591226250714  0.664930498392593  1.0000
  N   N8        1.0  0.5729731983076718  0.8852635176862409  0.8352525617430616  1.0000
  N   N9        1.0  0.30042186742163324  0.6827983391601152  0.4000887533343445  1.0000
  N   N10       1.0  0.7831932824104515  0.9009101276888177  0.0998350285727839  1.0000
  N   N11       1.0  0.6995767842540771  0.3172048527744451  0.5999102234476936  1.0000
  N   N12       1.0  0.2168046349093942  0.0990855829023474  0.9001615079517649  1.0000
  N   N13       1.0  0.1675946228877906  0.7419162978193655  0.4149509304574011  1.0000
  N   N14       1.0  0.8269645479560169  0.7530266554256357  0.08496597836002455  1.0000
  N   N15       1.0  0.8324053278139802  0.25809188736927524  0.5850496991313747  1.0000
  N   N16       1.0  0.1730162626914975  0.2469600693642917  0.9150112588668478  1.0000
  N   N17       1.0  0.7290820841325355  0.8474380027805709  0.5221326810396221  1.0000
  N   N18       1.0  0.825403013479672  0.2068909136160428  0.9774584386248789  1.0000
  N   N19       1.0  0.2709108279862845  0.15256677895092002  0.4778684613956585  1.0000
  N   N20       1.0  0.17459825779319263  0.7931031502663897  0.02253818638113358  1.0000
  N   N21       1.0  0.8610175611977764  0.009610910422779298  0.5406207170735797  1.0000
  N   N22       1.0  0.9691398444990039  0.32018486602561325  0.9588409385732887  1.0000
  N   N23       1.0  0.13897599042572056  0.9903913135057678  0.4593837189808668  1.0000
  N   N24       1.0  0.030860435210975614  0.6798050787033109  0.04115191660300623  1.0000
