data_image0
_chemical_formula_structural       Zn2H32C34SN2O11
_chemical_formula_sum              "Zn2 H32 C34 S1 N2 O11"
_cell_length_a       10.907939794294425
_cell_length_b       11.80916648543476
_cell_length_c       13.041976473021096
_cell_angle_alpha    87.33556752022845
_cell_angle_beta     87.64343283473538
_cell_angle_gamma    84.85433330364879

_space_group_name_H-M_alt    "P 1"
_space_group_IT_number       1

loop_
  _space_group_symop_operation_xyz
  'x, y, z'

loop_
  _atom_site_type_symbol
  _atom_site_label
  _atom_site_symmetry_multiplicity
  _atom_site_fract_x
  _atom_site_fract_y
  _atom_site_fract_z
  _atom_site_occupancy
  Zn  Zn1       1.0  0.47866816849080623  0.6242729711807653  0.5034703887544013  1.0000
  Zn  Zn2       1.0  0.5071574428348242  0.38342590416863925  0.4892950016725878  1.0000
  H   H1        1.0  0.07082764406890617  0.6683129752094175  0.5532787627508071  1.0000
  H   H2        1.0  0.5383289304764957  0.6372485810639076  0.8180982349183524  1.0000
  H   H3        1.0  0.5666832974060938  0.8100005502904251  0.3879911068586566  1.0000
  H   H4        1.0  0.0829468307632126  0.5715116366290899  0.6606625680783793  1.0000
  H   H5        1.0  0.3490537648095682  0.008253600615581997  0.6750900455031399  1.0000
  H   H6        1.0  0.6278969801651471  0.2176268212869559  0.33645751189839507  1.0000
  H   H7        1.0  0.41607377822916203  0.1968303691740871  0.605471248199038  1.0000
  H   H8        1.0  0.8794001098025815  0.5225832233223571  0.65060852481988  1.0000
  H   H9        1.0  0.8584621135800605  0.6563619870825261  0.5856021595539289  1.0000
  H   H10       1.0  0.12887970926848175  0.6106197204358281  0.3790067808693465  1.0000
  H   H11       1.0  0.12322380744119245  0.31119356752425625  0.4985562612842927  1.0000
  H   H12       1.0  0.9218571563027425  0.3354964675686957  0.43698987033268116  1.0000
  H   H13       1.0  0.07340014849685872  0.3580369899367851  0.6208623547356282  1.0000
  H   H14       1.0  0.8728154059656744  0.34349697832045206  0.5665950627902276  1.0000
  H   H15       1.0  0.18800412952857223  0.9102485108581603  0.732933890519142  1.0000
  H   H16       1.0  0.1457020207902247  0.8288192730784303  0.6306823855856721  1.0000
  H   H17       1.0  0.15188102472588846  0.7680576289280265  0.7577782086907945  1.0000
  H   H18       1.0  0.3351364773238005  0.6916790307220422  0.6580217439696129  1.0000
  H   H19       1.0  0.38071282264941425  0.776469186391111  0.7542615526789335  1.0000
  H   H20       1.0  0.6501371233910049  0.1341250990657485  0.173711026091226  1.0000
  H   H21       1.0  0.7864403967755749  0.11873555288715208  0.2451325141080645  1.0000
  H   H22       1.0  0.7666656696229879  0.0231794594766512  0.1477510953740264  1.0000
  H   H23       1.0  0.1279047476827486  0.4664676045457696  0.3481043120443132  1.0000
  H   H24       1.0  0.7293910651531519  0.9264498144490716  0.31685882722863573  1.0000
  H   H25       1.0  0.5956505646813496  0.9404639872067123  0.24652120453534113  1.0000
  H   H26       1.0  0.7601620111544278  0.7065191641798876  0.4523907914679839  1.0000
  H   H27       1.0  0.9198724808947176  0.4960072412715775  0.32502909998397916  1.0000
  H   H28       1.0  0.47992148366111564  0.36225458852057796  0.1730692463582812  1.0000
  H   H29       1.0  0.5079091947973638  0.7220355148108482  0.17665044218410492  1.0000
  H   H30       1.0  0.49533950938792515  0.2648100530012556  0.006619562053948908  1.0000
  H   H31       1.0  0.5316918873036514  0.7334545801612292  0.9852783052346228  1.0000
  H   H32       1.0  0.5157018897180734  0.2766123697733462  0.8149292515167019  1.0000
  C   C1        1.0  0.5279818921433731  0.46644177571266704  0.691506628973606  1.0000
  C   C2        1.0  0.518744804621484  0.5530896293176397  0.9689345681373782  1.0000
  C   C3        1.0  0.5047277020943425  0.4457760668001284  0.022566102193671615  1.0000
  C   C4        1.0  0.2557904582082813  0.4915954551769273  0.5199144480247285  1.0000
  C   C5        1.0  0.49120236758135144  0.4427001687076668  0.13076158166752802  1.0000
  C   C6        1.0  0.506409403896889  0.64662691473886  0.13188461731743226  1.0000
  C   C7        1.0  0.5196993049309029  0.652314388616844  0.026470818265814024  1.0000
  C   C8        1.0  0.5887109363082956  0.04430476983426959  0.37633797834969585  1.0000
  C   C9        1.0  0.5833205794293974  0.15997350019750908  0.3905332409197372  1.0000
  C   C10       1.0  0.4635657608157829  0.15090075786382326  0.5425908417141444  1.0000
  C   C11       1.0  0.46150858744140066  0.031852647888293  0.5367368485946145  1.0000
  C   C12       1.0  0.878044125316471  0.5079057190653771  0.48749865008104376  1.0000
  C   C13       1.0  0.525239090461831  0.9774490869309744  0.4522811576837427  1.0000
  C   C14       1.0  0.5208715601677554  0.85829866559758  0.450122202935468  1.0000
  C   C15       1.0  0.3986500636807336  0.8500869197738437  0.6031729169642546  1.0000
  C   C16       1.0  0.4807370643301637  0.5329305057697623  0.2995790802226139  1.0000
  C   C17       1.0  0.39848892502143235  0.9663879128145748  0.6109383648297424  1.0000
  C   C18       1.0  0.7381365592614698  0.5146878430559455  0.4764442344676852  1.0000
  C   C19       1.0  0.049241729926414714  0.583347563774815  0.5822061886535367  1.0000
  C   C20       1.0  0.9096803853091728  0.5726080196720389  0.5823879320994152  1.0000
  C   C21       1.0  0.0869368690003967  0.5313396182222263  0.400123579001182  1.0000
  C   C22       1.0  0.06609655055701318  0.3782262506214026  0.5379817089033594  1.0000
  C   C23       1.0  0.9462274840711942  0.5482076947351686  0.38673765791651954  1.0000
  C   C24       1.0  0.1162776949043902  0.4940448630121422  0.5123840745556336  1.0000
  C   C25       1.0  0.3311945663001551  0.7794300436996977  0.6820649579748235  1.0000
  C   C26       1.0  0.19667435990947268  0.8249015973574955  0.7018082462686552  1.0000
  C   C27       1.0  0.658449736666192  0.9902345328956412  0.28651659326580875  1.0000
  C   C28       1.0  0.7182377664713117  0.07161531856706198  0.20929242748864138  1.0000
  C   C29       1.0  0.9305956299970716  0.38283838861685376  0.5064924232786154  1.0000
  C   C30       1.0  0.49183673919799986  0.5407373729678042  0.1848932462219821  1.0000
  C   C31       1.0  0.5262693580878449  0.45878509298765363  0.8063122835531545  1.0000
  C   C32       1.0  0.5049534754700531  0.3462573280255441  0.9652033632938386  1.0000
  C   C33       1.0  0.5159620921392403  0.3522310751679356  0.8596916424494482  1.0000
  C   C34       1.0  0.5290681053090793  0.556536909708683  0.8604987640795088  1.0000
  S   S1        1.0  0.89557385755203  0.6913263640570899  0.3312279903881645  1.0000
  N   N1        1.0  0.4614692170741109  0.7980712610146553  0.5220618146046192  1.0000
  N   N2        1.0  0.5222918488394868  0.21133372026605451  0.47191132173622213  1.0000
  O   O1        1.0  0.5210170199544777  0.5661298435688237  0.6486862534818627  1.0000
  O   O2        1.0  0.8051307157238342  0.6739158733286883  0.2566065300526077  1.0000
  O   O3        1.0  0.8288612748954379  0.7574287044889872  0.4242304950701481  1.0000
  O   O4        1.0  0.5338122654164223  0.3738520991641535  0.6445044632415673  1.0000
  O   O5        1.0  0.2992173958298707  0.5884679214288155  0.5194564766896477  1.0000
  O   O6        1.0  0.31901400852103734  0.3959747475770498  0.5223904243620511  1.0000
  O   O7        1.0  0.4773589312550187  0.624951986520962  0.347426575595982  1.0000
  O   O8        1.0  0.4763865144968946  0.43347186258333886  0.34138347959471826  1.0000
  O   O9        1.0  0.6782865510505262  0.6136525500733611  0.4806485264524626  1.0000
  O   O10       1.0  0.6888800200683319  0.4235858586824077  0.4664386880810412  1.0000
  O   O11       1.0  0.000684819183881296  0.7521950598106741  0.29999826558862003  1.0000
