data_image0
_chemical_formula_structural       Ni3H24C42N12O12
_chemical_formula_sum              "Ni3 H24 C42 N12 O12"
_cell_length_a       5.346531541
_cell_length_b       26.35232274927783
_cell_length_c       26.362350529750163
_cell_angle_alpha    120.0200084561933
_cell_angle_beta     90.00002277499773
_cell_angle_gamma    89.99992505024585

_space_group_name_H-M_alt    "P 1"
_space_group_IT_number       1

loop_
  _space_group_symop_operation_xyz
  'x, y, z'

loop_
  _atom_site_type_symbol
  _atom_site_label
  _atom_site_symmetry_multiplicity
  _atom_site_fract_x
  _atom_site_fract_y
  _atom_site_fract_z
  _atom_site_occupancy
  Ni  Ni1       1.0  0.5000009346274156  0.9999995691650199  0.500000009215448  1.0000
  Ni  Ni2       1.0  0.49999756729897626  0.5000006367686538  8.792741184191335e-07  1.0000
  Ni  Ni3       1.0  0.5000022880251934  0.4999997526653318  0.49999907604687627  1.0000
  H   H1        1.0  0.49999223943522964  0.9079793125169218  0.5323273742229944  1.0000
  H   H2        1.0  0.4999913348659746  0.6243285868147268  0.09198804140579141  1.0000
  H   H3        1.0  0.49997606843890463  0.4675380720849418  0.37566811611692696  1.0000
  H   H4        1.0  0.49999176253310645  0.09202006646331289  0.4676724075629651  1.0000
  H   H5        1.0  0.49999079672396357  0.375672148667178  0.9080126646225113  1.0000
  H   H6        1.0  0.4999780075805375  0.5324619694784191  0.6243310141136151  1.0000
  H   H7        1.0  0.4999939399626925  0.09202753066858807  0.6243622903755367  1.0000
  H   H8        1.0  0.49997497068040525  0.3756710148934985  0.4676576549356285  1.0000
  H   H9        1.0  0.49998978605976413  0.5324610206036272  0.9081346189682978  1.0000
  H   H10       1.0  0.49999193237356115  0.9079724477195654  0.37563765470111576  1.0000
  H   H11       1.0  0.49997536459796527  0.6243288058088227  0.5323416924800599  1.0000
  H   H12       1.0  0.4999886047891096  0.467539494017231  0.09186630424514423  1.0000
  H   H13       1.0  0.5000078142069668  0.7973321698434718  0.4804884601565578  1.0000
  H   H14       1.0  0.5000061358420852  0.6830863647279487  0.2026268149933089  1.0000
  H   H15       1.0  0.5000148968437657  0.5193574956440871  0.31684670704697043  1.0000
  H   H16       1.0  0.5000061137064122  0.20266683058987686  0.5195109411535699  1.0000
  H   H17       1.0  0.5000059216913612  0.3169145284397886  0.7973744886959652  1.0000
  H   H18       1.0  0.5000121236627422  0.48064270360510636  0.683153020844543  1.0000
  H   H19       1.0  0.5000026936345349  0.20267814021006822  0.6831589715808734  1.0000
  H   H20       1.0  0.5000147290315269  0.31690963750492085  0.5195381874792987  1.0000
  H   H21       1.0  0.5000048662205785  0.4806544415509468  0.797501832390289  1.0000
  H   H22       1.0  0.5000056231609165  0.797321459631206  0.316840593019947  1.0000
  H   H23       1.0  0.5000160322195911  0.6830901831974004  0.4804611599363826  1.0000
  H   H24       1.0  0.5000053209395645  0.5193466724778304  0.20249925411384606  1.0000
  C   C1        1.0  0.5000095701795003  0.7889240245464181  0.3944608771874061  1.0000
  C   C2        1.0  0.5000029122293128  0.6054102138131299  0.2109482535910986  1.0000
  C   C3        1.0  0.5000070126264617  0.6054141639868504  0.3944618420532749  1.0000
  C   C4        1.0  0.500008098473252  0.21107557529485638  0.6055386874134144  1.0000
  C   C5        1.0  0.4999997934466832  0.3945905216687678  0.7890524524372113  1.0000
  C   C6        1.0  0.5000087856548276  0.39458543585442385  0.6055377225475455  1.0000
  C   C7        1.0  0.5000136654706752  0.7240790903868729  0.3620406904271578  1.0000
  C   C8        1.0  0.5000084415924348  0.6377953747008221  0.2757727219290232  1.0000
  C   C9        1.0  0.5000142217292378  0.6377987919207868  0.3620215576672693  1.0000
  C   C10       1.0  0.5000114846680717  0.27592066714023394  0.6379594718346341  1.0000
  C   C11       1.0  0.5000073566854724  0.36220498223420367  0.7242276036234545  1.0000
  C   C12       1.0  0.5000127987772629  0.3622014073284135  0.6379781702242371  1.0000
  C   C13       1.0  2.0162956100000168e-07  0.9999998876313895  0.5296321168583306  1.0000
  C   C14       1.0  0.9999981672498136  0.5296494802585201  2.1015248009342654e-05  1.0000
  C   C15       1.0  5.370770196599998e-06  0.4703524500904522  0.4703675856659333  1.0000
  C   C16       1.0  8.548513360000134e-08  0.9999980518828052  0.47036757499117954  1.0000
  C   C17       1.0  0.9999986390949542  0.4703503717792047  0.9999805595208573  1.0000
  C   C18       1.0  5.1046130949e-06  0.529647560137505  0.5296293172114304  1.0000
  C   C19       1.0  0.49999979973595293  0.8812723291494963  0.4846838153008124  1.0000
  C   C20       1.0  0.4999933926494222  0.6033723307774395  0.11866998095081986  1.0000
  C   C21       1.0  0.4999870243966599  0.515194248980258  0.39658398989386284  1.0000
  C   C22       1.0  0.4999991652040519  0.11872704983073862  0.5153159664851474  1.0000
  C   C23       1.0  0.499994350054898  0.3966284047044655  0.8813307250774901  1.0000
  C   C24       1.0  0.4999876257106806  0.48480557172205624  0.6034153575218186  1.0000
  C   C25       1.0  0.4999955971373211  0.11872877480887213  0.6034234323413515  1.0000
  C   C26       1.0  0.4999861511880965  0.39662428950861545  0.515299441282487  1.0000
  C   C27       1.0  0.4999919112934492  0.48480451762964827  0.8813967584545995  1.0000
  C   C28       1.0  0.4999940159453899  0.8812706041713554  0.3965763494446153  1.0000
  C   C29       1.0  0.4999866285459404  0.6033757520547526  0.48469968894805515  1.0000
  C   C30       1.0  0.49999209066626094  0.5151965963991358  0.11860432804953557  1.0000
  C   C31       1.0  0.5000057468442164  0.8204118565251122  0.4559043203240878  1.0000
  C   C32       1.0  0.5000007868571217  0.6354022259964864  0.17950586317478215  1.0000
  C   C33       1.0  0.4999979983855951  0.5439475649302353  0.3645162624066246  1.0000
  C   C34       1.0  0.5000044403243962  0.17958736476929016  0.5440948638009007  1.0000
  C   C35       1.0  0.5000000484457203  0.36459888803229035  0.8204952233293455  1.0000
  C   C36       1.0  0.500000966549024  0.456052634318958  0.6354834654848818  1.0000
  C   C37       1.0  0.5000027490544809  0.1795922137615378  0.6354909124803997  1.0000
  C   C38       1.0  0.5000032474842726  0.36459442746787124  0.5440954458739996  1.0000
  C   C39       1.0  0.49999758853415693  0.4560577275069875  0.8205691196710276  1.0000
  C   C40       1.0  0.500001826994513  0.8204079854876625  0.36450881541110663  1.0000
  C   C41       1.0  0.5000013285647212  0.635405771781322  0.45590428201751376  1.0000
  C   C42       1.0  0.49999950602761334  0.5439431656607497  0.1794321840182463  1.0000
  N   N1        1.0  0.4999958094650053  0.9111199739274128  0.4555587571037665  1.0000
  N   N2        1.0  0.4999918441882726  0.5443661368672394  0.08880473688934402  1.0000
  N   N3        1.0  0.4999813407514182  0.5443719493438054  0.45556148144383013  1.0000
  N   N4        1.0  0.49999380361940376  0.08887902650594288  0.5444406442063682  1.0000
  N   N5        1.0  0.4999921577732848  0.45563475630049793  0.9111965667999303  1.0000
  N   N6        1.0  0.499982087125474  0.4556282499053879  0.5444382464476761  1.0000
  N   N7        1.0  0.5000157740991326  0.6966882911241328  0.3934972135371951  1.0000
  N   N8        1.0  0.5000081156578915  0.6966804988710606  0.30318647387365877  1.0000
  N   N9        1.0  0.5000161796840743  0.6063201147944355  0.3031547133243891  1.0000
  N   N10       1.0  0.5000149871521415  0.30331168726401375  0.6065027315394574  1.0000
  N   N11       1.0  0.5000076826200087  0.30331985806396505  0.6968138516788189  1.0000
  N   N12       1.0  0.5000145815653455  0.3936800844547649  0.6968450145671242  1.0000
  O   O1        1.0  0.21049268550809327  1.1301518584307532e-06  0.5517948046557282  1.0000
  O   O2        1.0  0.21048991653182011  0.551826825193821  3.5705811377816e-05  1.0000
  O   O3        1.0  0.21050268544343712  0.44817567963879423  0.4482012168223833  1.0000
  O   O4        1.0  0.21049164606809967  0.9999978071062828  0.4482054115005171  1.0000
  O   O5        1.0  0.21049067429544266  0.44817441468098457  0.9999690205530103  1.0000
  O   O6        1.0  0.2105022202090936  0.5518238888670766  0.5517961204252587  1.0000
  O   O7        1.0  0.7895073188773054  7.516049792056521e-07  0.5517944241798959  1.0000
  O   O8        1.0  0.7895042262002647  0.4481776355483832  0.44820230435541236  1.0000
  O   O9        1.0  0.7895064202724951  0.5518264466469419  3.532533555270443e-05  1.0000
  O   O10       1.0  0.7895062794374681  0.999997586245243  0.4482056286856562  1.0000
  O   O11       1.0  0.7895037609851842  0.5518223115043597  0.5517954133680549  1.0000
  O   O12       1.0  0.7895053076592616  0.44817485640307125  0.999968586182732  1.0000
