data_image0
_chemical_formula_structural       Cu4H20C20N16
_chemical_formula_sum              "Cu4 H20 C20 N16"
_cell_length_a       6.872481850014475
_cell_length_b       8.053955782224346
_cell_length_c       11.320749624331022
_cell_angle_alpha    89.99914865545915
_cell_angle_beta     89.99977318401973
_cell_angle_gamma    90.00003326634099

_space_group_name_H-M_alt    "P 1"
_space_group_IT_number       1

loop_
  _space_group_symop_operation_xyz
  'x, y, z'

loop_
  _atom_site_type_symbol
  _atom_site_label
  _atom_site_symmetry_multiplicity
  _atom_site_fract_x
  _atom_site_fract_y
  _atom_site_fract_z
  _atom_site_occupancy
  Cu  Cu1       1.0  0.210798852830635  0.9564738071802666  0.5089609606699455  1.0000
  Cu  Cu2       1.0  0.21079714381826886  0.4564585971311814  0.9910412304135222  1.0000
  Cu  Cu3       1.0  0.7892028383651066  0.9564617602873682  0.0089571381366369  1.0000
  Cu  Cu4       1.0  0.7892069496701238  0.4564800741110489  0.4910400576963525  1.0000
  H   H1        1.0  0.3672314501960657  0.8468920775665298  0.9469429459098392  1.0000
  H   H2        1.0  0.3672281526654402  0.3469008798667162  0.5530591381159269  1.0000
  H   H3        1.0  0.6327804807475843  0.8469085155282913  0.44693332626167864  1.0000
  H   H4        1.0  0.6327669976029642  0.3468999348706917  0.05306806858092019  1.0000
  H   H5        1.0  0.8155399540856578  0.08392116921580592  0.7654911419476066  1.0000
  H   H6        1.0  0.8155285925551682  0.5839403778191395  0.7345046751370318  1.0000
  H   H7        1.0  0.1844740303097439  0.0839411239569756  0.2654843962577544  1.0000
  H   H8        1.0  0.18445539329025712  0.5839168753860379  0.23452354636492603  1.0000
  H   H9        1.0  0.6201715253203659  0.07265654329542313  0.5797095760777964  1.0000
  H   H10       1.0  0.6201589859661994  0.5726532620543028  0.9202868432137593  1.0000
  H   H11       1.0  0.37983344320272044  0.0726604476324582  0.0796970479261745  1.0000
  H   H12       1.0  0.3798339994628891  0.5726521995967602  0.4203025817516988  1.0000
  H   H13       1.0  0.06182440694603741  0.8104853049369752  0.683967997935298  1.0000
  H   H14       1.0  0.06181798711662619  0.3104700112502102  0.8160369935554073  1.0000
  H   H15       1.0  0.9381877097704674  0.8104770521159214  0.18395939073675996  1.0000
  H   H16       1.0  0.9381885653127712  0.3104828659790542  0.3160372195731966  1.0000
  H   H17       1.0  0.0723906869696407  0.7851197647929669  0.8386274890427998  1.0000
  H   H18       1.0  0.0723867027428184  0.28511638044198406  0.6613733287717452  1.0000
  H   H19       1.0  0.9276117004165699  0.7851214400540912  0.3386206745695404  1.0000
  H   H20       1.0  0.9276106263278763  0.2851205388912419  0.16137269761782852  1.0000
  C   C1        1.0  0.30908421279300313  0.8962076505069165  0.7613234225675072  1.0000
  C   C2        1.0  0.30909283418585426  0.39620886587645304  0.7386765151445189  1.0000
  C   C3        1.0  0.6909143798082766  0.8962067326367774  0.2613189594079017  1.0000
  C   C4        1.0  0.6909099054641461  0.3962067062763097  0.23868176867871682  1.0000
  C   C5        1.0  0.42360001042101914  0.9012885669205134  0.8656105177680472  1.0000
  C   C6        1.0  0.4235903769671055  0.4012994019226853  0.6343855498148017  1.0000
  C   C7        1.0  0.5764037450173731  0.9013024954102492  0.3656063373747713  1.0000
  C   C8        1.0  0.5763941115110285  0.40129222262529407  0.1343955028732111  1.0000
  C   C9        1.0  0.67027946025037  0.030712511578158803  0.7643494531309898  1.0000
  C   C10       1.0  0.6702680914795567  0.5307180385510364  0.7356455207532164  1.0000
  C   C11       1.0  0.32973012765909715  0.030730050506910807  0.2643405820017364  1.0000
  C   C12       1.0  0.3297158486390188  0.5307045365654093  0.2356622664704346  1.0000
  C   C13       1.0  0.5614690185882195  0.0229869151517406  0.6618113657027679  1.0000
  C   C14       1.0  0.5614599098903312  0.5229841005046081  0.8381874922945444  1.0000
  C   C15       1.0  0.43854121380349653  0.022994571595781103  0.1618004591983109  1.0000
  C   C16       1.0  0.43853501518704974  0.5229768572089314  0.3381986692088148  1.0000
  C   C17       1.0  0.0220836397148361  0.12307469438509602  0.500015678026557  1.0000
  C   C18       1.0  0.0220676849654424  0.6230573387664079  0.999978150278963  1.0000
  C   C19       1.0  0.9779233255437492  0.12305404362081163  1.9339413576300003e-05  1.0000
  C   C20       1.0  0.9779248317388607  0.6230851113698608  0.49998622805615167  1.0000
  N   N1        1.0  0.3816900654781037  0.9557335317668249  0.6577291704767134  1.0000
  N   N2        1.0  0.38168638948155836  0.45572638359600864  0.8422690729891543  1.0000
  N   N3        1.0  0.6183092269570594  0.9557313385896722  0.1577231199903864  1.0000
  N   N4        1.0  0.618309916159255  0.455731640046544  0.342275389130144  1.0000
  N   N5        1.0  0.6010090098317421  0.9672685908037836  0.8672423493428241  1.0000
  N   N6        1.0  0.6010022968721886  0.467270768362262  0.6327552299643315  1.0000
  N   N7        1.0  0.3989933279250054  0.9672774704828131  0.36723507383945286  1.0000
  N   N8        1.0  0.3989851598228499  0.46726474833732123  0.1327665045501476  1.0000
  N   N9        1.0  0.1279312881081367  0.8337053878051608  0.7627735285514491  1.0000
  N   N10       1.0  0.1279282780584552  0.3337004251933351  0.7372284032050871  1.0000
  N   N11       1.0  0.8720687051647147  0.8337057956517385  0.2627677346056458  1.0000
  N   N12       1.0  0.8720729704809073  0.3337057994532557  0.23723144256126008  1.0000
  N   N13       1.0  0.9073533965073609  0.23248948684327084  0.49708221956840504  1.0000
  N   N14       1.0  0.9073551438252495  0.732467573874125  0.0029135279167321003  1.0000
  N   N15       1.0  0.0926563169327324  0.23247540475532702  0.9970863340596949  1.0000
  N   N16       1.0  0.09264787870499451  0.7324857740293426  0.5029202922505149  1.0000
