data_image0
_chemical_formula_structural       Bi2H26C20N4O16
_chemical_formula_sum              "Bi2 H26 C20 N4 O16"
_cell_length_a       6.873027965331223
_cell_length_b       8.970825637305282
_cell_length_c       13.027756648096368
_cell_angle_alpha    105.48820546442369
_cell_angle_beta     89.9843051625083
_cell_angle_gamma    112.55284209458765

_space_group_name_H-M_alt    "P 1"
_space_group_IT_number       1

loop_
  _space_group_symop_operation_xyz
  'x, y, z'

loop_
  _atom_site_type_symbol
  _atom_site_label
  _atom_site_symmetry_multiplicity
  _atom_site_fract_x
  _atom_site_fract_y
  _atom_site_fract_z
  _atom_site_occupancy
  Bi  Bi1       1.0  0.884458262813226  0.04591400330716771  0.007038890337824501  1.0000
  Bi  Bi2       1.0  0.16142661050444218  0.046293411076987895  0.5071873891835139  1.0000
  H   H1        1.0  0.7158537128302671  0.655786744691099  0.055605388410995715  1.0000
  H   H2        1.0  0.9411209805236214  0.6560688006376055  0.556016201772728  1.0000
  H   H3        1.0  0.3538439105539697  0.5823527888503365  0.7881262986210803  1.0000
  H   H4        1.0  0.22895337515806355  0.5829993436023742  0.28829443489245693  1.0000
  H   H5        1.0  0.6282784311744507  0.6619090359262501  0.7791481460120125  1.0000
  H   H6        1.0  0.03403643853550173  0.6623532835031939  0.27928049497145224  1.0000
  H   H7        1.0  0.9315561384154166  0.45052067088634834  0.8853743520689722  1.0000
  H   H8        1.0  0.5192348679278211  0.4509812960756037  0.38558873349506234  1.0000
  H   H9        1.0  0.733172877592743  0.36797172336264344  0.9656008832089288  1.0000
  H   H10       1.0  0.6348274566600695  0.36851519341080774  0.46589672599947113  1.0000
  H   H11       1.0  0.21464337541888784  0.8308713048202918  0.8827124835963434  1.0000
  H   H12       1.0  0.6168213123339827  0.8320694534415551  0.38314243683598914  1.0000
  H   H13       1.0  0.30166279530762813  0.7555895901292544  0.9788655118019352  1.0000
  H   H14       1.0  0.4543068044068337  0.7567023274059963  0.4792473081737257  1.0000
  H   H15       1.0  0.9596449524750457  0.2064048838097819  0.7251576551733836  1.0000
  H   H16       1.0  0.24682266850886952  0.20683880556011763  0.2253603492124938  1.0000
  H   H17       1.0  0.15557454638761214  0.28929193193869207  0.8382300395772548  1.0000
  H   H18       1.0  0.13332767776752524  0.28913665421536905  0.3384377404638173  1.0000
  H   H19       1.0  0.38362084575577177  0.8625089086746697  0.7375957107270781  1.0000
  H   H20       1.0  0.4797944493473595  0.8633619896520841  0.23787420694185368  1.0000
  H   H21       1.0  0.6431763766663964  0.8709413449338185  0.7281653711490608  1.0000
  H   H22       1.0  0.22845714373372075  0.8713520857501179  0.2282289443822805  1.0000
  H   H23       1.0  0.5164291595745851  0.1450205630327375  0.8710032250063906  1.0000
  H   H24       1.0  0.6290582555108627  0.14598089707014592  0.3711371008612546  1.0000
  H   H25       1.0  0.6141119479447427  0.14581848314485063  0.7459658627394958  1.0000
  H   H26       1.0  0.5319152300559935  0.14647250993768068  0.24607855332583745  1.0000
  C   C1        1.0  0.508854878641806  0.6667999966353548  0.8348866191697726  1.0000
  C   C2        1.0  0.15837389454744533  0.6674089139198359  0.33505032208359614  1.0000
  C   C3        1.0  0.5463757911681953  0.5918224713309995  0.9201479718512221  1.0000
  C   C4        1.0  0.04576518535876075  0.5922554086179092  0.420274652553701  1.0000
  C   C5        1.0  0.8820086434366416  0.3651857367147997  0.93632377636515  1.0000
  C   C6        1.0  0.48322970676628774  0.36562216000593395  0.4365067363928788  1.0000
  C   C7        1.0  0.044782604856862966  0.4374649823844337  0.035805112874278705  1.0000
  C   C8        1.0  0.3924072846136398  0.43780966400163374  0.5359106180791784  1.0000
  C   C9        1.0  0.35307443524633453  0.8532137683887199  0.9364237951295423  1.0000
  C   C10       1.0  0.5005020079848422  0.8542646209330085  0.4367587566439539  1.0000
  C   C11       1.0  0.4038679609139636  0.0187572037521377  0.023762424939853605  1.0000
  C   C12       1.0  0.6151116780537861  0.0199947208195539  0.5239914597006889  1.0000
  C   C13       1.0  0.002733456553500027  0.18660150091275088  0.8002727366331899  1.0000
  C   C14       1.0  0.18386107810823665  0.18674820872307413  0.30041733165622736  1.0000
  C   C15       1.0  0.045384828932327495  0.0266566034817188  0.7741804357121469  1.0000
  C   C16       1.0  0.9814849587938211  0.026456292269777696  0.27418936549950973  1.0000
  C   C17       1.0  0.541823936666681  0.9135169813160785  0.7829515885149549  1.0000
  C   C18       1.0  0.372282264751455  0.9141639756336417  0.28312607148278357  1.0000
  C   C19       1.0  0.6209686539586629  0.1040668562718139  0.817570874750686  1.0000
  C   C20       1.0  0.48344168633331464  0.10471323663679039  0.31771071536069684  1.0000
  N   N1        1.0  0.5308903744256386  0.8428474605200336  0.8751398045981137  1.0000
  N   N2        1.0  0.3123434015801793  0.8435192380319735  0.37532071891117624  1.0000
  N   N3        1.0  0.8403506530982625  0.19026260454806018  0.8747719783916497  1.0000
  N   N4        1.0  0.35003215328786297  0.1906600570662249  0.3749283849320406  1.0000
  O   O1        1.0  0.6922422610614164  0.7079864784258375  0.002197087824832506  1.0000
  O   O2        1.0  0.016707610537345628  0.708426564873541  0.5025910581248284  1.0000
  O   O3        1.0  0.46476628292879246  0.44245995569439606  0.9146998946427092  1.0000
  O   O4        1.0  0.9775533355371594  0.4428608671110297  0.4146361808960749  1.0000
  O   O5        1.0  0.08240833847688123  0.3321172638661806  0.07583035447525081  1.0000
  O   O6        1.0  0.24949802716768235  0.3323654174270985  0.5759820870172307  1.0000
  O   O7        1.0  0.12456740827301621  0.5935277897308849  0.07531669716055232  1.0000
  O   O8        1.0  0.46833398170766577  0.59389077714156  0.5753198412155457  1.0000
  O   O9        1.0  0.5979900416745353  0.11469069723692368  0.06192843145730361  1.0000
  O   O10       1.0  0.5167767115432156  0.11576087333109089  0.5621483088416356  1.0000
  O   O11       1.0  0.2512185892248766  0.0522684064277072  0.05975132749690461  1.0000
  O   O12       1.0  0.8014558854975108  0.05387879732603551  0.5599141548490963  1.0000
  O   O13       1.0  0.9911918009323772  0.9341929902607902  0.838060344444273  1.0000
  O   O14       1.0  0.9431835861070255  0.9340613476557708  0.33810987286047123  1.0000
  O   O15       1.0  0.14120408162870052  0.9952661110171235  0.694193448753673  1.0000
  O   O16       1.0  0.8544477475327739  0.9946938745206283  0.19407084142377334  1.0000
