data_image0
_chemical_formula_structural       K2ZrCdH16C8O24
_chemical_formula_sum              "K2 Zr1 Cd1 H16 C8 O24"
_cell_length_a       8.822855850864071
_cell_length_b       9.158123009035037
_cell_length_c       9.15812358175131
_cell_angle_alpha    76.58266127795984
_cell_angle_beta     61.203212598972506
_cell_angle_gamma    61.20325528916152

_space_group_name_H-M_alt    "P 1"
_space_group_IT_number       1

loop_
  _space_group_symop_operation_xyz
  'x, y, z'

loop_
  _atom_site_type_symbol
  _atom_site_label
  _atom_site_symmetry_multiplicity
  _atom_site_fract_x
  _atom_site_fract_y
  _atom_site_fract_z
  _atom_site_occupancy
  K   K1        1.0  0.49999866826324557  3.856571865458145e-06  0.9999980299789967  1.0000
  K   K2        1.0  0.7499987663538905  0.4999968083345153  0.5000038970853921  1.0000
  Zr  Zr1       1.0  0.2499980422786977  0.5000019816029209  0.5000016275131571  1.0000
  Cd  Cd1       1.0  0.9999990230042713  3.1155704500615273e-07  8.010660223999982e-07  1.0000
  H   H1        1.0  0.38721615272162796  0.3535104160832531  0.835378621319876  1.0000
  H   H2        1.0  0.5761008593177483  0.6464945631910552  0.16462461035678896  1.0000
  H   H3        1.0  0.7774050398623304  0.8353768743294123  0.6464910026680428  1.0000
  H   H4        1.0  0.2592768004434802  0.16462312916872432  0.35350435465198876  1.0000
  H   H5        1.0  0.4552746195576065  0.4240761448621485  0.9227870232754541  1.0000
  H   H6        1.0  0.8021350464931916  0.5759273998604256  0.07721336576347682  1.0000
  H   H7        1.0  0.6219407900434253  0.9227852567674546  0.5759222009331921  1.0000
  H   H8        1.0  0.12065068424254127  0.07721448370281082  0.4240722609791518  1.0000
  H   H9        1.0  0.45010515627763686  0.9218893974399975  0.42314690791083365  1.0000
  H   H10       1.0  0.7951454393180556  0.07810776207052343  0.5768510551426759  1.0000
  H   H11       1.0  0.12674641396753128  0.42314861603021825  0.0781111489073609  1.0000
  H   H12       1.0  0.6280040530362924  0.5768519443171201  0.9218919690856496  1.0000
  H   H13       1.0  0.6774435000056515  0.8483188921211706  0.33873607144018086  1.0000
  H   H14       1.0  0.8645016540399767  0.15167743109155665  0.6612627728880583  1.0000
  H   H15       1.0  0.983820027857604  0.3387364873546019  0.15168151240175123  1.0000
  H   H16       1.0  0.4742366264251817  0.6612641357783177  0.848320279364664  1.0000
  C   C1        1.0  0.5582983205160302  0.22398576317340965  0.23683818820399694  1.0000
  C   C2        1.0  0.01912284955770368  0.7760163850526921  0.7631596624349086  1.0000
  C   C3        1.0  0.20486318148510926  0.23683927725500814  0.7760150886005449  1.0000
  C   C4        1.0  0.2177169964460719  0.7631604630739516  0.22398484869617621  1.0000
  C   C5        1.0  0.675010118362856  0.27855819947742333  0.27455537604740954  1.0000
  C   C6        1.0  0.22812411668527247  0.7214373480926568  0.7254456903792886  1.0000
  C   C7        1.0  0.05043737057624045  0.2745535719530707  0.7214403486148272  1.0000
  C   C8        1.0  0.04642886839189945  0.7254453661544247  0.2785601109750219  1.0000
  O   O1        1.0  0.3740415458782069  0.30575211830780796  0.3201958703456426  1.0000
  O   O2        1.0  0.9999882344902108  0.6942505323146194  0.6798038855662015  1.0000
  O   O3        1.0  0.30576413088747517  0.3201947715693479  0.69424698927714  1.0000
  O   O4        1.0  0.32020860143035895  0.6798019952628778  0.3057505978005537  1.0000
  O   O5        1.0  0.6417961654687475  0.11058648731572887  0.1355211618387386  1.0000
  O   O6        1.0  0.8879019004656645  0.8894145828474437  0.864477748956503  1.0000
  O   O7        1.0  0.22268152823133405  0.13552188524052164  0.8894151780580587  1.0000
  O   O8        1.0  0.2476170118413066  0.8644784922294164  0.1105857461860467  1.0000
  O   O9        1.0  0.8545689287209868  0.2108399616614136  0.19935156634629436  1.0000
  O   O10       1.0  0.264759773092955  0.7891616281145346  0.8006470803169492  1.0000
  O   O11       1.0  0.9460824545579387  0.19935190535542807  0.7891579327315554  1.0000
  O   O12       1.0  0.9345906411253895  0.8006485439846217  0.21084156464838344  1.0000
  O   O13       1.0  0.5726668709005055  0.3938982992130419  0.3839055457579193  1.0000
  O   O14       1.0  0.35047041569126275  0.6061020151213085  0.6160941660357935  1.0000
  O   O15       1.0  0.043427767931646585  0.3839065847559837  0.6061013650663301  1.0000
  O   O16       1.0  0.03343416263560796  0.6160926793518513  0.3939004491391743  1.0000
  O   O17       1.0  0.3801702441027574  0.36190419431949294  0.943749414157196  1.0000
  O   O18       1.0  0.6858207535814459  0.6380980721566657  0.056252014100941494  1.0000
  O   O19       1.0  0.676080342059507  0.9437480400080103  0.6380953985260335  1.0000
  O   O20       1.0  0.2579283505063188  0.056251281111862374  0.3619017622240862  1.0000
  O   O21       1.0  0.5651719372318738  0.85764575935044  0.44550007346653336  1.0000
  O   O22       1.0  0.8683196257665388  0.14235336853478495  0.5544993596436285  1.0000
  O   O23       1.0  0.9893262632561176  0.4454999591154448  0.14235456367529759  1.0000
  O   O24       1.0  0.5771824056637698  0.5545000294920827  0.8576453932937724  1.0000
