data_image0
_chemical_formula_structural       Cd4H12C16N32
_chemical_formula_sum              "Cd4 H12 C16 N32"
_cell_length_a       7.700676905294597
_cell_length_b       8.004471476430512
_cell_length_c       13.093847449094172
_cell_angle_alpha    90.000353215534
_cell_angle_beta     89.99964633810555
_cell_angle_gamma    109.4275732516719

_space_group_name_H-M_alt    "P 1"
_space_group_IT_number       1

loop_
  _space_group_symop_operation_xyz
  'x, y, z'

loop_
  _atom_site_type_symbol
  _atom_site_label
  _atom_site_symmetry_multiplicity
  _atom_site_fract_x
  _atom_site_fract_y
  _atom_site_fract_z
  _atom_site_occupancy
  Cd  Cd1       1.0  0.3640010375541181  0.7996623248012541  0.9234055204445042  1.0000
  Cd  Cd2       1.0  0.6359983389953426  0.7003376334139729  0.4234081812349473  1.0000
  Cd  Cd3       1.0  0.6359980700436197  0.2003381974829495  0.0765932133909075  1.0000
  Cd  Cd4       1.0  0.3640016009673772  0.29966155797853833  0.5765920800313893  1.0000
  H   H1        1.0  0.9105331063557928  0.36483568756929696  0.282669964047507  1.0000
  H   H2        1.0  0.08947317941471769  0.13516692193388746  0.7826707344941184  1.0000
  H   H3        1.0  0.08946822580201537  0.6351674779615238  0.7173295335062946  1.0000
  H   H4        1.0  0.9105337067902398  0.8648335632506559  0.21732876304461266  1.0000
  H   H5        1.0  0.2153749961674904  0.6064942890554761  0.3231326629785728  1.0000
  H   H6        1.0  0.784629989927012  0.8935075378411029  0.8231341780233805  1.0000
  H   H7        1.0  0.7846255036193027  0.39351020737283454  0.6768668345792364  1.0000
  H   H8        1.0  0.21537476746585332  0.1064942844305037  0.1768668469566421  1.0000
  H   H9        1.0  0.4008658761029692  0.7710409597292484  0.17212812739056463  1.0000
  H   H10       1.0  0.5991364135433841  0.7289597379143017  0.6721312238062608  1.0000
  H   H11       1.0  0.5991349919938286  0.22896088108493023  0.8278706064441297  1.0000
  H   H12       1.0  0.4008639904713007  0.27104077820355604  0.32787209233158876  1.0000
  C   C1        1.0  0.036856387062371654  0.5153581919155101  0.0530013648537206  1.0000
  C   C2        1.0  0.9631437867014655  0.9846402878725373  0.5530025757653193  1.0000
  C   C3        1.0  0.963142720535366  0.4846423303686933  0.9469973689816913  1.0000
  C   C4        1.0  0.03685392869817151  0.015356260276256303  0.4469976855000866  1.0000
  C   C5        1.0  0.9967695998454786  0.4483204331765336  0.22356205129820952  1.0000
  C   C6        1.0  0.0032310389779083995  0.05167910234814602  0.7235635843315722  1.0000
  C   C7        1.0  0.0032325646863639104  0.5516814014538839  0.7764366825341327  1.0000
  C   C8        1.0  0.9967671404797257  0.9483187705201955  0.2764382043704146  1.0000
  C   C9        1.0  0.16424762714990485  0.5788312565386776  0.2453801557748463  1.0000
  C   C10       1.0  0.8357571407752787  0.921171310251296  0.7453831170125441  1.0000
  C   C11       1.0  0.8357524085758784  0.4211719151729981  0.7546185780638481  1.0000
  C   C12       1.0  0.1642458561155067  0.07882919349323461  0.2546186716856553  1.0000
  C   C13       1.0  0.2653074836102789  0.6711488909756583  0.16295288365137853  1.0000
  C   C14       1.0  0.7346948785165424  0.8288517369249178  0.6629558642610079  1.0000
  C   C15       1.0  0.7346920880545013  0.3288529560193823  0.8370450864682015  1.0000
  C   C16       1.0  0.2653050614371324  0.1711474544762979  0.3370466881577273  1.0000
  N   N1        1.0  0.20137669868964264  0.6397067329034981  0.0671934621022245  1.0000
  N   N2        1.0  0.7986212341508505  0.8602931918485622  0.5671963293170705  1.0000
  N   N3        1.0  0.7986219448470919  0.3602924646640632  0.9328045080140726  1.0000
  N   N4        1.0  0.20137518480771627  0.13970336248979717  0.4328054593856265  1.0000
  N   N5        1.0  0.9340835784789833  0.41628716154168194  0.12744444289588594  1.0000
  N   N6        1.0  0.0659169872597047  0.08371297427142821  0.6274451055343421  1.0000
  N   N7        1.0  0.06591682555077931  0.5837133545616666  0.872555054654626  1.0000
  N   N8        1.0  0.9340842491410728  0.9162862109344162  0.37255439201216944  1.0000
  N   N9        1.0  0.5036056609066221  0.5968521269440145  0.8668959045731058  1.0000
  N   N10       1.0  0.49639416204868775  0.9031474017255265  0.36689677667784076  1.0000
  N   N11       1.0  0.4963925185540178  0.40314574592142094  0.1331051204114075  1.0000
  N   N12       1.0  0.5036075384161124  0.09685310819405399  0.6331027208703119  1.0000
  N   N13       1.0  0.4255305905035058  0.48923232597993405  0.8056533403240992  1.0000
  N   N14       1.0  0.5744689357746469  0.010766508819926903  0.3056547488116054  1.0000
  N   N15       1.0  0.5744680530241838  0.5107668715963385  0.19434692094459655  1.0000
  N   N16       1.0  0.42553230062613767  0.9892326763859173  0.6943447487349061  1.0000
  N   N17       1.0  0.34797662819624264  0.37699101526899176  0.7469386712761833  1.0000
  N   N18       1.0  0.6520233619020105  0.12300737322863851  0.2469394564970671  1.0000
  N   N19       1.0  0.6520250722685575  0.6230094946505885  0.2530608262719767  1.0000
  N   N20       1.0  0.347979635000847  0.8769931305042816  0.7530592773312679  1.0000
  N   N21       1.0  0.6418468604875682  0.9285171222367552  0.0156659531107266  1.0000
  N   N22       1.0  0.35815277583753863  0.5714824046557112  0.5156670396627803  1.0000
  N   N23       1.0  0.3581514147361419  0.0714847309478444  0.9843335444461447  1.0000
  N   N24       1.0  0.641847996499216  0.4285154558364042  0.4843324578820828  1.0000
  N   N25       1.0  0.7623804340371689  0.864334650464805  0.025072322627330803  1.0000
  N   N26       1.0  0.23761949629551532  0.6356622923096537  0.5250717950572508  1.0000
  N   N27       1.0  0.2376152483134462  0.1356672150902227  0.9749279386517316  1.0000
  N   N28       1.0  0.7623808119802363  0.3643342434658195  0.4749269387685048  1.0000
  N   N29       1.0  0.8785528903249967  0.8023862920597651  0.0336844380616625  1.0000
  N   N30       1.0  0.12144178623640291  0.697610740911415  0.5336837996537227  1.0000
  N   N31       1.0  0.12144528913565011  0.19761158080567046  0.9663165869228508  1.0000
  N   N32       1.0  0.8785559291662537  0.30238580723447944  0.46631569789420985  1.0000
