data_image0
_chemical_formula_structural       Fe2Ni4H80C100N8O18
_chemical_formula_sum              "Fe2 Ni4 H80 C100 N8 O18"
_cell_length_a       13.839443770684609
_cell_length_b       13.839487765597843
_cell_length_c       17.963276880246166
_cell_angle_alpha    103.35790300840304
_cell_angle_beta     103.35793931044877
_cell_angle_gamma    113.59317243316116

_space_group_name_H-M_alt    "P 1"
_space_group_IT_number       1

loop_
  _space_group_symop_operation_xyz
  'x, y, z'

loop_
  _atom_site_type_symbol
  _atom_site_label
  _atom_site_symmetry_multiplicity
  _atom_site_fract_x
  _atom_site_fract_y
  _atom_site_fract_z
  _atom_site_occupancy
  Fe  Fe1       1.0  0.7358721049700634  0.23621671622700569  0.4720985191359973  1.0000
  Fe  Fe2       1.0  0.48621640323812426  0.4858720015672021  0.9720979546269177  1.0000
  Ni  Ni1       1.0  0.3907195809875433  0.911917469276375  0.02472578768030342  1.0000
  Ni  Ni2       1.0  0.6340824237873194  0.11273124340606007  0.02467968994772467  1.0000
  Ni  Ni3       1.0  0.16192002127786506  0.14072126798408396  0.5247249944901071  1.0000
  Ni  Ni4       1.0  0.36273220604398665  0.3840818213819548  0.524678843385658  1.0000
  H   H1        1.0  0.44837995794789254  0.012121644727429333  0.9112310615856245  1.0000
  H   H2        1.0  0.46330077414634724  0.8990672874620106  0.9114669746120896  1.0000
  H   H3        1.0  0.2621290013598099  0.19838331357235012  0.41123006467945794  1.0000
  H   H4        1.0  0.14907408165598204  0.2133029221156022  0.411466253841148  1.0000
  H   H5        1.0  0.1496750885569682  0.7602560342018452  0.9387747631566938  1.0000
  H   H6        1.0  0.7886925714326339  0.1783196132917909  0.9382117228199433  1.0000
  H   H7        1.0  0.010259828874396125  0.8996781663649003  0.4387732438519123  1.0000
  H   H8        1.0  0.4283145693513858  0.5386887397650142  0.43820616118681943  1.0000
  H   H9        1.0  0.9784803112388969  0.7627908548025604  0.8586756003009911  1.0000
  H   H10       1.0  0.8796804279015403  0.09554150128923329  0.8580808044861855  1.0000
  H   H11       1.0  0.01279290991062951  0.7284836689382744  0.3586765823477904  1.0000
  H   H12       1.0  0.3455302907169227  0.629671157484637  0.3580719121150295  1.0000
  H   H13       1.0  0.19235508101412072  0.11804330481311369  0.9100635002548998  1.0000
  H   H14       1.0  0.7180991294652017  0.7922455051396401  0.9103259255277011  1.0000
  H   H15       1.0  0.36804597300018577  0.9423522290070778  0.4100621261011881  1.0000
  H   H16       1.0  0.04224248878011849  0.46810218266544723  0.4103292677277608  1.0000
  H   H17       1.0  0.35389699668267116  0.09906778984685628  0.9869421443629418  1.0000
  H   H18       1.0  0.6334988174847423  0.888193742192506  0.9871663396688888  1.0000
  H   H19       1.0  0.34907242100091196  0.1038962534162168  0.4869392477587837  1.0000
  H   H20       1.0  0.1381928309380242  0.38350258340884114  0.48716941540503456  1.0000
  H   H21       1.0  0.9939241636475342  0.034432286098223214  0.8345076777998273  1.0000
  H   H22       1.0  0.8406801460125948  0.8000408191963474  0.8345876315665707  1.0000
  H   H23       1.0  0.2844309717016528  0.743918854515357  0.3345082950004183  1.0000
  H   H24       1.0  0.0500344823691421  0.5906790409890591  0.3345840422801984  1.0000
  H   H25       1.0  0.9323226519552036  0.7990489523401862  0.7235923423043927  1.0000
  H   H26       1.0  0.7914881013725008  0.9243113568585957  0.723467777055646  1.0000
  H   H27       1.0  0.049046636933589086  0.6823211006119722  0.2235926972826974  1.0000
  H   H28       1.0  0.17431734393324655  0.5414939960834104  0.22347230602757406  1.0000
  H   H29       1.0  0.12608614334687462  0.9140561420726244  0.7148058236421164  1.0000
  H   H30       1.0  0.5889188003202362  0.80079964428365  0.7147583528455071  1.0000
  H   H31       1.0  0.16405360320310078  0.8760840176734563  0.21480720105834908  1.0000
  H   H32       1.0  0.050806955205452205  0.3389210066208861  0.2147585570136528  1.0000
  H   H33       1.0  0.21708510574455894  0.02375529895660141  0.6349034278033869  1.0000
  H   H34       1.0  0.41785652433853937  0.6112849388547589  0.6348310698748137  1.0000
  H   H35       1.0  0.2737534011947175  0.967082827045779  0.13490457110901133  1.0000
  H   H36       1.0  0.861293351052801  0.1678564413430339  0.13483258243638122  1.0000
  H   H37       1.0  0.9492180528338849  0.08312632250400079  0.5550889374783524  1.0000
  H   H38       1.0  0.6056636099005174  0.4716609245734063  0.5551435202500272  1.0000
  H   H39       1.0  0.3331228775419248  0.6992167433030546  0.05508756047080963  1.0000
  H   H40       1.0  0.7216672500843516  0.35565884256639196  0.05513989199181419  1.0000
  H   H41       1.0  0.8447126508516475  0.9763563767879406  0.6310916094914775  1.0000
  H   H42       1.0  0.786305852657179  0.654320499267442  0.6311583453414259  1.0000
  H   H43       1.0  0.2263514740854475  0.5947100568980445  0.13109027912582152  1.0000
  H   H44       1.0  0.9043235745740716  0.5363033622002648  0.13115934835396828  1.0000
  H   H45       1.0  0.6395061257687544  0.387902180021321  0.17344305127269177  1.0000
  H   H46       1.0  0.5341004708982168  0.7853972653108415  0.1734873915482495  1.0000
  H   H47       1.0  0.6379059295199169  0.38950316311647987  0.673443742341476  1.0000
  H   H48       1.0  0.03539805522067477  0.28409920220119733  0.6734845282723824  1.0000
  H   H49       1.0  0.6641192771156454  0.543095200658016  0.2929749142151508  1.0000
  H   H50       1.0  0.628977782977465  0.749935243086654  0.29315256960749286  1.0000
  H   H51       1.0  0.7930957321519327  0.41411468359214615  0.7929773520613352  1.0000
  H   H52       1.0  0.9999295948524323  0.3789708682320951  0.7931459243935991  1.0000
  H   H53       1.0  0.5585599432680723  0.4934646125368476  0.3861966726591107  1.0000
  H   H54       1.0  0.827729459823864  0.8928453673850216  0.3863767253433608  1.0000
  H   H55       1.0  0.7434596954595774  0.308557414234251  0.8861984863022697  1.0000
  H   H56       1.0  0.14283785138947994  0.5777222241326214  0.886373857085438  1.0000
  H   H57       1.0  0.403184609978247  0.14113194565100437  0.23929230368111837  1.0000
  H   H58       1.0  0.8361396331453718  0.09815893531553867  0.2393815270726378  1.0000
  H   H59       1.0  0.3911273357438887  0.15318499726709695  0.739290893990983  1.0000
  H   H60       1.0  0.34815942449377235  0.5861432459752436  0.7393833455697701  1.0000
  H   H61       1.0  0.9641833837523992  0.28508996048834956  0.518455704038992  1.0000
  H   H62       1.0  0.5538329200113166  0.23349041972779355  0.5184402731401646  1.0000
  H   H63       1.0  0.5350791279674142  0.7141796555536432  0.018449802323431238  1.0000
  H   H64       1.0  0.483486948034802  0.30383250198221395  0.018442856642970247  1.0000
  H   H65       1.0  0.9071316748963697  0.4198853195329096  0.6133431515093336  1.0000
  H   H66       1.0  0.7058067109154607  0.19353513236625025  0.613258919448029  1.0000
  H   H67       1.0  0.669881261055096  0.6571350988532245  0.11333910946407862  1.0000
  H   H68       1.0  0.4435351202556036  0.4558102464929021  0.11326059540402873  1.0000
  H   H69       1.0  0.7527891770726  0.452327443394772  0.5117747043950657  1.0000
  H   H70       1.0  0.7586846343270254  0.0597508773830386  0.5116491560787112  1.0000
  H   H71       1.0  0.70233032569071  0.5027974642442531  0.01177484541996431  1.0000
  H   H72       1.0  0.3097518171716445  0.5086878933648151  0.011648356378124454  1.0000
  H   H73       1.0  0.7156447452034129  0.33762440017499534  0.355071779933148  1.0000
  H   H74       1.0  0.6391812666139031  0.017847228717762773  0.3549708665014535  1.0000
  H   H75       1.0  0.5876260274175137  0.46564687668038846  0.8550703947198883  1.0000
  H   H76       1.0  0.267846822449897  0.38918125434501866  0.8549708176173993  1.0000
  H   H77       1.0  0.8466520628972702  0.23473267959659716  0.3591871222179037  1.0000
  H   H78       1.0  0.5121701533747682  0.12472539490747189  0.3591209760879437  1.0000
  H   H79       1.0  0.4847241306196393  0.5966447351151558  0.8591818814115583  1.0000
  H   H80       1.0  0.3747219412148224  0.26216827375922236  0.8591229941458848  1.0000
  C   C1        1.0  0.1539434867491209  0.8375546934500306  0.9313009410836983  1.0000
  C   C2        1.0  0.7771678761571363  0.09365818307649929  0.9309433166675305  1.0000
  C   C3        1.0  0.08755791354394657  0.9039456271862818  0.43130006078828836  1.0000
  C   C4        1.0  0.3436524564427684  0.5271643258789922  0.43093852478641986  1.0000
  C   C5        1.0  0.0596526495418315  0.8402182183332912  0.8866580526128444  1.0000
  C   C6        1.0  0.8267727059061728  0.04627729823205612  0.8862987515287344  1.0000
  C   C7        1.0  0.09022032489272651  0.8096550314587531  0.3866585712152856  1.0000
  C   C8        1.0  0.2962691279744972  0.5767673443766342  0.3862948747762687  1.0000
  C   C9        1.0  0.07067541688269316  0.9416717876800291  0.8777129798191865  1.0000
  C   C10       1.0  0.8070783462904884  0.9360185063686474  0.8776276845916798  1.0000
  C   C11       1.0  0.1916740705333523  0.8206761230169448  0.3777141847238994  1.0000
  C   C12       1.0  0.18601133031202718  0.5570753060596658  0.3776271122433528  1.0000
  C   C13       1.0  0.17799453518054506  0.03679336935087468  0.9152394903226053  1.0000
  C   C14       1.0  0.7375283553248906  0.8786026828618533  0.9153684442061663  1.0000
  C   C15       1.0  0.286795807929728  0.9279932550198354  0.4152384131355617  1.0000
  C   C16       1.0  0.12860066028458308  0.487530432385249  0.4153693660667841  1.0000
  C   C17       1.0  0.26882857877835414  0.02721266862812403  0.9586815404572135  1.0000
  C   C18       1.0  0.6901621101522794  0.9316674949289168  0.9587808897085353  1.0000
  C   C19       1.0  0.2772163807836917  0.01882889541220577  0.4586803832552704  1.0000
  C   C20       1.0  0.1816633122958179  0.4401622173813564  0.4587806570800623  1.0000
  C   C21       1.0  0.9731356552559305  0.9461703734328711  0.8256613573401809  1.0000
  C   C22       1.0  0.8526089377591006  0.87939589946879  0.8256444233814123  1.0000
  C   C23       1.0  0.19616970621297716  0.7231343609423462  0.3256614861279274  1.0000
  C   C24       1.0  0.129392880895189  0.6026091101730486  0.3256440879666869  1.0000
  C   C25       1.0  0.9246557804613859  0.8765681636293865  0.7309337361298278  1.0000
  C   C26       1.0  0.8064141493801317  0.8541282870340867  0.7309144615793884  1.0000
  C   C27       1.0  0.12656807169569356  0.6746549255065587  0.23093438775954672  1.0000
  C   C28       1.0  0.10413031916588979  0.5564147079506725  0.2309152668838621  1.0000
  C   C29       1.0  0.976927110083956  0.9359249653067184  0.6798592732524683  1.0000
  C   C30       1.0  0.7030023693010818  0.7437444716997491  0.6798396134727085  1.0000
  C   C31       1.0  0.18592360038427805  0.7269274838485132  0.1798590877760446  1.0000
  C   C32       1.0  0.9937474987837903  0.45300097904304715  0.1798390839795872  1.0000
  C   C33       1.0  0.08306398516431557  0.9496355298463258  0.6801195533404609  1.0000
  C   C34       1.0  0.5971551522952724  0.7304516206921933  0.6800657243844058  1.0000
  C   C35       1.0  0.19963233728360313  0.8330615849987025  0.18011968111730434  1.0000
  C   C36       1.0  0.980459961584337  0.34715637740193733  0.18006584282527882  1.0000
  C   C37       1.0  0.13442254163396675  0.010275439844811345  0.6360570221235022  1.0000
  C   C38       1.0  0.5016545166410395  0.6258183136443736  0.6359963886195955  1.0000
  C   C39       1.0  0.26027381926856924  0.8844231122177034  0.13605835716814607  1.0000
  C   C40       1.0  0.875825001902939  0.2516547067374192  0.1359981075571497  1.0000
  C   C41       1.0  0.9844976563380428  0.04439873341278429  0.5918945889566701  1.0000
  C   C42       1.0  0.6072803210944286  0.547280151797594  0.5919105211018377  1.0000
  C   C43       1.0  0.29439638265724  0.7344970976512499  0.09189421679037929  1.0000
  C   C44       1.0  0.7972847526452043  0.3572766528387065  0.09190902557635647  1.0000
  C   C45       1.0  0.9275072204941495  0.9847251048619018  0.6343974704558591  1.0000
  C   C46       1.0  0.706846265556571  0.6493835800177695  0.6344204720636811  1.0000
  C   C47       1.0  0.2347231507666123  0.6775053840008666  0.13439661960526192  1.0000
  C   C48       1.0  0.8993877253592543  0.456844334963826  0.13441862285716877  1.0000
  C   C49       1.0  0.5209162943792123  0.25533868196058784  0.19936611362481935  1.0000
  C   C50       1.0  0.6785542597868854  0.9439062781855655  0.19940536871297349  1.0000
  C   C51       1.0  0.5053387550923674  0.27091415426377835  0.6993649568317579  1.0000
  C   C52       1.0  0.19390902895129591  0.4285559868352421  0.6994055018494335  1.0000
  C   C53       1.0  0.593748821705887  0.36891728529816004  0.21451494013385294  1.0000
  C   C54       1.0  0.6208977487335261  0.8454961826287857  0.21458598329161305  1.0000
  C   C55       1.0  0.618919351429149  0.343744586535941  0.7145156715548283  1.0000
  C   C56       1.0  0.09549660172207544  0.370896424636257  0.7145831621036578  1.0000
  C   C57       1.0  0.6070768620213797  0.45483070573494194  0.28116545521888275  1.0000
  C   C58       1.0  0.6742082140753851  0.8263411295338586  0.2812902555960477  1.0000
  C   C59       1.0  0.7048295252748176  0.3570709759241242  0.7811651670380187  1.0000
  C   C60       1.0  0.07633826110714638  0.4242059262048345  0.7812884201108972  1.0000
  C   C61       1.0  0.5480883252353905  0.42783209556476737  0.33307383410107866  1.0000
  C   C62       1.0  0.785081988184281  0.9052930818324684  0.33321183305596963  1.0000
  C   C63       1.0  0.6778288702755688  0.2980839948749151  0.833075517558747  1.0000
  C   C64       1.0  0.15528945486997955  0.5350774982425577  0.8332098679008126  1.0000
  C   C65       1.0  0.473693073502794  0.31472595945685106  0.3181058599479273  1.0000
  C   C66       1.0  0.8444555252187698  0.0034421354555506313  0.3182226793734629  1.0000
  C   C67       1.0  0.5647226058938556  0.2236901410153465  0.8181062025842252  1.0000
  C   C68       1.0  0.2534373012789004  0.5944520979043233  0.8182233276530795  1.0000
  C   C69       1.0  0.46046880823308106  0.22904967610587343  0.2510225468398772  1.0000
  C   C70       1.0  0.7906003678787812  0.02195125605667428  0.2510965931671337  1.0000
  C   C71       1.0  0.4790479085222899  0.21046690046245  0.7510219427230569  1.0000
  C   C72       1.0  0.2719515417144293  0.540600758423743  0.7510966761558677  1.0000
  C   C73       1.0  0.5095039192965132  0.16356538308271965  0.12828112646883483  1.0000
  C   C74       1.0  0.618846840489212  0.9644480367616384  0.12821088804718542  1.0000
  C   C75       1.0  0.41356503276696793  0.259502298793393  0.6282814484936381  1.0000
  C   C76       1.0  0.21445001923441248  0.3688475879521393  0.6282091369448892  1.0000
  C   C77       1.0  0.408896781588055  0.28821884979628015  0.3741891894711813  1.0000
  C   C78       1.0  0.9652849944088902  0.08616008034279354  0.37437763902985216  1.0000
  C   C79       1.0  0.5382131960282948  0.15889555063179764  0.8741889422301767  1.0000
  C   C80       1.0  0.33615995448681696  0.7152840955710288  0.8743778785046814  1.0000
  C   C81       1.0  0.9059328207924864  0.31546033599370576  0.4964470939705095  1.0000
  C   C82       1.0  0.5901013652189275  0.18116507447194144  0.496385676462232  1.0000
  C   C83       1.0  0.5654536471071053  0.6559304683967824  0.9964417312506483  1.0000
  C   C84       1.0  0.431163294048602  0.34010182762077806  0.9963856307200842  1.0000
  C   C85       1.0  0.8754491427257634  0.38678772649077353  0.546604593307201  1.0000
  C   C86       1.0  0.6707655351205943  0.15998411102724228  0.5465174211869269  1.0000
  C   C87       1.0  0.6367854095552801  0.6254523336469903  0.04660186281315503  1.0000
  C   C88       1.0  0.40998289680922545  0.4207674848446318  0.046517275883665825  1.0000
  C   C89       1.0  0.7943863208713965  0.40415019530677676  0.49310297462199076  1.0000
  C   C90       1.0  0.6983962588457119  0.08922984923264493  0.49299009238159647  1.0000
  C   C91       1.0  0.6541506165882679  0.544391291607454  0.9931010937639185  1.0000
  C   C92       1.0  0.339228392916233  0.4483972020561994  0.9929883651393822  1.0000
  C   C93       1.0  0.774713569032784  0.3436276649927879  0.40986487152054724  1.0000
  C   C94       1.0  0.6348634563847142  0.06658557716744445  0.40976994586647925  1.0000
  C   C95       1.0  0.5936259220111636  0.524714007147118  0.9098621466430004  1.0000
  C   C96       1.0  0.31658433954942916  0.38486315802163784  0.9097694963196901  1.0000
  C   C97       1.0  0.8437591129124798  0.28901578268152434  0.4120338292206613  1.0000
  C   C98       1.0  0.5679191612746166  0.12330360819822787  0.41196831466712786  1.0000
  C   C99       1.0  0.5390099106193347  0.5937557641227116  0.9120294916393162  1.0000
  C   C100      1.0  0.3733014545483968  0.3179187948267598  0.9119685032952277  1.0000
  N   N1        1.0  0.25720075514985996  0.9292889945420627  0.9665695232436277  1.0000
  N   N2        1.0  0.7094776227500789  0.03737433825224937  0.9664482598787247  1.0000
  N   N3        1.0  0.17929264865298924  0.007201159464898449  0.4665673867539866  1.0000
  N   N4        1.0  0.28737170949896296  0.45947699290893945  0.46644615767409897  1.0000
  N   N5        1.0  0.08607917000739455  0.05683981391495506  0.5925821432499347  1.0000
  N   N6        1.0  0.5064146130252921  0.5356884324679215  0.5925416774924557  1.0000
  N   N7        1.0  0.3068394004813797  0.8360781657367086  0.09258385893306098  1.0000
  N   N8        1.0  0.7856937534788458  0.2564136993548944  0.09254033427813367  1.0000
  O   O1        1.0  0.44956730301960596  0.06176371803646679  0.12087201153127586  1.0000
  O   O2        1.0  0.671375704974011  0.05881978825623705  0.12074019958868833  1.0000
  O   O3        1.0  0.31176478858962026  0.19956928770212565  0.6208725363844678  1.0000
  O   O4        1.0  0.30882325199768695  0.42137910937786677  0.620739864740365  1.0000
  O   O5        1.0  0.5601467248794734  0.1951302125870883  0.08044647257126064  1.0000
  O   O6        1.0  0.5203885397626352  0.8850153144080724  0.08036282523845988  1.0000
  O   O7        1.0  0.44513313768766233  0.31014744962906354  0.5804460262415816  1.0000
  O   O8        1.0  0.13501971994773498  0.27039124486933735  0.5803625067349643  1.0000
  O   O9        1.0  0.33134346656367347  0.18811039947386396  0.35527005348669866  1.0000
  O   O10       1.0  0.023731808562594353  0.16776446984629703  0.3557182662870915  1.0000
  O   O11       1.0  0.4381055662208268  0.08134294209509112  0.8552701806125356  1.0000
  O   O12       1.0  0.41776128825323144  0.7737269792096484  0.8557215685500239  1.0000
  O   O13       1.0  0.43790414497914293  0.37289106424051255  0.43806420071690166  1.0000
  O   O14       1.0  0.000313424955194748  0.06507058601688707  0.4380534706884021  1.0000
  O   O15       1.0  0.6228825236642167  0.18790224296242306  0.9380651179637027  1.0000
  O   O16       1.0  0.31506518933198163  0.7503081922291415  0.9380555384192916  1.0000
  O   O17       1.0  0.47477899011107627  0.9746498295406525  0.9493579990094289  1.0000
  O   O18       1.0  0.22465144172493712  0.2247791526108998  0.4493568731492772  1.0000
