data_image0
_chemical_formula_structural       P2H26Pb2C36S2N4O12
_chemical_formula_sum              "P2 H26 Pb2 C36 S2 N4 O12"
_cell_length_a       7.202595416162127
_cell_length_b       11.145259389539396
_cell_length_c       11.317788377025785
_cell_angle_alpha    89.36282033465908
_cell_angle_beta     79.35140540630663
_cell_angle_gamma    84.71227949969222

_space_group_name_H-M_alt    "P 1"
_space_group_IT_number       1

loop_
  _space_group_symop_operation_xyz
  'x, y, z'

loop_
  _atom_site_type_symbol
  _atom_site_label
  _atom_site_symmetry_multiplicity
  _atom_site_fract_x
  _atom_site_fract_y
  _atom_site_fract_z
  _atom_site_occupancy
  P   P1        1.0  0.25625724942907613  0.17519487329736452  0.056297656618987404  1.0000
  P   P2        1.0  0.7437427713142882  0.8248004338583927  0.9437045484189569  1.0000
  H   H1        1.0  0.3615174717709877  0.5647078936250481  0.9780241269141997  1.0000
  H   H2        1.0  0.6384804467887263  0.43530184441073067  0.021971125099938107  1.0000
  H   H3        1.0  0.5543689194012059  0.4057930006095847  0.8390332839500374  1.0000
  H   H4        1.0  0.4456431475903529  0.5942167230052179  0.16096380850683542  1.0000
  H   H5        1.0  0.6511140433969017  0.45431631745360324  0.6228369102625422  1.0000
  H   H6        1.0  0.3488924961143383  0.5456925098319019  0.3771599688793827  1.0000
  H   H7        1.0  0.1089962789248133  0.08900031651407402  0.8058464474284791  1.0000
  H   H8        1.0  0.8909896035054173  0.9109950017088835  0.19415568312990672  1.0000
  H   H9        1.0  0.1144525760682455  0.1396962993026705  0.5910381411617891  1.0000
  H   H10       1.0  0.8855320329720584  0.8603080248051924  0.4089667076094017  1.0000
  H   H11       1.0  0.2880457828595695  0.9900483839855524  0.43147180982102634  1.0000
  H   H12       1.0  0.7119476547062858  0.009963153516707702  0.5685266124365569  1.0000
  H   H13       1.0  0.4880745977798214  0.7937209875850114  0.3832713794230144  1.0000
  H   H14       1.0  0.5119153542310854  0.20628515238948356  0.6167239767924855  1.0000
  H   H15       1.0  0.6251613954312559  0.6021470622595189  0.45264538828563167  1.0000
  H   H16       1.0  0.37483277985990776  0.3978590804316156  0.5473468115400237  1.0000
  H   H17       1.0  0.9070902341807708  0.5028521704291509  0.4330391105876998  1.0000
  H   H18       1.0  0.09291650411024933  0.4971359131705598  0.5669685433134646  1.0000
  H   H19       1.0  0.9735715775278775  0.28687984231020647  0.4770448663261888  1.0000
  H   H20       1.0  0.02643114966228669  0.7131064514817426  0.5229579832769318  1.0000
  H   H21       1.0  0.1313964462263115  0.14510902516315843  0.3104858168934257  1.0000
  H   H22       1.0  0.8686043173017167  0.8548808855045777  0.6895110486941718  1.0000
  H   H23       1.0  0.13322126731503658  0.4375623328902663  0.05788075133717291  1.0000
  H   H24       1.0  0.8667881631527122  0.5624365614941027  0.9421264782405674  1.0000
  H   H25       1.0  0.29171532331199757  0.27838003651496024  0.8819815228298893  1.0000
  H   H26       1.0  0.7082872906534305  0.7216170628967832  0.11802477267286797  1.0000
  Pb  Pb1       1.0  0.2500584660163696  0.871053930261752  0.9893536124043294  1.0000
  Pb  Pb2       1.0  0.7499519598902963  0.12893776712837732  0.01064738088787459  1.0000
  C   C1        1.0  0.4073649649392692  0.5821189119626738  0.8827640650775379  1.0000
  C   C2        1.0  0.592633216393402  0.4178890222131031  0.11723205606457301  1.0000
  C   C3        1.0  0.5131758915585962  0.49375612892863074  0.8045807814152255  1.0000
  C   C4        1.0  0.4868310294636869  0.5062499967590953  0.1954151939646992  1.0000
  C   C5        1.0  0.5653599342130349  0.5209266941866559  0.6844598037790562  1.0000
  C   C6        1.0  0.4346424855779674  0.4790812376750964  0.315535809917975  1.0000
  C   C7        1.0  0.505241294856468  0.634726916035895  0.6421016854625564  1.0000
  C   C8        1.0  0.49475546859741115  0.36528102058811385  0.35789372184633095  1.0000
  C   C9        1.0  0.4009722134891831  0.7192588981674107  0.728071861807699  1.0000
  C   C10       1.0  0.5990307014915928  0.2807454360356587  0.2719201922557701  1.0000
  C   C11       1.0  0.3352852661769247  0.8362262214773823  0.688424295321667  1.0000
  C   C12       1.0  0.6647143178564787  0.16378171528083393  0.31156989070891683  1.0000
  C   C13       1.0  0.17308679403577537  0.024240925802082796  0.7352948697486354  1.0000
  C   C14       1.0  0.82690499278047  0.9757624983881781  0.2647064774091917  1.0000
  C   C15       1.0  0.1802402768433495  0.052640905252175706  0.6133341002740452  1.0000
  C   C16       1.0  0.8197512674373613  0.9473643160905355  0.3866699096821478  1.0000
  C   C17       1.0  0.2749598539430451  0.9706649613104618  0.5272148988819723  1.0000
  C   C18       1.0  0.7250369297482564  0.02934296860599521  0.472784040353261  1.0000
  C   C19       1.0  0.35906697285691536  0.8600211061383973  0.5630405242215845  1.0000
  C   C20       1.0  0.6409282539800712  0.1399877306716277  0.4369559421440599  1.0000
  C   C21       1.0  0.46562723822557917  0.7730222920588266  0.4789257335813346  1.0000
  C   C22       1.0  0.5343636010588567  0.22698745486433586  0.5210677152298544  1.0000
  C   C23       1.0  0.5406849699921565  0.6661192002783454  0.5176020288075733  1.0000
  C   C24       1.0  0.459310762153322  0.33388603551922813  0.48239264388767117  1.0000
  C   C25       1.0  0.9677764045481183  0.4398863891322193  0.3602257291066096  1.0000
  C   C26       1.0  0.032229947172503215  0.5601043977421581  0.6397819455749669  1.0000
  C   C27       1.0  0.006949749488306599  0.3182361733404449  0.38458893917840703  1.0000
  C   C28       1.0  0.9930538852128092  0.6817537206926192  0.6154155349467417  1.0000
  C   C29       1.0  0.09423974894132668  0.23955940074564103  0.29150092887265805  1.0000
  C   C30       1.0  0.9057581005658687  0.7604313991412327  0.7085033457911578  1.0000
  C   C31       1.0  0.1375931226470755  0.28095719466993074  0.17289059159491424  1.0000
  C   C32       1.0  0.8624043251116544  0.7190363135222809  0.827111054904556  1.0000
  C   C33       1.0  0.09643608159190363  0.4032858057846198  0.14875483808391723  1.0000
  C   C34       1.0  0.9035685793582572  0.5967067907517745  0.8512494876732858  1.0000
  C   C35       1.0  0.015595459446174676  0.4823828081459993  0.24282589642245975  1.0000
  C   C36       1.0  0.9844090928846042  0.5176106827743967  0.7571819681878936  1.0000
  S   S1        1.0  0.9954960568713105  0.6419458419607906  0.21954643906199317  1.0000
  S   S2        1.0  0.004510135636380093  0.3580458560664753  0.7804559446568788  1.0000
  N   N1        1.0  0.3558426796148737  0.6920156344884135  0.8461171964249276  1.0000
  N   N2        1.0  0.6441544754687597  0.307989597184033  0.15387907308513601  1.0000
  N   N3        1.0  0.2462760828298727  0.9192919607297585  0.7716614523267326  1.0000
  N   N4        1.0  0.7537241505468799  0.08071146889378161  0.22833358205141258  1.0000
  O   O1        1.0  0.1097563633050243  0.10411775590538498  0.012134673696472498  1.0000
  O   O2        1.0  0.8902437609983593  0.8958766585432514  0.9878631095067406  1.0000
  O   O3        1.0  0.40815808402258813  0.09666917683054518  0.10535265872427864  1.0000
  O   O4        1.0  0.5918392500574043  0.9033252274225562  0.8946516436467604  1.0000
  O   O5        1.0  0.36079373830506256  0.2548669770540997  0.9510437056954332  1.0000
  O   O6        1.0  0.6392073339841247  0.7451310242205409  0.048962765882499995  1.0000
  O   O7        1.0  0.7896979093489946  0.6807240645479739  0.23270264839930382  1.0000
  O   O8        1.0  0.21030853581293477  0.3192658329730662  0.767298838484372  1.0000
  O   O9        1.0  0.09799316350204629  0.6605996784320993  0.09658662610126362  1.0000
  O   O10       1.0  0.9020104459022918  0.33939022398540436  0.9034134331159578  1.0000
  O   O11       1.0  0.07976001215855888  0.6931803910381265  0.3135430373959879  1.0000
  O   O12       1.0  0.9202493626562783  0.30681852179201746  0.6864544793843096  1.0000
