data_image0
_chemical_formula_structural       Zn2H36C34N8O10
_chemical_formula_sum              "Zn2 H36 C34 N8 O10"
_cell_length_a       7.70276225859773
_cell_length_b       10.696588569038049
_cell_length_c       11.965551041272894
_cell_angle_alpha    91.82413980585633
_cell_angle_beta     90.92133693967534
_cell_angle_gamma    111.4962454005298

_space_group_name_H-M_alt    "P 1"
_space_group_IT_number       1

loop_
  _space_group_symop_operation_xyz
  'x, y, z'

loop_
  _atom_site_type_symbol
  _atom_site_label
  _atom_site_symmetry_multiplicity
  _atom_site_fract_x
  _atom_site_fract_y
  _atom_site_fract_z
  _atom_site_occupancy
  Zn  Zn1       1.0  0.6789478949921488  0.6234328633040465  0.8457619890817298  1.0000
  Zn  Zn2       1.0  0.32103962289340165  0.37656462453396244  0.1542243119719942  1.0000
  H   H1        1.0  0.17677587008316206  0.931214877022498  0.6849052047865171  1.0000
  H   H2        1.0  0.8232118555896903  0.06877260540889552  0.315079863558509  1.0000
  H   H3        1.0  0.2548288680018445  0.7981572307200867  0.6994559013638479  1.0000
  H   H4        1.0  0.7451668028406429  0.20183035971042074  0.3005268794754414  1.0000
  H   H5        1.0  0.4477307267395999  0.003200816488274002  0.8186472069388273  1.0000
  H   H6        1.0  0.5522785889452564  0.9968030782048348  0.1813299115945313  1.0000
  H   H7        1.0  0.24565754098860984  0.991727144653247  0.8933082920424127  1.0000
  H   H8        1.0  0.754351304248715  0.008270705100727603  0.10666940697561961  1.0000
  H   H9        1.0  0.41391031510376325  0.8867727042550162  0.006898061609838618  1.0000
  H   H10       1.0  0.5861060248920111  0.11324308696207205  0.9930855807775174  1.0000
  H   H11       1.0  0.21582735613169038  0.7588616432180474  0.9497266030877968  1.0000
  H   H12       1.0  0.7841903214692322  0.24115491256144136  0.050265469291112204  1.0000
  H   H13       1.0  0.48688590381301095  0.31922493962724735  0.8501688404859137  1.0000
  H   H14       1.0  0.5131079649868936  0.6807674383912143  0.14982161001304206  1.0000
  H   H15       1.0  0.27299330204888145  0.13300019898057514  0.7260890206116386  1.0000
  H   H16       1.0  0.7270151692344485  0.8669974536578952  0.2738953504607551  1.0000
  H   H17       1.0  0.24665489296026516  0.43201296569463926  0.4999043772449453  1.0000
  H   H18       1.0  0.7533077710048202  0.5679829218355367  0.5000979062295698  1.0000
  H   H19       1.0  0.4654655097972197  0.6085433072863966  0.6342023829660305  1.0000
  H   H20       1.0  0.5344998403993628  0.3914605921374844  0.3658011321321695  1.0000
  H   H21       1.0  0.0797989980827083  0.20313481014726165  0.4449945790221149  1.0000
  H   H22       1.0  0.9201921537134722  0.7968603941847122  0.5550017647805774  1.0000
  H   H23       1.0  0.6841005429813689  0.4375164023162412  0.9892034622697636  1.0000
  H   H24       1.0  0.31589141837977763  0.562482866721112  0.010791394451558701  1.0000
  H   H25       1.0  0.8683950200661528  0.4748933804088082  0.9139275396285882  1.0000
  H   H26       1.0  0.13160685856542634  0.5251085746278861  0.08608023997525288  1.0000
  H   H27       1.0  0.25841795764943504  0.6967754441146571  0.43380945876638327  1.0000
  H   H28       1.0  0.7415805714285284  0.30322610533075084  0.5662115934412952  1.0000
  H   H29       1.0  0.07742433523269188  0.5004855700301079  0.3045762114877419  1.0000
  H   H30       1.0  0.9225689189351127  0.49951302046324053  0.6954420689287276  1.0000
  H   H31       1.0  0.9926875319508922  0.7504670469191697  0.0700357050885785  1.0000
  H   H32       1.0  0.007350689197970396  0.2495400821842965  0.9299732749345608  1.0000
  H   H33       1.0  0.1735294012670963  0.9578224639505992  0.18889686340175157  1.0000
  H   H34       1.0  0.8264878753866114  0.04217654909785301  0.8111112184703232  1.0000
  H   H35       1.0  0.3765206201852748  0.06014782370591121  0.3583817379677967  1.0000
  H   H36       1.0  0.6234942796414201  0.9398592524340262  0.6416249304978123  1.0000
  C   C1        1.0  0.9948207138100641  0.7715721454612636  0.7737941365557219  1.0000
  C   C2        1.0  0.005173755708213392  0.22842708565747932  0.22620245968408167  1.0000
  C   C3        1.0  0.1912741066524078  0.8600323324434247  0.7457931062546947  1.0000
  C   C4        1.0  0.8087253045561835  0.13995808806182453  0.2541965806573359  1.0000
  C   C5        1.0  0.31376861414035756  0.9325153364926353  0.8472610903040376  1.0000
  C   C6        1.0  0.6862491280100683  0.06748534141718213  0.1527244918032977  1.0000
  C   C7        1.0  0.34937508176556525  0.8355101896975443  0.9271293338595612  1.0000
  C   C8        1.0  0.6506430622185562  0.16449939546460976  0.0728607985649177  1.0000
  C   C9        1.0  0.47103103797380896  0.762746907281212  0.8834080503437107  1.0000
  C   C10       1.0  0.528970638768037  0.23725130336279687  0.11659037425316401  1.0000
  C   C11       1.0  0.43236686880567976  0.33997703872366  0.7711467948414067  1.0000
  C   C12       1.0  0.5676343742709516  0.6600158858634941  0.2288606044792658  1.0000
  C   C13       1.0  0.3123482017616936  0.23673242608851555  0.7023273689257364  1.0000
  C   C14       1.0  0.6876376154131093  0.7632547303500418  0.2976685057551833  1.0000
  C   C15       1.0  0.243362383154718  0.2675111018222724  0.6017607678416965  1.0000
  C   C16       1.0  0.7566333534090929  0.7324931746390675  0.3982352294946949  1.0000
  C   C17       1.0  0.29822752549823406  0.40388950288695474  0.5767968807688177  1.0000
  C   C18       1.0  0.7017543116916515  0.5961084500789798  0.423206845589  1.0000
  C   C19       1.0  0.41938311189275623  0.5015937329819454  0.6500367398605462  1.0000
  C   C20       1.0  0.5805883057476393  0.4983991102410173  0.3499681691403822  1.0000
  C   C21       1.0  0.11867488567352778  0.1663400828142728  0.5226478080815795  1.0000
  C   C22       1.0  0.8813354434117926  0.8336702025099217  0.4773513380741718  1.0000
  C   C23       1.0  0.2011431905936547  0.7114118173930211  0.3536075175876974  1.0000
  C   C24       1.0  0.7988541092803912  0.28859266260379013  0.6464161276489833  1.0000
  C   C25       1.0  0.10024051567008027  0.6035474589765714  0.28254288962107665  1.0000
  C   C26       1.0  0.8997592426118004  0.3964511599174473  0.7174755695575996  1.0000
  C   C27       1.0  0.05433826158999013  0.7428199341311984  0.1512053927952621  1.0000
  C   C28       1.0  0.945675488495027  0.2571778405253796  0.8488100694619191  1.0000
  C   C29       1.0  0.15423644020707894  0.8576774344785679  0.21716563317848878  1.0000
  C   C30       1.0  0.8457751538051994  0.14232346216478223  0.7828457143008976  1.0000
  C   C31       1.0  0.3570950176208854  0.9589317241024136  0.3856910593923715  1.0000
  C   C32       1.0  0.6429239497816467  0.041078354588329105  0.6143166770984152  1.0000
  C   C33       1.0  0.23582865175292517  0.8424290866267302  0.3190493801462537  1.0000
  C   C34       1.0  0.7641800731151986  0.15757671512162835  0.6809654312063742  1.0000
  N   N1        1.0  0.4869140548384578  0.4705010651532079  0.7453911827066122  1.0000
  N   N2        1.0  0.5130536254408965  0.5294947465397543  0.2546145798048514  1.0000
  N   N3        1.0  0.0581117517751935  0.03946765427642161  0.5431131807628374  1.0000
  N   N4        1.0  0.9418980004071144  0.9605314725278619  0.45688968255382173  1.0000
  N   N5        1.0  0.03315954190470192  0.6177927460919649  0.1807458376141469  1.0000
  N   N6        1.0  0.966852110759511  0.3822060224810074  0.8192696073093231  1.0000
  N   N7        1.0  0.44423065658032357  0.9401750005990909  0.47333007353235246  1.0000
  N   N8        1.0  0.5557785735719134  0.05983902343764671  0.5266783918779225  1.0000
  O   O1        1.0  0.893752571886125  0.6841257905595627  0.7011036548424343  1.0000
  O   O2        1.0  0.10623317773411858  0.31587144520393207  0.2988909505267969  1.0000
  O   O3        1.0  0.931107875294721  0.7848863471196453  0.8699557864953603  1.0000
  O   O4        1.0  0.0688903912958239  0.2151150044704337  0.1300376535644787  1.0000
  O   O5        1.0  0.7786269441972987  0.511377247485939  0.9484454806721772  1.0000
  O   O6        1.0  0.22136889776269428  0.4886249255444639  0.051553780101507095  1.0000
  O   O7        1.0  0.4949811854088252  0.6736082368700665  0.9477194306898227  1.0000
  O   O8        1.0  0.5050149489243408  0.3263919312871551  0.0522797574939702  1.0000
  O   O9        1.0  0.548173514519213  0.7859690307950018  0.7906654191920239  1.0000
  O   O10       1.0  0.4518294589811091  0.2140161699726733  0.2093316816875372  1.0000
