data_image0
_chemical_formula_structural       Cu4H32C24S4N8O16
_chemical_formula_sum              "Cu4 H32 C24 S4 N8 O16"
_cell_length_a       7.251754842375322
_cell_length_b       7.25110777952054
_cell_length_c       19.483286004351022
_cell_angle_alpha    96.48100776407782
_cell_angle_beta     96.47960107791681
_cell_angle_gamma    117.52898773017111

_space_group_name_H-M_alt    "P 1"
_space_group_IT_number       1

loop_
  _space_group_symop_operation_xyz
  'x, y, z'

loop_
  _atom_site_type_symbol
  _atom_site_label
  _atom_site_symmetry_multiplicity
  _atom_site_fract_x
  _atom_site_fract_y
  _atom_site_fract_z
  _atom_site_occupancy
  Cu  Cu1       1.0  0.8663790435655727  0.6352983613201032  0.9666623637474743  1.0000
  Cu  Cu2       1.0  0.3646976245849558  0.13362712811482413  0.5333475757776753  1.0000
  Cu  Cu3       1.0  0.133595006933227  0.36469151525353277  0.03333363135785561  1.0000
  Cu  Cu4       1.0  0.6353154473004209  0.8663771996440911  0.46665666656970484  1.0000
  H   H1        1.0  0.47675133540674614  0.34148372921611514  0.9287208769721574  1.0000
  H   H2        1.0  0.6585170753791089  0.5232912980149604  0.5712745499439151  1.0000
  H   H3        1.0  0.5232179404501877  0.6584903980314322  0.0712763702254975  1.0000
  H   H4        1.0  0.3414998661477853  0.4767097039347518  0.42872612035218083  1.0000
  H   H5        1.0  0.5687741623136447  0.3158636842363051  0.006253876819549504  1.0000
  H   H6        1.0  0.6841154979869799  0.4312324834333977  0.49374388074171793  1.0000
  H   H7        1.0  0.43120050016158007  0.6841215673282972  0.9937450415672799  1.0000
  H   H8        1.0  0.31589324217200226  0.5687716795753557  0.506256079491294  1.0000
  H   H9        1.0  0.650982699073623  0.2546965268205596  0.9356174110590061  1.0000
  H   H10       1.0  0.7452737516854953  0.34903925626223736  0.5643803268298271  1.0000
  H   H11       1.0  0.349002875222858  0.7452998182002868  0.06438287966479811  1.0000
  H   H12       1.0  0.25474541559613323  0.6509664304244109  0.43561907326007804  1.0000
  H   H13       1.0  0.2200115904598192  0.8090932618460371  0.9319841799146644  1.0000
  H   H14       1.0  0.1908084890980534  0.7799122673919427  0.5680014355071636  1.0000
  H   H15       1.0  0.7799609004987714  0.19089038753873663  0.06801407783637362  1.0000
  H   H16       1.0  0.8092021209107756  0.22008713941821162  0.43199841204198464  1.0000
  H   H17       1.0  0.24346759693601425  0.9576089962488438  0.006305272593301908  1.0000
  H   H18       1.0  0.04240379874946126  0.7565559444382683  0.49367594779867113  1.0000
  H   H19       1.0  0.7565157956850757  0.04238876472786761  0.9936908816515243  1.0000
  H   H20       1.0  0.9576105637818274  0.24345131321437916  0.5063228127409617  1.0000
  H   H21       1.0  0.1250336601799517  0.9771118168587093  0.9326727085339145  1.0000
  H   H22       1.0  0.022852523368648153  0.8749560525295548  0.5673079707997246  1.0000
  H   H23       1.0  0.8749435180421232  0.022873172326754298  0.06732013792219502  1.0000
  H   H24       1.0  0.9771537108344361  0.12503708883764378  0.4326930013202245  1.0000
  H   H25       1.0  0.9123078932651295  0.5545810416542452  0.8104465498315039  1.0000
  H   H26       1.0  0.4453507011804164  0.08769080628173498  0.6895791837210439  1.0000
  H   H27       1.0  0.08769167916054944  0.4454357901172584  0.1895530337802498  1.0000
  H   H28       1.0  0.5546643618537882  0.9123322936324807  0.3104202226167203  1.0000
  H   H29       1.0  0.9859815742110385  0.5867913741388973  0.6811160662519242  1.0000
  H   H30       1.0  0.41322590458579367  0.013982776767242907  0.8189130744601344  1.0000
  H   H31       1.0  0.01403917407641593  0.4132205612104157  0.318881586192667  1.0000
  H   H32       1.0  0.5867998973966095  0.9860451870675957  0.18109002089736492  1.0000
  C   C1        1.0  0.08427109352410868  0.37437811309865043  0.8157715660289214  1.0000
  C   C2        1.0  0.625637188735041  0.915756491915978  0.6842364744184196  1.0000
  C   C3        1.0  0.9157193725332959  0.6256228045966026  0.1842249875607891  1.0000
  C   C4        1.0  0.37438400996263965  0.08424762849818279  0.3157634571476465  1.0000
  C   C5        1.0  0.9987252951166923  0.48738803125489477  0.784341181852362  1.0000
  C   C6        1.0  0.512573954886726  0.001272121784332111  0.7156903308194345  1.0000
  C   C7        1.0  0.001277866749326417  0.5126191378027867  0.2156545713888534  1.0000
  C   C8        1.0  0.4874284970532443  0.9987387549174684  0.2843183725544165  1.0000
  C   C9        1.0  0.036606020995819166  0.5031087325407667  0.7151776403570835  1.0000
  C   C10       1.0  0.49688027766605813  0.9633793156818768  0.7848498405752552  1.0000
  C   C11       1.0  0.9634072893075895  0.4969079469203662  0.2848193936227688  1.0000
  C   C12       1.0  0.5031282169479638  0.036644161020753095  0.21515805058409407  1.0000
  C   C13       1.0  0.14874904459740884  0.4007036845080093  0.6948078495280897  1.0000
  C   C14       1.0  0.5993239339854031  0.8512613861621999  0.8052029615970397  1.0000
  C   C15       1.0  0.851245893286979  0.5993005663897077  0.3051931153356122  1.0000
  C   C16       1.0  0.40068378708600244  0.14876352562335168  0.1948013621207778  1.0000
  C   C17       1.0  0.09451998024962192  0.324804451273188  0.8869153693842763  1.0000
  C   C18       1.0  0.675238699385403  0.9054980010591506  0.6131055142720571  1.0000
  C   C19       1.0  0.9054666587297006  0.6751915692938649  0.1130772503705515  1.0000
  C   C20       1.0  0.32477787378163475  0.09448446260032736  0.3869057110751228  1.0000
  C   C21       1.0  0.21291487208823404  0.37670849508192106  0.6262531868810655  1.0000
  C   C22       1.0  0.6233514709657441  0.7870542583716824  0.8737585364904277  1.0000
  C   C23       1.0  0.7870960294286249  0.6233002882423618  0.3737439581445443  1.0000
  C   C24       1.0  0.3766546434542661  0.21292967827179862  0.1262492581562782  1.0000
  S   S1        1.0  0.20790605544770102  0.2870353000060533  0.7603378166681055  1.0000
  S   S2        1.0  0.7130073658647689  0.7921561185555459  0.7396781365241338  1.0000
  S   S3        1.0  0.7920892368256602  0.712964068197003  0.23965989147227165  1.0000
  S   S4        1.0  0.2869943441569518  0.20785319656727805  0.2603309902517736  1.0000
  N   N1        1.0  0.612002889644053  0.3615450740057041  0.9596510689480696  1.0000
  N   N2        1.0  0.6384258281166028  0.3880022779397764  0.5403449579969222  1.0000
  N   N3        1.0  0.38796897803126024  0.6384401607786072  0.040347226364261204  1.0000
  N   N4        1.0  0.36158753376088976  0.6119971027030643  0.459654482625929  1.0000
  N   N5        1.0  0.1412445652425162  0.8692994507157719  0.9596754199948094  1.0000
  N   N6        1.0  0.1306816952756763  0.8587469905536267  0.5403122692577897  1.0000
  N   N7        1.0  0.8587351290942138  0.13069354197555327  0.04031989041754971  1.0000
  N   N8        1.0  0.8693289576643934  0.1412524592041322  0.45968860829216857  1.0000
  O   O1        1.0  0.01574381579638376  0.3936647105642947  0.9331768542817044  1.0000
  O   O2        1.0  0.6063257456424221  0.9842127107762618  0.5668395257877706  1.0000
  O   O3        1.0  0.9842209581250996  0.6063234037728759  0.06681408999936171  1.0000
  O   O4        1.0  0.39370049241149735  0.015775751253521295  0.43316461113199267  1.0000
  O   O5        1.0  0.18817258032883188  0.21902276353147693  0.9003629278010054  1.0000
  O   O6        1.0  0.7810577977101616  0.8119094069835027  0.59967565877664  1.0000
  O   O7        1.0  0.8118174884083588  0.7809829939108325  0.09963585251122711  1.0000
  O   O8        1.0  0.21895236823508668  0.1880683575055072  0.4003361596651801  1.0000
  O   O9        1.0  0.16845068479403116  0.46284361666827306  0.5785732451048915  1.0000
  O   O10       1.0  0.5371940078947189  0.8315063955480466  0.9214370344318042  1.0000
  O   O11       1.0  0.8315537451041735  0.5371604030641349  0.42142294801414704  1.0000
  O   O12       1.0  0.4627972817634785  0.16846146461578823  0.07856339404142433  1.0000
  O   O13       1.0  0.3066301338663635  0.2632833277928981  0.6209420721815775  1.0000
  O   O14       1.0  0.7367910604765271  0.6933657145738296  0.8790752236295704  1.0000
  O   O15       1.0  0.6933832837651507  0.7367334590372462  0.3790575368002819  1.0000
  O   O16       1.0  0.2631923950255057  0.3066177871940922  0.12092037641546942  1.0000
