data_image0
_chemical_formula_structural       Li4H14C8O12
_chemical_formula_sum              "Li4 H14 C8 O12"
_cell_length_a       5.108767978279279
_cell_length_b       7.416633738666583
_cell_length_c       9.365767147583565
_cell_angle_alpha    105.26177237371324
_cell_angle_beta     94.97573283270194
_cell_angle_gamma    87.19299938149162

_space_group_name_H-M_alt    "P 1"
_space_group_IT_number       1

loop_
  _space_group_symop_operation_xyz
  'x, y, z'

loop_
  _atom_site_type_symbol
  _atom_site_label
  _atom_site_symmetry_multiplicity
  _atom_site_fract_x
  _atom_site_fract_y
  _atom_site_fract_z
  _atom_site_occupancy
  Li  Li1       1.0  0.5543106913197632  0.8156015024417441  0.39733210002538755  1.0000
  Li  Li2       1.0  0.44568220348843096  0.1844002452851683  0.6026688985044545  1.0000
  Li  Li3       1.0  0.060897561790909494  0.22511211582789056  0.8711693069489004  1.0000
  Li  Li4       1.0  0.9391033093663383  0.7748893547325151  0.12883000673046044  1.0000
  H   H1        1.0  0.8868003786619738  0.8016115208186179  0.6482393461382829  1.0000
  H   H2        1.0  0.11320202822032142  0.19838830455906734  0.3517661083279862  1.0000
  H   H3        1.0  0.0792800401959113  0.6682435001684014  0.749034936309606  1.0000
  H   H4        1.0  0.9207304635758291  0.331754735983992  0.2509653414199349  1.0000
  H   H5        1.0  0.30019086064631034  0.5009104223376895  0.5207348623303433  1.0000
  H   H6        1.0  0.6998061428768025  0.4990898747471917  0.4792618018880007  1.0000
  H   H7        1.0  0.5996680718219878  0.0843827879416068  0.8822300465655176  1.0000
  H   H8        1.0  0.40033261385622865  0.9156158640984843  0.1177696914677001  1.0000
  H   H9        1.0  0.766159811750434  0.1014046159345625  0.032558831157388085  1.0000
  H   H10       1.0  0.23384277794321662  0.8985952927585926  0.9674434483975817  1.0000
  H   H11       1.0  0.2942799215412535  0.46742442298317854  0.12016896676436066  1.0000
  H   H12       1.0  0.7057229119008568  0.5325755967972654  0.8798290795755436  1.0000
  H   H13       1.0  0.4778057973125414  0.33115342775088413  0.01035008725696684  1.0000
  H   H14       1.0  0.5221968519843827  0.6688451411116675  0.9896497587155155  1.0000
  C   C1        1.0  0.2841569005911353  0.8776877147396078  0.6908916526613995  1.0000
  C   C2        1.0  0.7158421301554797  0.1223152621444044  0.30910681174988514  1.0000
  C   C3        1.0  0.07918715396098007  0.7280910287924413  0.6532903284179952  1.0000
  C   C4        1.0  0.9208156198778564  0.2719103308186065  0.3467101515043965  1.0000
  C   C5        1.0  0.10879813721094679  0.572447709180672  0.510927608749107  1.0000
  C   C6        1.0  0.8912010776808614  0.42755671862123984  0.4890690560295995  1.0000
  C   C7        1.0  0.10282317147124327  0.647865322351521  0.3732634731626093  1.0000
  C   C8        1.0  0.8971755532559483  0.35213614807095445  0.6267389074887861  1.0000
  O   O1        1.0  0.7501614437506419  0.153292257574499  0.9440038339011071  1.0000
  O   O2        1.0  0.24984114460916373  0.8467062835162266  0.055997070375141816  1.0000
  O   O3        1.0  0.2927271268731388  0.37130405800973415  0.0243529669369735  1.0000
  O   O4        1.0  0.7072756456318531  0.6286959339988912  0.9756461377066972  1.0000
  O   O5        1.0  0.3070084141672424  0.6217014418594077  0.30001536124582634  1.0000
  O   O6        1.0  0.692982641564157  0.37830317979354083  0.6999861632946606  1.0000
  O   O7        1.0  0.43083018371802234  0.9002928029065913  0.5947603373100351  1.0000
  O   O8        1.0  0.5691665773904618  0.09970875069342357  0.4052419354020956  1.0000
  O   O9        1.0  0.8953570623497669  0.7302462962979133  0.33443422119729155  1.0000
  O   O10       1.0  0.1046358920616939  0.26975411159840224  0.6655643437500559  1.0000
  O   O11       1.0  0.29378907609054034  0.9855569170678821  0.8228470052216043  1.0000
  O   O12       1.0  0.7062115539859235  0.0144471776100872  0.17715929223026458  1.0000
