data_image0
_chemical_formula_structural       Li2H34C38O6
_chemical_formula_sum              "Li2 H34 C38 O6"
_cell_length_a       7.818203094682607
_cell_length_b       8.414692172775878
_cell_length_c       12.540956908993767
_cell_angle_alpha    87.98020257044901
_cell_angle_beta     83.08954455408657
_cell_angle_gamma    72.9289017395222

_space_group_name_H-M_alt    "P 1"
_space_group_IT_number       1

loop_
  _space_group_symop_operation_xyz
  'x, y, z'

loop_
  _atom_site_type_symbol
  _atom_site_label
  _atom_site_symmetry_multiplicity
  _atom_site_fract_x
  _atom_site_fract_y
  _atom_site_fract_z
  _atom_site_occupancy
  Li  Li1       1.0  0.9820551247939163  0.38070412715485696  0.5747152567365887  1.0000
  Li  Li2       1.0  0.017941868993325692  0.6192867598285332  0.4252813080679942  1.0000
  H   H1        1.0  0.2484391447069214  0.3326099880447372  0.6898439472500115  1.0000
  H   H2        1.0  0.7515537999863114  0.6673933256736715  0.31015741642303146  1.0000
  H   H3        1.0  0.04656310907027014  0.4704057412564565  0.8231187888186896  1.0000
  H   H4        1.0  0.9534338197701547  0.5296050954290477  0.17688129883212866  1.0000
  H   H5        1.0  0.9520091234777084  0.6795200367072523  0.969501981134556  1.0000
  H   H6        1.0  0.04799388050291501  0.3204958516162008  0.030494338052491805  1.0000
  H   H7        1.0  0.17397613965157177  0.809979122770244  0.02830903666972521  1.0000
  H   H8        1.0  0.8260305826921835  0.19002932036685385  0.971686378524339  1.0000
  H   H9        1.0  0.48981839230825835  0.7258317670249139  0.9395532847082536  1.0000
  H   H10       1.0  0.5101911770545015  0.2741679722215125  0.060444511634891306  1.0000
  H   H11       1.0  0.5840528831661871  0.5138684421367755  0.7954813768402431  1.0000
  H   H12       1.0  0.4159476940765785  0.4861312087618258  0.20451630528129527  1.0000
  H   H13       1.0  0.5334545724111379  0.09838817750881647  0.5687664847129454  1.0000
  H   H14       1.0  0.46654809758202737  0.9016090013417323  0.4312295022388497  1.0000
  H   H15       1.0  0.7194773519771686  0.8137588912256246  0.6062216338356097  1.0000
  H   H16       1.0  0.2805184973941408  0.18623946423502952  0.3937780316201724  1.0000
  H   H17       1.0  0.7883499938951388  0.7316559156986668  0.7931186625955038  1.0000
  H   H18       1.0  0.2116377417298523  0.2683436072428335  0.2068807925838385  1.0000
  H   H19       1.0  0.6683547278090245  0.9398950607532155  0.941349576005628  1.0000
  H   H20       1.0  0.33164030611983725  0.06010578235495959  0.05864849795406709  1.0000
  H   H21       1.0  0.4833202877684784  0.2253027751240281  0.9020103330156105  1.0000
  H   H22       1.0  0.5166769071141956  0.7746993372555481  0.09798675003884941  1.0000
  H   H23       1.0  0.23467959952176193  0.8431521906061689  0.5450816920074502  1.0000
  H   H24       1.0  0.7653325508177531  0.15684756905552172  0.4549214900811336  1.0000
  H   H25       1.0  0.09384359575810228  0.7938368149531665  0.6574231609602705  1.0000
  H   H26       1.0  0.9061655082243617  0.20616042248410335  0.3425779190011653  1.0000
  H   H27       1.0  0.307916330973356  0.8071832338383372  0.6771090710086511  1.0000
  H   H28       1.0  0.6920939961727796  0.19281027212765878  0.3228943961969222  1.0000
  H   H29       1.0  0.95816261322701  0.21421884105185995  0.7793617706150401  1.0000
  H   H30       1.0  0.04183831056312226  0.7857758218278901  0.2206391920772717  1.0000
  H   H31       1.0  0.17210405492144076  0.08259431847323376  0.8121986014564443  1.0000
  H   H32       1.0  0.8278943771840093  0.9174040566837787  0.18780724701657903  1.0000
  H   H33       1.0  0.9889657721661963  0.9991104325142499  0.8136069579272558  1.0000
  H   H34       1.0  0.0110364377188432  0.0008842423704109995  0.1863947044582517  1.0000
  C   C1        1.0  0.3207502430333165  0.49251289882057125  0.5284946847220198  1.0000
  C   C2        1.0  0.6792374890768968  0.5074866255587549  0.4715031759137034  1.0000
  C   C3        1.0  0.619862874209488  0.437836209022599  0.5803478034703744  1.0000
  C   C4        1.0  0.3801304064867922  0.5621621209904146  0.4196520571426063  1.0000
  C   C5        1.0  0.44202673899152967  0.42665253293937144  0.6033470023237018  1.0000
  C   C6        1.0  0.5579653238132495  0.5733495263881918  0.39665286286057017  1.0000
  C   C7        1.0  0.37502954286696166  0.35377176067029836  0.7070192145113126  1.0000
  C   C8        1.0  0.6249646162029948  0.6462278251713868  0.2929805500468348  1.0000
  C   C9        1.0  0.32186600881359345  0.47817206681951047  0.798806695793843  1.0000
  C   C10       1.0  0.6781303147249459  0.5218287868557495  0.20119367240266686  1.0000
  C   C11       1.0  0.1443385908530105  0.5264892232721362  0.8489038371626804  1.0000
  C   C12       1.0  0.8556594876755099  0.4735141427793719  0.15109554165235292  1.0000
  C   C13       1.0  0.09051434055476909  0.645165281844079  0.931017033408999  1.0000
  C   C14       1.0  0.9094872532258692  0.35484310680318737  0.0689827584584961  1.0000
  C   C15       1.0  0.21436542475755976  0.7177219475101778  0.964203774978678  1.0000
  C   C16       1.0  0.7856411734811102  0.282279007955637  0.0357958125890363  1.0000
  C   C17       1.0  0.3917639112035046  0.6698479545296151  0.9149544014300091  1.0000
  C   C18       1.0  0.6082409302878061  0.3301504892788642  0.0850453782473863  1.0000
  C   C19       1.0  0.4455045763653089  0.5511280345525047  0.8335319288655043  1.0000
  C   C20       1.0  0.5544998538899932  0.4488716545175605  0.16646546052022873  1.0000
  C   C21       1.0  0.563483799473367  0.0635919106857727  0.6506315018836659  1.0000
  C   C22       1.0  0.4365146133008082  0.9364064723792607  0.349365576599503  1.0000
  C   C23       1.0  0.6675321994814  0.9027664535790901  0.671883309972884  1.0000
  C   C24       1.0  0.33246195607378576  0.09723313370041349  0.3281148600416444  1.0000
  C   C25       1.0  0.7063281954042894  0.8570509275912809  0.776536235845569  1.0000
  C   C26       1.0  0.2936633914758602  0.14294863424058946  0.22346212932616544  1.0000
  C   C27       1.0  0.6392567908913097  0.9736095675395685  0.8591691376091078  1.0000
  C   C28       1.0  0.36073695694264524  0.026391263563702694  0.1408282366573843  1.0000
  C   C29       1.0  0.5346773619627924  0.13451132183210038  0.8374199127219059  1.0000
  C   C30       1.0  0.46531936051003014  0.8654882916139568  0.1625772648636215  1.0000
  C   C31       1.0  0.11368855595508623  0.04121080502033439  0.6569423286547574  1.0000
  C   C32       1.0  0.8863265707806817  0.9587877362652361  0.3430614540246708  1.0000
  C   C33       1.0  0.1928883954736023  0.8609377744596927  0.6312540706070209  1.0000
  C   C34       1.0  0.8071228764922295  0.13906072937333386  0.3687492075364034  1.0000
  C   C35       1.0  0.05189729087440042  0.08851831814674677  0.7725226737973756  1.0000
  C   C36       1.0  0.9481058026564853  0.9114776104098464  0.2274812843487197  1.0000
  C   C37       1.0  0.4965082962682884  0.18234429773163896  0.7328284007619387  1.0000
  C   C38       1.0  0.5034888321683724  0.8176540726095708  0.2671687752998295  1.0000
  O   O1        1.0  0.15326604073191427  0.5012697391126932  0.5435788240198178  1.0000
  O   O2        1.0  0.846725479702222  0.4987260806808108  0.456419634159225  1.0000
  O   O3        1.0  0.7391745961110061  0.3948048430493286  0.6441631171048031  1.0000
  O   O4        1.0  0.2608216539519644  0.6051922714632098  0.3558341550117988  1.0000
  O   O5        1.0  0.1030831131759626  0.14786317551822484  0.5853870520571434  1.0000
  O   O6        1.0  0.8969380327983245  0.8521366710534721  0.4146178387966657  1.0000
