data_image0
_chemical_formula_structural       K4H16C16Br4N8O12
_chemical_formula_sum              "K4 H16 C16 Br4 N8 O12"
_cell_length_a       7.268788032060258
_cell_length_b       8.047587914164534
_cell_length_c       13.282967760457321
_cell_angle_alpha    97.56602279148032
_cell_angle_beta     89.9995648269487
_cell_angle_gamma    89.9998670828552

_space_group_name_H-M_alt    "P 1"
_space_group_IT_number       1

loop_
  _space_group_symop_operation_xyz
  'x, y, z'

loop_
  _atom_site_type_symbol
  _atom_site_label
  _atom_site_symmetry_multiplicity
  _atom_site_fract_x
  _atom_site_fract_y
  _atom_site_fract_z
  _atom_site_occupancy
  K   K1        1.0  0.05374699427190421  0.3032891063032964  0.8050588376661028  1.0000
  K   K2        1.0  0.5537418538912391  0.19669257705965043  0.6949230309338719  1.0000
  K   K3        1.0  0.9462531837495619  0.6967232188236565  0.19493909940848658  1.0000
  K   K4        1.0  0.4462528213869276  0.8032709352443064  0.3050498704122406  1.0000
  H   H1        1.0  0.7952531627109067  0.9358816106312348  0.48477661900255253  1.0000
  H   H2        1.0  0.2952533906705029  0.5641192582634317  0.015222536856391912  1.0000
  H   H3        1.0  0.20473876083489273  0.0641181660321735  0.5152240653180941  1.0000
  H   H4        1.0  0.7047495388555731  0.43588805544074205  0.9847742412132878  1.0000
  H   H5        1.0  0.0147724159887161  0.8407291161692925  0.483561294462824  1.0000
  H   H6        1.0  0.5147823002975613  0.6592676285973413  0.016438655903940044  1.0000
  H   H7        1.0  0.9852167560851158  0.15926941495175842  0.5164370303811128  1.0000
  H   H8        1.0  0.48523025939660863  0.3407333882652068  0.9835658931153833  1.0000
  H   H9        1.0  0.7315663492617973  0.42814630490249067  0.4915855400249997  1.0000
  H   H10       1.0  0.23157215911221127  0.07184969758487367  0.008418448762427002  1.0000
  H   H11       1.0  0.268428325793991  0.5718484629955541  0.5084132326606083  1.0000
  H   H12       1.0  0.7684335218060525  0.9281613314957653  0.9915914287901659  1.0000
  H   H13       1.0  0.8816881867644071  0.7292008445235824  0.7525984604114486  1.0000
  H   H14       1.0  0.38168459955550554  0.770803603107375  0.7473977834581834  1.0000
  H   H15       1.0  0.1183092397839332  0.2707926698511401  0.24740021067604812  1.0000
  H   H16       1.0  0.6183142026827753  0.2292149763294803  0.2526044247310964  1.0000
  C   C1        1.0  0.8824029461805551  0.8603639477302635  0.6261814127938765  1.0000
  C   C2        1.0  0.38241574832159136  0.6396304667976905  0.8738147678727093  1.0000
  C   C3        1.0  0.11759035314176461  0.13963333518011473  0.37381530518874945  1.0000
  C   C4        1.0  0.6175995628942559  0.36036805630965324  0.12618581480564475  1.0000
  C   C5        1.0  0.7962070202260778  0.6695282716015214  0.46407443841031454  1.0000
  C   C6        1.0  0.2962035644095167  0.8304738212172255  0.03593234126599046  1.0000
  C   C7        1.0  0.2037835275745508  0.330471505064068  0.5359262459132809  1.0000
  C   C8        1.0  0.7037993650380726  0.16953219910677567  0.9640756246633447  1.0000
  C   C9        1.0  0.8210161722410875  0.5605811014416276  0.6271343812565038  1.0000
  C   C10       1.0  0.32102139329534657  0.9394122012108427  0.8728770132682516  1.0000
  C   C11       1.0  0.1789950117025327  0.43941991276569325  0.3728709203958901  1.0000
  C   C12       1.0  0.6789952936916349  0.060583825486062906  0.12712035570221056  1.0000
  C   C13       1.0  0.8726511354011777  0.8329547388860589  0.5123890861499663  1.0000
  C   C14       1.0  0.3726594925688147  0.6670446887782191  0.9876165742095824  1.0000
  C   C15       1.0  0.1273421638768042  0.16704628597928917  0.4876132050202104  1.0000
  C   C16       1.0  0.6273503156533878  0.33295508254198586  0.012385615333030816  1.0000
  Br  Br1       1.0  0.1082344596352414  0.3167449395597047  0.07512499369737215  1.0000
  Br  Br2       1.0  0.6082687098131884  0.18323139259546653  0.42487940286770975  1.0000
  Br  Br3       1.0  0.8917258217852081  0.683225987615984  0.9248786224807406  1.0000
  Br  Br4       1.0  0.39172321371388824  0.8167759025242634  0.5751226436364052  1.0000
  N   N1        1.0  0.7843987193675872  0.5437513423040913  0.5242259230926865  1.0000
  N   N2        1.0  0.28440380378124536  0.9562521392335198  0.9757766567586263  1.0000
  N   N3        1.0  0.2155959556425771  0.4562509307632041  0.47577797492702006  1.0000
  N   N4        1.0  0.715604628697655  0.04375265147952229  0.024224433895575707  1.0000
  N   N5        1.0  0.8694748965905532  0.7182499610718481  0.6739849361286689  1.0000
  N   N6        1.0  0.3694742857562546  0.7817469802765801  0.8260175241444119  1.0000
  N   N7        1.0  0.1305239056690297  0.28175357348010266  0.326016805584054  1.0000
  N   N8        1.0  0.6305327709876637  0.2182490331485241  0.1739836079972933  1.0000
  O   O1        1.0  0.809557394433419  0.4390271881328688  0.6748688967038136  1.0000
  O   O2        1.0  0.30956420221706793  0.060973684024432394  0.8251293073091904  1.0000
  O   O3        1.0  0.19044003213924296  0.560973865957493  0.3251251155261486  1.0000
  O   O4        1.0  0.690434599986837  0.9390248045627133  0.17488105959614594  1.0000
  O   O5        1.0  0.7529240043114812  0.644796202476208  0.37334876338596973  1.0000
  O   O6        1.0  0.2529301975412679  0.8551998052451425  0.1266448989156005  1.0000
  O   O7        1.0  0.24707067075284073  0.35519982425562097  0.6266486056316085  1.0000
  O   O8        1.0  0.7470823621465855  0.14479869926466904  0.8733609521795247  1.0000
  O   O9        1.0  0.9049011892120263  0.0005617774741181988  0.6743117102599713  1.0000
  O   O10       1.0  0.4049055662271641  0.4994463239053602  0.8256836845701375  1.0000
  O   O11       1.0  0.09509623733315921  0.9994304807242286  0.3256876118654263  1.0000
  O   O12       1.0  0.5951152479938955  0.5005747944234571  0.17430969519496395  1.0000
