data_image0
_chemical_formula_structural       Ca4H24C28N4O22
_chemical_formula_sum              "Ca4 H24 C28 N4 O22"
_cell_length_a       8.36770642169418
_cell_length_b       8.367692341016262
_cell_length_c       13.557395811971656
_cell_angle_alpha    88.16665227599954
_cell_angle_beta     88.16644501221325
_cell_angle_gamma    71.95734809390167

_space_group_name_H-M_alt    "P 1"
_space_group_IT_number       1

loop_
  _space_group_symop_operation_xyz
  'x, y, z'

loop_
  _atom_site_type_symbol
  _atom_site_label
  _atom_site_symmetry_multiplicity
  _atom_site_fract_x
  _atom_site_fract_y
  _atom_site_fract_z
  _atom_site_occupancy
  Ca  Ca1       1.0  0.0605276471508631  0.04268850822523971  0.1295677910450621  1.0000
  Ca  Ca2       1.0  0.9573101936588911  0.9394711481908045  0.3704321047006758  1.0000
  Ca  Ca3       1.0  0.9394702789779288  0.957309735003619  0.8704307746513605  1.0000
  Ca  Ca4       1.0  0.04268733962164361  0.06052835224475929  0.6295664424608419  1.0000
  H   H1        1.0  0.002309467518685393  0.3306035294635308  0.9966392184066494  1.0000
  H   H2        1.0  0.6693952490732188  0.9976886253296653  0.5033598013498377  1.0000
  H   H3        1.0  0.9976908496403424  0.6693947254141648  0.0033600333729211047  1.0000
  H   H4        1.0  0.3306050680858093  0.00230962954803  0.49663945042973273  1.0000
  H   H5        1.0  0.0865984853402466  0.3974928866372593  0.0841207524407608  1.0000
  H   H6        1.0  0.602507039096288  0.9133991298624482  0.4158787779290591  1.0000
  H   H7        1.0  0.9134030285898687  0.6025053753224227  0.9158792111310065  1.0000
  H   H8        1.0  0.39749247665186255  0.08659786324168552  0.5841205180944654  1.0000
  H   H9        1.0  0.7354472469717309  0.18396490385353553  0.206443761929151  1.0000
  H   H10       1.0  0.8160329895168842  0.2645527849226639  0.2935562564663954  1.0000
  H   H11       1.0  0.26455148307990584  0.8160346036640219  0.7935554970245634  1.0000
  H   H12       1.0  0.18396574304670574  0.7354467251100375  0.7064437399885648  1.0000
  H   H13       1.0  0.6451724083195246  0.5963088337250894  0.9858551978027918  1.0000
  H   H14       1.0  0.4036941603096976  0.354824822941211  0.5141462723217245  1.0000
  H   H15       1.0  0.35482673783060653  0.40369320031815886  0.014146210875793503  1.0000
  H   H16       1.0  0.5963097446506466  0.6451734506673148  0.4858543773331903  1.0000
  H   H17       1.0  0.794264528417237  0.5187372690709539  0.1465634186375695  1.0000
  H   H18       1.0  0.48126494607333825  0.2057368199712428  0.3534375297135597  1.0000
  H   H19       1.0  0.2057358119920281  0.481264769539152  0.8534379643319738  1.0000
  H   H20       1.0  0.5187365703687377  0.7942614445035829  0.6465631713594533  1.0000
  H   H21       1.0  0.6597087085694324  0.6692576320678185  0.29923011057367427  1.0000
  H   H22       1.0  0.33074610653410014  0.34028625416887337  0.2007690528265869  1.0000
  H   H23       1.0  0.3402876486782844  0.3307456425030253  0.7007691184843737  1.0000
  H   H24       1.0  0.6692542156488415  0.6597120057391024  0.7992316739554753  1.0000
  C   C1        1.0  0.43482899326500773  0.7834102160851373  0.0527428873534888  1.0000
  C   C2        1.0  0.21659306557457106  0.5651656892928614  0.4472596271531941  1.0000
  C   C3        1.0  0.5651681572151119  0.21659055161769908  0.947258591278107  1.0000
  C   C4        1.0  0.7834096426146787  0.43483257723367064  0.5527403107095239  1.0000
  C   C5        1.0  0.5917929917552557  0.6596958169678331  0.0536598188550457  1.0000
  C   C6        1.0  0.3403037130232462  0.40820648164552853  0.4463394043149833  1.0000
  C   C7        1.0  0.40820812932660283  0.34030370219856104  0.9463401261818163  1.0000
  C   C8        1.0  0.6596977983949089  0.5917917777990167  0.553659821755538  1.0000
  C   C9        1.0  0.6740740835582385  0.6180396833359794  0.1430903494911107  1.0000
  C   C10       1.0  0.38196734338097116  0.32591571393461993  0.35690804210076277  1.0000
  C   C11       1.0  0.3259199008855731  0.3819673582881505  0.8569088496712638  1.0000
  C   C12       1.0  0.6180345633974085  0.67408129081835  0.6430919400059167  1.0000
  C   C13       1.0  0.5999458042459339  0.7026510652467407  0.22808234456835663  1.0000
  C   C14       1.0  0.2973570231569198  0.4000473652912717  0.271919820188522  1.0000
  C   C15       1.0  0.4000509691002848  0.29735473584979377  0.7719190342145622  1.0000
  C   C16       1.0  0.702645685032337  0.5999509012352604  0.728080117674203  1.0000
  C   C17       1.0  0.44287729329295905  0.8248746998952754  0.22051393396423444  1.0000
  C   C18       1.0  0.17513242396938003  0.5571142468766795  0.2794863906374161  1.0000
  C   C19       1.0  0.557115478665395  0.17512855845988184  0.7794846347197151  1.0000
  C   C20       1.0  0.8248734766609758  0.44288529307225133  0.7205141890644953  1.0000
  C   C21       1.0  0.3316702037232843  0.8308272702418478  0.9605284538025316  1.0000
  C   C22       1.0  0.16917345158930905  0.6683282323275604  0.5394714484893441  1.0000
  C   C23       1.0  0.6683297205874794  0.1691722418425528  0.0394707794421336  1.0000
  C   C24       1.0  0.8308276669805893  0.33167128432369714  0.4605277590462721  1.0000
  C   C25       1.0  0.34517494599789694  0.9152773980180697  0.30870938237791284  1.0000
  C   C26       1.0  0.08472266448653444  0.6548275151594822  0.1912947610440696  1.0000
  C   C27       1.0  0.654828167599419  0.0847196238774472  0.6912942615259396  1.0000
  C   C28       1.0  0.9152820393727268  0.345172017707462  0.8087051068656449  1.0000
  N   N1        1.0  0.3619550778220244  0.8625316038256158  0.1347063614326203  1.0000
  N   N2        1.0  0.13747005023803646  0.6380437606258907  0.3652947961830009  1.0000
  N   N3        1.0  0.6380428533306884  0.13746664443352327  0.8652936792662941  1.0000
  N   N4        1.0  0.8625330690257867  0.361957027396052  0.6347058164021034  1.0000
  O   O1        1.0  0.05683456535683013  0.2985783719795803  0.061801466257144  1.0000
  O   O2        1.0  0.701422690478836  0.9431640601308402  0.4381986771814396  1.0000
  O   O3        1.0  0.9431657543141582  0.7014198854132516  0.9381985230236722  1.0000
  O   O4        1.0  0.29857882596324  0.056834204343985596  0.5618020238915733  1.0000
  O   O5        1.0  0.8366635349312049  0.1633368100178174  0.2499995415917056  1.0000
  O   O6        1.0  0.16333758363869327  0.8366627066334331  0.7499996659439105  1.0000
  O   O7        1.0  0.176163878999887  0.9164353801395179  0.9739096758502725  1.0000
  O   O8        1.0  0.08356490508382564  0.8238339892209936  0.5260912592987381  1.0000
  O   O9        1.0  0.8238360453108838  0.08356413194488967  0.026089557394392705  1.0000
  O   O10       1.0  0.9164370016945467  0.17616301553198355  0.4739087228079342  1.0000
  O   O11       1.0  0.4024661471681767  0.7823927761910311  0.8786817236834993  1.0000
  O   O12       1.0  0.2176083039760074  0.5975355820190484  0.621317964957541  1.0000
  O   O13       1.0  0.5975349688897609  0.2176067379450828  0.1213167463508711  1.0000
  O   O14       1.0  0.7823916228467168  0.4024639325804955  0.3786820057883702  1.0000
  O   O15       1.0  0.1932879518162025  0.0048485640684674996  0.2943424493896032  1.0000
  O   O16       1.0  0.9951588742347186  0.8067073559375117  0.20566304100034224  1.0000
  O   O17       1.0  0.8067040470054393  0.9951572212758109  0.7056597697307581  1.0000
  O   O18       1.0  0.004843854692808223  0.19329469180628678  0.7943382905511029  1.0000
  O   O19       1.0  0.41559526996986307  0.8938170530878722  0.3916162767621643  1.0000
  O   O20       1.0  0.10618295591534387  0.5844010038099795  0.10838347053422132  1.0000
  O   O21       1.0  0.5843990658456517  0.10618116889502009  0.6083801535576613  1.0000
  O   O22       1.0  0.8938189716013057  0.4155997821602567  0.8916179052611781  1.0000
