data_image0
_chemical_formula_structural       Fe2H32C48N20
_chemical_formula_sum              "Fe2 H32 C48 N20"
_cell_length_a       8.788192176
_cell_length_b       9.02846897414433
_cell_length_c       14.4118
_cell_angle_alpha    90.0
_cell_angle_beta     90.0
_cell_angle_gamma    104.67274945730047

_space_group_name_H-M_alt    "P 1"
_space_group_IT_number       1

loop_
  _space_group_symop_operation_xyz
  'x, y, z'

loop_
  _atom_site_type_symbol
  _atom_site_label
  _atom_site_symmetry_multiplicity
  _atom_site_fract_x
  _atom_site_fract_y
  _atom_site_fract_z
  _atom_site_occupancy
  Fe  Fe1       1.0  0.4999993072522884  0.0  0.9999993061241452  1.0000
  Fe  Fe2       1.0  4.498005096885952e-07  0.4999991094609157  0.4999999999999999  1.0000
  H   H1        1.0  0.0716987624208585  0.2677662559311855  0.9826704506029811  1.0000
  H   H2        1.0  0.4282986649750669  0.23222827374530647  0.4826732261063853  1.0000
  H   H3        1.0  0.9282984759038299  0.732231962990646  0.017328855521171197  1.0000
  H   H4        1.0  0.5717037207946447  0.7677722350687475  0.5173274677694693  1.0000
  H   H5        1.0  0.07367696642825192  0.4597931820006451  0.1097600577304689  1.0000
  H   H6        1.0  0.42632650223752216  0.0402070724063819  0.609764220985582  1.0000
  H   H7        1.0  0.9263217077284978  0.5402061818672976  0.8902399422695311  1.0000
  H   H8        1.0  0.5736761814738003  0.9597945813537762  0.390235779014418  1.0000
  H   H9        1.0  0.8181531864789449  0.4572307926152916  0.18946488294314173  1.0000
  H   H10       1.0  0.6818517144795706  0.04276717189952  0.6894683523224003  1.0000
  H   H11       1.0  0.18184518973620103  0.542767426306547  0.8105344231810034  1.0000
  H   H12       1.0  0.3181509692317519  0.957234481860631  0.31053234155344706  1.0000
  H   H13       1.0  0.5731727402454679  0.262273949460436  0.1418233669631803  1.0000
  H   H14       1.0  0.926831022822583  0.2377240150543756  0.6418247547148892  1.0000
  H   H15       1.0  0.4268247960208242  0.7377254144075067  0.8581773269126671  1.0000
  H   H16       1.0  0.07317166088873253  0.7622776387057826  0.35817593916096496  1.0000
  H   H17       1.0  0.11286532101147632  0.9166598817542067  0.750001387751702  1.0000
  H   H18       1.0  0.3871285621755689  0.5833420264129714  0.2500041632551131  1.0000
  H   H19       1.0  0.8871347889773277  0.0833406270598402  0.24999861224829795  1.0000
  H   H20       1.0  0.6128689740907233  0.4166573374549714  0.7499958367448869  1.0000
  H   H21       1.0  0.1768033829839197  0.7582439935741405  0.6243772464230728  1.0000
  H   H22       1.0  0.3231916380935758  0.7417579145930375  0.12438002192647697  1.0000
  H   H23       1.0  0.823196727004884  0.24175651523990643  0.37562275357692687  1.0000
  H   H24       1.0  0.6768058981727165  0.2582414492749052  0.875619978073523  1.0000
  H   H25       1.0  0.7018071649751505  0.5547206636537751  0.5771513620782969  1.0000
  H   H26       1.0  0.7981895324607322  0.9452755197828749  0.07715136207829687  1.0000
  H   H27       1.0  0.2981929450136533  0.4452798451602717  0.42284863792170296  1.0000
  H   H28       1.0  0.2018080038055601  0.0547238440850677  0.9228479440458484  1.0000
  H   H29       1.0  0.6219580755642582  0.6976923738092466  0.6999604490764495  1.0000
  H   H30       1.0  0.8780368880979668  0.8023015197351953  0.19996044907644964  1.0000
  H   H31       1.0  0.37804287437339923  0.3023069900586961  0.30003955092355017  1.0000
  H   H32       1.0  0.12196178605878323  0.1976978441327546  0.8000381631718481  1.0000
  C   C1        1.0  0.8042143215267218  0.0521362658853803  0.925410427566298  1.0000
  C   C2        1.0  0.69578459203791  0.4478605536833271  0.4254125091938547  1.0000
  C   C3        1.0  0.19578549052047833  0.9478630979825624  0.07458887855784717  1.0000
  C   C4        1.0  0.3042166558413514  0.5521399551307269  0.5745881846819997  1.0000
  C   C5        1.0  0.8113762457145911  0.9011664710470555  0.8158731039842377  1.0000
  C   C6        1.0  0.6886230254438105  0.598830857335706  0.3158737978600854  1.0000
  C   C7        1.0  0.1886247042230664  0.0988328928208944  0.184126896015762  1.0000
  C   C8        1.0  0.31137822243545804  0.401169651478348  0.6841262021399144  1.0000
  C   C9        1.0  0.8235977168872638  0.1680643490158005  0.996295396827598  1.0000
  C   C10       1.0  0.676403174516679  0.3319313256068028  0.4962967845793003  1.0000
  C   C11       1.0  0.17639952143742482  0.8319338699060381  0.003704603172401699  1.0000
  C   C12       1.0  0.3235980733625823  0.6680691832072512  0.503703909296547  1.0000
  C   C13       1.0  0.9648840014492207  0.2722498648825038  0.019581176535894  1.0000
  C   C14       1.0  0.5351140721665573  0.2277480996323078  0.5195853397910069  1.0000
  C   C15       1.0  0.035113832758675335  0.7277506439315431  0.980418823464106  1.0000
  C   C16       1.0  0.4648883136031614  0.7722524091817462  0.48041604796070186  1.0000
  C   C17       1.0  0.9647939112980168  0.3778596937051475  0.08980557598634677  1.0000
  C   C18       1.0  0.5352090118211877  0.12213941575577542  0.5898097392414527  1.0000
  C   C19       1.0  0.03520476285872582  0.6221396701628024  0.9101944240136532  1.0000
  C   C20       1.0  0.4647945118389885  0.8778610930582786  0.4101909546343946  1.0000
  C   C21       1.0  0.8231436861204103  0.376849851239605  0.13397146782497765  1.0000
  C   C22       1.0  0.6768586411155866  0.12314696832910238  0.6339742433283815  1.0000
  C   C23       1.0  0.17685498803633953  0.6231495126283377  0.8660292260508766  1.0000
  C   C24       1.0  0.3231437446541322  0.8768535404849445  0.3660264505474656  1.0000
  C   C25       1.0  0.6860704797422841  0.2692821645756069  0.10805798026616738  1.0000
  C   C26       1.0  0.8139310075448591  0.2307157999392047  0.6080614496454331  1.0000
  C   C27       1.0  0.3139262165751546  0.73071834423844  0.8919413258579778  1.0000
  C   C28       1.0  0.18607167616646342  0.7692858538209535  0.39193924423042137  1.0000
  C   C29       1.0  0.860605733598142  0.8203573198276999  0.7389770882193787  1.0000
  C   C30       1.0  0.6393904218304982  0.6796411535011586  0.23897778209522605  1.0000
  C   C31       1.0  0.13939521633952273  0.1796420440402429  0.2610222179047739  1.0000
  C   C32       1.0  0.3606088482094592  0.3203605002589924  0.7610229117806211  1.0000
  C   C33       1.0  0.018173632734629998  0.8371376499580592  0.7132162533479516  1.0000
  C   C34       1.0  0.48182306824057264  0.6628619683169035  0.21321833497550804  1.0000
  C   C35       1.0  0.9818264772541739  0.1628628588559877  0.2867837466520483  1.0000
  C   C36       1.0  0.5181770417482383  0.3371385404971434  0.7867816650244918  1.0000
  C   C37       1.0  0.05446603610821655  0.7479268842124682  0.6421994476748194  1.0000
  C   C38       1.0  0.4455295269765287  0.7520727340625015  0.14220152930237615  1.0000
  C   C39       1.0  0.9455340738805873  0.2520736246015787  0.3578005523251803  1.0000
  C   C40       1.0  0.5544677113481599  0.24792548485933713  0.8577984706976236  1.0000
  C   C41       1.0  0.7929657358637953  0.6337620180853776  0.6159986955133971  1.0000
  C   C42       1.0  0.7070301216232338  0.8662353102973768  0.1159980016375499  1.0000
  C   C43       1.0  0.2070355120154659  0.3662384907286693  0.3840006106107481  1.0000
  C   C44       1.0  0.2929671167014547  0.1337629086244618  0.8840013044866024  1.0000
  C   C45       1.0  0.7472688330155108  0.7169171638760403  0.6863708905202657  1.0000
  C   C46       1.0  0.7527321719165556  0.7830824543989294  0.18636880889271615  1.0000
  C   C47       1.0  0.2527312769733001  0.2830833449380137  0.3136291094797342  1.0000
  C   C48       1.0  0.2472676401306515  0.2169169094690133  0.8136304972314363  1.0000
  N   N1        1.0  0.6555295842156781  0.9612303437707722  0.9150904120234811  1.0000
  N   N2        1.0  0.844468251110662  0.5387658396658779  0.4150917997751833  1.0000
  N   N3        1.0  0.3444705257731258  0.0387701650432817  0.08490889410066417  1.0000
  N   N4        1.0  0.1555315609365451  0.4612335242020649  0.5849082002248167  1.0000
  N   N5        1.0  0.6587797651765542  0.8647514601439283  0.8447744209606041  1.0000
  N   N6        1.0  0.8412198039234511  0.6352470131849302  0.3447758087123062  1.0000
  N   N7        1.0  0.341220046870653  0.1352479037240144  0.15522557903939566  1.0000
  N   N8        1.0  0.1587791681749025  0.3647534956291167  0.6552241912876935  1.0000
  N   N9        1.0  0.9060766960757789  0.0173493683450729  0.8648107800552296  1.0000
  N   N10       1.0  0.5939216754816029  0.48264974111584996  0.3648114739310842  1.0000
  N   N11       1.0  0.09392311597142819  0.9826499955228697  0.1351885260689158  1.0000
  N   N12       1.0  0.4060784345072008  0.5173507676982041  0.6351892199447702  1.0000
  N   N13       1.0  0.6843553381170011  0.1648115571284947  0.04084083875712709  1.0000
  N   N14       1.0  0.8156449574037339  0.3351818276018932  0.5408422265088362  1.0000
  N   N15       1.0  0.31564333603974865  0.835187806739448  0.9591584673670182  1.0000
  N   N16       1.0  0.18435713042438104  0.6648175362660496  0.4591577734911637  1.0000
  N   N17       1.0  0.9450871096958693  0.6434528419270364  0.5936017707711727  1.0000
  N   N18       1.0  0.5549082057839173  0.8565467763479333  0.09360246464702728  1.0000
  N   N19       1.0  0.054913298234538416  0.3565488118331146  0.40639753535297257  1.0000
  N   N20       1.0  0.4450904683728325  0.1434525875200166  0.9063968414771253  1.0000
