data_image0
_chemical_formula_structural       Zr6H6C52S10N4Cl10O40
_chemical_formula_sum              "Zr6 H6 C52 S10 N4 Cl10 O40"
_cell_length_a       16.447835329779792
_cell_length_b       16.467743035105418
_cell_length_c       16.475346139469888
_cell_angle_alpha    62.288280743238
_cell_angle_beta     60.03157703320846
_cell_angle_gamma    60.06422197608049

_space_group_name_H-M_alt    "P 1"
_space_group_IT_number       1

loop_
  _space_group_symop_operation_xyz
  'x, y, z'

loop_
  _atom_site_type_symbol
  _atom_site_label
  _atom_site_symmetry_multiplicity
  _atom_site_fract_x
  _atom_site_fract_y
  _atom_site_fract_z
  _atom_site_occupancy
  Zr  Zr1       1.0  0.8841167805652999  0.9077897907130748  0.6062127141295548  1.0000
  Zr  Zr2       1.0  0.10197014724295876  0.11179508264272185  0.40224322391004114  1.0000
  Zr  Zr3       1.0  0.09969345014496887  0.9045448810218986  0.6090757115706396  1.0000
  Zr  Zr4       1.0  0.8868495048528473  0.11455623234380129  0.3989503725092121  1.0000
  Zr  Zr5       1.0  0.10280170727796172  0.900042640762635  0.39454674765867287  1.0000
  Zr  Zr6       1.0  0.8835163141843054  0.1193323088894119  0.6137233661057807  1.0000
  H   H1        1.0  0.08018575236793865  0.7600482741428324  0.5778312370360155  1.0000
  H   H2        1.0  0.08215563114548984  0.08323200642158209  0.25455613228783847  1.0000
  H   H3        1.0  0.07610164182049316  0.09346322898856829  0.592932984225378  1.0000
  H   H4        1.0  0.7376503923374287  0.09844351863353032  0.5878133391675604  1.0000
  H   H5        1.0  0.8564206357656229  0.6557580064298566  0.8390835400047932  1.0000
  H   H6        1.0  0.14997973617448673  0.3433114876663055  0.14907506405774026  1.0000
  C   C1        1.0  0.9915107351695551  0.7442571662322452  0.4911885560628662  1.0000
  C   C2        1.0  0.2731944752706283  0.9967805620936334  0.23869004432909693  1.0000
  C   C3        1.0  0.9855904425273178  0.28359886922785177  0.5088807536938303  1.0000
  C   C4        1.0  0.7218845126101953  0.014603633790230174  0.7778041296533544  1.0000
  C   C5        1.0  0.9887586773892778  0.7413811031094679  0.7643059897850081  1.0000
  C   C6        1.0  0.7253780391226952  0.005143768107572617  0.4993650208604306  1.0000
  C   C7        1.0  0.005683276471096083  0.2697245080299382  0.2358272760414124  1.0000
  C   C8        1.0  0.270116559049093  0.005055124732905403  0.4996393803156778  1.0000
  C   C9        1.0  0.27206663668250997  0.7433268381425434  0.4969199018446843  1.0000
  C   C10       1.0  0.9876734929461437  0.005463180269771186  0.7810899485471268  1.0000
  C   C11       1.0  0.7258610069188052  0.28657445958069155  0.49987372672597996  1.0000
  C   C12       1.0  0.9879922841566183  0.0022935573841848422  0.23771358155254774  1.0000
  C   C13       1.0  0.915207977286691  0.4346896034907246  0.5680120346005778  1.0000
  C   C14       1.0  0.05581250993018448  0.5986418841074653  0.42650163136996605  1.0000
  C   C15       1.0  0.9822101103774372  0.37574206942224453  0.5055783565142064  1.0000
  C   C16       1.0  0.9898875959387394  0.6566600930168818  0.4898757802333264  1.0000
  C   C17       1.0  0.028182745899741228  0.5179213219470711  0.45479976849851056  1.0000
  C   C18       1.0  0.9418815608208815  0.5162914841880877  0.5387827594841712  1.0000
  C   C19       1.0  0.419119863456984  0.9321484480331396  0.0929434499183373  1.0000
  C   C20       1.0  0.5819490310227238  0.07388052285779177  0.928760272043604  1.0000
  C   C21       1.0  0.3636495188335328  0.9955195175705146  0.1509661692694876  1.0000
  C   C22       1.0  0.6363178237745898  0.011423772153264596  0.8698351220003531  1.0000
  C   C23       1.0  0.5029744740134987  0.04458950563914501  0.010440472067081426  1.0000
  C   C24       1.0  0.4990838651307142  0.9605375572371103  0.012140048560048857  1.0000
  C   C25       1.0  0.05917281897499984  0.9408364753640228  0.916874517335664  1.0000
  C   C26       1.0  0.908202494602932  0.05681236151036022  0.1109167553676189  1.0000
  C   C27       1.0  0.9867552158436437  0.0007429200004264702  0.872596539960263  1.0000
  C   C28       1.0  0.9825524991847131  0.9996825525264299  0.152873849798027  1.0000
  C   C29       1.0  0.9367252208206761  0.035682807665900124  0.02436090219201504  1.0000
  C   C30       1.0  0.03060845977010013  0.9616811399761859  0.003546873370225993  1.0000
  C   C31       1.0  0.42401739939612076  0.6163094801164986  0.5515440861685122  1.0000
  C   C32       1.0  0.583290721464614  0.4224929020671622  0.4352173095474399  1.0000
  C   C33       1.0  0.3649280737557491  0.6584344162650595  0.4943008377927712  1.0000
  C   C34       1.0  0.6399405995734355  0.3780681292262926  0.4952704326640855  1.0000
  C   C35       1.0  0.5042912952161486  0.5091511913784856  0.45614272908195364  1.0000
  C   C36       1.0  0.5032128930872375  0.5297839271761191  0.5303349461940883  1.0000
  C   C37       1.0  0.06915864550385449  0.5823937787733655  0.877684345336725  1.0000
  C   C38       1.0  0.9143981659292566  0.6103565030391067  0.871732826872467  1.0000
  C   C39       1.0  0.9128170117148854  0.5215459892178556  0.9394236962790571  1.0000
  C   C40       1.0  0.9811127934928552  0.46429950382412943  0.9915516734357226  1.0000
  C   C41       1.0  0.970296121340965  0.3834531086825094  0.07719478141471814  1.0000
  C   C42       1.0  0.10417955148857766  0.3764485840580818  0.10415260452257509  1.0000
  C   C43       1.0  0.12682234523560953  0.44405897167786185  0.015265171207147417  1.0000
  C   C44       1.0  0.06311105726805966  0.4967357948296181  0.9585187999780089  1.0000
  C   C45       1.0  0.992844421861612  0.6429358251096745  0.839689326122162  1.0000
  C   C46       1.0  0.024616298984874146  0.34500615872835283  0.1373158399535228  1.0000
  C   C47       1.0  0.4175394533141343  0.06467272286486293  0.42806042977620956  1.0000
  C   C48       1.0  0.5895776715087705  0.9338991550508381  0.5592754102012377  1.0000
  C   C49       1.0  0.36335535695776133  0.002017588863260855  0.4937775326145086  1.0000
  C   C50       1.0  0.640999565382678  0.9993247194610574  0.4963715212218177  1.0000
  C   C51       1.0  0.5084757848736317  0.9573574516077344  0.5337736305719004  1.0000
  C   C52       1.0  0.5006318194737105  0.039230318910078665  0.4515794014394174  1.0000
  S   S1        1.0  0.07698305711373618  0.4203071441017414  0.41123636905975763  1.0000
  S   S2        1.0  0.8940229948183499  0.6131079697819858  0.5832345103175598  1.0000
  S   S3        1.0  0.4096083760470249  0.08899463097378661  0.10729872868535041  1.0000
  S   S4        1.0  0.5914180383242711  0.9169879497494976  0.9145024200233961  1.0000
  S   S5        1.0  0.8838653219092764  0.08149160199693734  0.9375335877988391  1.0000
  S   S6        1.0  0.08494489356303318  0.9180778724568841  0.0886296993180125  1.0000
  S   S7        1.0  0.4085324308275702  0.5943740685035621  0.4124782810974922  1.0000
  S   S8        1.0  0.5969998797649367  0.4427988014069797  0.5762509525343447  1.0000
  S   S9        1.0  0.41483113891757034  0.9113548138862485  0.5827054931959025  1.0000
  S   S10       1.0  0.5916332343749386  0.0878812640098232  0.405333150740681  1.0000
  N   N1        1.0  0.22470623105544973  0.4527560829711278  0.9831991478072551  1.0000
  N   N2        1.0  0.15988396599333748  0.6088930073651682  0.8304244519175582  1.0000
  N   N3        1.0  0.8373914951277541  0.49017738987728865  0.9488613892231897  1.0000
  N   N4        1.0  0.899701498156702  0.33671747239184685  0.10413239696681138  1.0000
  Cl  Cl1       1.0  0.8134267669486305  0.41548659727671117  0.6680715393342708  1.0000
  Cl  Cl2       1.0  0.15826087780963857  0.6173828089012687  0.32717039267616604  1.0000
  Cl  Cl3       1.0  0.3974428446960229  0.8326663211148218  0.11177850488904537  1.0000
  Cl  Cl4       1.0  0.6027785638097709  0.17402982714947504  0.9094639981505495  1.0000
  Cl  Cl5       1.0  0.1702011597489201  0.853440047072233  0.8760778366560942  1.0000
  Cl  Cl6       1.0  0.7948695679080017  0.14004194958437216  0.15456026277226434  1.0000
  Cl  Cl7       1.0  0.41025072780225  0.6596460710395534  0.6351253326162835  1.0000
  Cl  Cl8       1.0  0.600580386547044  0.3818794921682879  0.3476586238555583  1.0000
  Cl  Cl9       1.0  0.3918050287572115  0.16177843248852503  0.33114468480415127  1.0000
  Cl  Cl10      1.0  0.6147010414579764  0.8373594908239212  0.6567782444803001  1.0000
  O   O1        1.0  0.9213974532489998  0.7802577414953261  0.5614197844305551  1.0000
  O   O2        1.0  0.2370880194132354  0.06709836224190009  0.2745818678152645  1.0000
  O   O3        1.0  0.05756620317449554  0.2457583883069319  0.4404014364559146  1.0000
  O   O4        1.0  0.7562569498543538  0.9460512825112204  0.7400355855867247  1.0000
  O   O5        1.0  0.05447799646893248  0.775773073798014  0.738742488583327  1.0000
  O   O6        1.0  0.7574363330467052  0.07465771093689001  0.4340592030036063  1.0000
  O   O7        1.0  0.9311199807069099  0.2441613608462775  0.2703398807205489  1.0000
  O   O8        1.0  0.23381551913179519  0.9397923321803603  0.569218092356799  1.0000
  O   O9        1.0  0.23664776294886283  0.7723837528116492  0.4302964856922246  1.0000
  O   O10       1.0  0.9189517006712578  0.07622829242561123  0.7481913824198899  1.0000
  O   O11       1.0  0.7567620666326318  0.2536568809746668  0.5706099648681046  1.0000
  O   O12       1.0  0.06103047093328951  0.935736037078719  0.26672305473431385  1.0000
  O   O13       1.0  0.058169989396049046  0.938434150285417  0.7407182461982131  1.0000
  O   O14       1.0  0.7627510487087645  0.24622069343507044  0.43283572489236377  1.0000
  O   O15       1.0  0.920798045938909  0.0724643947356328  0.274691272575552  1.0000
  O   O16       1.0  0.23210946193389476  0.7803131083830267  0.5670659190656552  1.0000
  O   O17       1.0  0.9168113758994704  0.7810310195549378  0.7328260203039819  1.0000
  O   O18       1.0  0.23161416138201224  0.07386089117144923  0.4357114249726237  1.0000
  O   O19       1.0  0.06950118591169024  0.23831785944710757  0.2754081289675979  1.0000
  O   O20       1.0  0.758963016002461  0.9412208255419541  0.5682047323881959  1.0000
  O   O21       1.0  0.7545472660513394  0.08449011864595928  0.7420413550899597  1.0000
  O   O22       1.0  0.0621154755190005  0.7765030560105329  0.4249817136393049  1.0000
  O   O23       1.0  0.2366308190257057  0.9304670115805749  0.27108676005222065  1.0000
  O   O24       1.0  0.9188596570682674  0.24778997072918688  0.5788475048137374  1.0000
  O   O25       1.0  0.8102422177135651  0.073411358978717  0.5641389714559538  1.0000
  O   O26       1.0  0.05221066211765199  0.06979670113343416  0.5679072509196175  1.0000
  O   O27       1.0  0.05626145117831534  0.06492931501430377  0.32543379748210544  1.0000
  O   O28       1.0  0.05353199904460828  0.8309313767355989  0.5594598136649793  1.0000
  O   O29       1.0  0.12764811504811757  0.9632260630422637  0.45995228564022034  1.0000
  O   O30       1.0  0.9493747761103178  0.9654353780196632  0.45764819606669255  1.0000
  O   O31       1.0  0.9491313742204213  0.1407834320997878  0.4633270311340709  1.0000
  O   O32       1.0  0.946837580168122  0.9688865279674489  0.6352403405431771  1.0000
  O   O33       1.0  0.28642772018068996  0.43484060745014813  0.9047204204986554  1.0000
  O   O34       1.0  0.23931938634351005  0.46945117214079357  0.03949395473845393  1.0000
  O   O35       1.0  0.21595399177628843  0.591628234737577  0.7512170176566216  1.0000
  O   O36       1.0  0.17190822128182506  0.6435680993048365  0.8741022412855202  1.0000
  O   O37       1.0  0.8712114181994506  0.41194885813257526  0.9307895663204276  1.0000
  O   O38       1.0  0.749887240288693  0.5467666728190393  0.9662963732256812  1.0000
  O   O39       1.0  0.9393959312378825  0.2577052838945093  0.08664191746405682  1.0000
  O   O40       1.0  0.8095013872439905  0.38064781376839135  0.13933678243042646  1.0000
