data_image0
_chemical_formula_structural       Mn4H32C52N4O20
_chemical_formula_sum              "Mn4 H32 C52 N4 O20"
_cell_length_a       12.562756807187196
_cell_length_b       12.573083710458082
_cell_length_c       13.744168927559546
_cell_angle_alpha    113.13289458943584
_cell_angle_beta     115.09453551817822
_cell_angle_gamma    96.20418219018984

_space_group_name_H-M_alt    "P 1"
_space_group_IT_number       1

loop_
  _space_group_symop_operation_xyz
  'x, y, z'

loop_
  _atom_site_type_symbol
  _atom_site_label
  _atom_site_symmetry_multiplicity
  _atom_site_fract_x
  _atom_site_fract_y
  _atom_site_fract_z
  _atom_site_occupancy
  Mn  Mn1       1.0  0.9999994801593888  0.4999993599178794  0.5000005310462327  1.0000
  Mn  Mn2       1.0  0.4999996270473947  0.49999791942191535  0.9999977704014074  1.0000
  Mn  Mn3       1.0  0.8121137095774174  0.5611414511111477  0.2497978653705246  1.0000
  Mn  Mn4       1.0  0.1878857030480179  0.43885555832961415  0.7502015675010798  1.0000
  H   H1        1.0  0.2584238665497055  0.8758574949767706  0.7307271711170956  1.0000
  H   H2        1.0  0.644506658608151  0.5264058596062996  0.7668591794613208  1.0000
  H   H3        1.0  0.7415730574461392  0.1241447640578741  0.26927625387691  1.0000
  H   H4        1.0  0.35549348027204536  0.47359187728564933  0.2331409865627165  1.0000
  H   H5        1.0  0.3703143284743435  0.10204497453919728  0.839411816028566  1.0000
  H   H6        1.0  0.7633174553797916  0.5323415127489782  0.660049214031929  1.0000
  H   H7        1.0  0.6296841315466326  0.8979573122998019  0.16058949378354034  1.0000
  H   H8        1.0  0.23668277154538944  0.46765482627375116  0.3399501050231635  1.0000
  H   H9        1.0  0.14808868974967046  0.11444641544434125  0.5088975171367381  1.0000
  H   H10       1.0  0.10563109562657055  0.639158944177133  0.9908966635667869  1.0000
  H   H11       1.0  0.8519150037202722  0.8855462281808072  0.4910969873826828  1.0000
  H   H12       1.0  0.8943701265793608  0.36085083021802683  0.009106607461212697  1.0000
  H   H13       1.0  0.04255530364304864  0.8871807969349205  0.39734156685763383  1.0000
  H   H14       1.0  0.9886997404333827  0.6426803131182267  0.1007985905329177  1.0000
  H   H15       1.0  0.9574509128259479  0.11281348714849324  0.6026554691022383  1.0000
  H   H16       1.0  0.011301443987321167  0.3573276500351597  0.8992046113089814  1.0000
  H   H17       1.0  0.2340302213369868  0.3059828772911645  0.51561668473461  1.0000
  H   H18       1.0  0.29107773600040343  0.7188059453774971  0.9854061104357968  1.0000
  H   H19       1.0  0.7659725962125635  0.6940237742549514  0.4843890239920797  1.0000
  H   H20       1.0  0.7089221421606311  0.28119090631172133  0.014590142118308313  1.0000
  H   H21       1.0  0.3957520462330992  0.3022598799568216  0.4570068117476822  1.0000
  H   H22       1.0  0.34573850937523803  0.9390234150506983  0.04354798747453268  1.0000
  H   H23       1.0  0.6042485925521605  0.6977445892357395  0.5429966975217084  1.0000
  H   H24       1.0  0.6542609455648009  0.060975434860637785  0.9564542491009861  1.0000
  H   H25       1.0  0.4720489609863067  0.6934252398231778  0.5885297416591088  1.0000
  H   H26       1.0  0.604765052703712  0.8834348602225219  0.9114023304069647  1.0000
  H   H27       1.0  0.5279435461624615  0.30657580515774185  0.41146473153973057  1.0000
  H   H28       1.0  0.39523761370491434  0.11656454635649285  0.08860310157534458  1.0000
  H   H29       1.0  0.3041866002037566  0.6772420107337213  0.638712891412773  1.0000
  H   H30       1.0  0.5385456555804425  0.6653868712711103  0.8613706150250026  1.0000
  H   H31       1.0  0.695810701282717  0.32276148841860675  0.3612882002326785  1.0000
  H   H32       1.0  0.4614559358092834  0.3346123205232062  0.13863101730388652  1.0000
  C   C1        1.0  0.07070754288849208  0.7347491638196857  0.49186623803708346  1.0000
  C   C2        1.0  0.7414929904232181  0.5753461490399941  0.005228902771889955  1.0000
  C   C3        1.0  0.9292921259267362  0.2652487015949987  0.5081343737866318  1.0000
  C   C4        1.0  0.25850620379765854  0.42465181566861804  0.9947694203336966  1.0000
  C   C5        1.0  0.14449593705162317  0.8680733708637263  0.5569978220638918  1.0000
  C   C6        1.0  0.810078966790414  0.5854755968462301  0.9408421463098691  1.0000
  C   C7        1.0  0.8555059940434901  0.13192524980649278  0.44300140773035673  1.0000
  C   C8        1.0  0.1899204333605127  0.41452643294730507  0.05915827190287358  1.0000
  C   C9        1.0  0.23772723292321285  0.9282047043350588  0.6817954450036013  1.0000
  C   C10       1.0  0.7459384706767695  0.5548714122090033  0.8163782137662778  1.0000
  C   C11       1.0  0.7622712773575061  0.07179437339294749  0.3182049486534595  1.0000
  C   C12       1.0  0.25406264611860513  0.4451278788792549  0.1836211298444894  1.0000
  C   C13       1.0  0.29921575228985386  0.0536006792539539  0.7424692220060011  1.0000
  C   C14       1.0  0.8113716240482491  0.5572421006827994  0.7566938617469958  1.0000
  C   C15       1.0  0.700784676035994  0.9463996956248905  0.25752945763842666  1.0000
  C   C16       1.0  0.1886289724224072  0.4427605280391802  0.2433068438184948  1.0000
  C   C17       1.0  0.2669868390007579  0.12158382790234872  0.6808576101615955  1.0000
  C   C18       1.0  0.9411611053881759  0.5871067861921662  0.8188799292126918  1.0000
  C   C19       1.0  0.7330131649904816  0.8784134371594375  0.3191378646096581  1.0000
  C   C20       1.0  0.058841501701955755  0.4128957710402402  0.18112094988902788  1.0000
  C   C21       1.0  0.1750680122978921  0.06101126609706155  0.5557965444127078  1.0000
  C   C22       1.0  0.005139896649190282  0.619050321948727  0.9435906239150004  1.0000
  C   C23       1.0  0.8249326423776467  0.9389831039323511  0.4441995251387851  1.0000
  C   C24       1.0  0.9948618458814593  0.38095611481270447  0.05641128515826902  1.0000
  C   C25       1.0  0.11554185826462778  0.935186442060676  0.4939829664997221  1.0000
  C   C26       1.0  0.940417687454648  0.6198603865222836  0.0044501635144626765  1.0000
  C   C27       1.0  0.8844616213301252  0.064807186061131  0.5060131627714951  1.0000
  C   C28       1.0  0.05958452514097728  0.3801459217164126  0.9955512997591287  1.0000
  C   C29       1.0  0.3238637772749445  0.2583014706992446  0.7503030199367232  1.0000
  C   C30       1.0  0.009001484809999868  0.5764687982197858  0.75026551191705  1.0000
  C   C31       1.0  0.6761374230360317  0.7416963932909937  0.24969274218727824  1.0000
  C   C32       1.0  0.9910012904249542  0.42353601285575593  0.24973739310572546  1.0000
  C   C33       1.0  0.2905870621888412  0.3868990973398639  0.5279456209659302  1.0000
  C   C34       1.0  0.35949853343193205  0.7630017329071281  0.9728313308857965  1.0000
  C   C35       1.0  0.7094128503416572  0.6131046444015098  0.47205715515103464  1.0000
  C   C36       1.0  0.6405010428089427  0.23699750114796816  0.02716739338905671  1.0000
  C   C37       1.0  0.3818237639448798  0.38916973812833094  0.4978890314682902  1.0000
  C   C38       1.0  0.39175140163239774  0.884234924239223  0.0026937137004167913  1.0000
  C   C39       1.0  0.6181751661410717  0.6108324201879328  0.5021118325441308  1.0000
  C   C40       1.0  0.6082467768880736  0.11575967503130631  0.9973053626323465  1.0000
  C   C41       1.0  0.4529755600618159  0.4986838365190991  0.5175617816258721  1.0000
  C   C42       1.0  0.48121104492788935  0.9353960891172477  0.9825771494186883  1.0000
  C   C43       1.0  0.5470199401509889  0.5013187203973501  0.4824347772137402  1.0000
  C   C44       1.0  0.5187906768214177  0.0646035452784304  0.01742643964517032  1.0000
  C   C45       1.0  0.42441661725692387  0.6047804921544397  0.5712407164510369  1.0000
  C   C46       1.0  0.5336348737962455  0.8532240696276362  0.9289476550122444  1.0000
  C   C47       1.0  0.5755792271906445  0.39522152286671297  0.42875617437174185  1.0000
  C   C48       1.0  0.4663634728690342  0.14677278348602849  0.0710534472415745  1.0000
  C   C49       1.0  0.33326538827164137  0.6001226416498467  0.6014576745740711  1.0000
  C   C50       1.0  0.4989103340877961  0.7319105426498923  0.8988921675755251  1.0000
  C   C51       1.0  0.6667299906403273  0.3998795311228421  0.3985423965662065  1.0000
  C   C52       1.0  0.5010924914069009  0.26809105931465643  0.10110982129221205  1.0000
  N   N1        1.0  0.26797840393701483  0.49198771795911267  0.5807611152224227  1.0000
  N   N2        1.0  0.41163628848504197  0.6875398595710182  0.9198589208655934  1.0000
  N   N3        1.0  0.7320203500589814  0.5080172360955901  0.41924144272788794  1.0000
  N   N4        1.0  0.5883655167798665  0.3124583477266469  0.08014108671150674  1.0000
  O   O1        1.0  0.09210854281101197  0.6802806926751187  0.5561297629606942  1.0000
  O   O2        1.0  0.6225283032248825  0.5320918337025304  0.9406174013996349  1.0000
  O   O3        1.0  0.9078902659741034  0.3197210814973915  0.44387461335239214  1.0000
  O   O4        1.0  0.37747003438164484  0.46790496095353973  0.05937823181855621  1.0000
  O   O5        1.0  0.9913518890857422  0.6858063986910283  0.37769973884834246  1.0000
  O   O6        1.0  0.8067549388223512  0.6092612515000938  0.1190508080616724  1.0000
  O   O7        1.0  0.00864884568963491  0.3141916230507463  0.6222992035931584  1.0000
  O   O8        1.0  0.19324490608282482  0.3907338181761519  0.8809481098241536  1.0000
  O   O9        1.0  0.41671381451886463  0.30911781233271546  0.8588519569572243  1.0000
  O   O10       1.0  0.9519412722362903  0.5626712182605902  0.642553492370233  1.0000
  O   O11       1.0  0.5832861894723749  0.6908794527290638  0.14114351781403664  1.0000
  O   O12       1.0  0.048060701173433494  0.4373292428802174  0.3574485411279227  1.0000
  O   O13       1.0  0.2718167083486166  0.3160295270230337  0.6950099189179113  1.0000
  O   O14       1.0  0.12209391117916389  0.5792774830363501  0.8053869198471235  1.0000
  O   O15       1.0  0.7281828301070234  0.6839678957902819  0.30498873617084143  1.0000
  O   O16       1.0  0.87790700874492  0.4207178014245869  0.1946157976921157  1.0000
  O   O17       1.0  0.18114463213621704  0.48949491319973515  0.6117567367283387  1.0000
  O   O18       1.0  0.3778536117310766  0.569654055460852  0.8888133717421881  1.0000
  O   O19       1.0  0.8188546844991011  0.5105085436918203  0.38824726297116297  1.0000
  O   O20       1.0  0.622144474215041  0.4303419124500892  0.1111838170417059  1.0000
