data_image0
_chemical_formula_structural       Li4H32C36N4O16
_chemical_formula_sum              "Li4 H32 C36 N4 O16"
_cell_length_a       4.869174160069789
_cell_length_b       11.548654727129234
_cell_length_c       15.228072241141874
_cell_angle_alpha    89.99981288881034
_cell_angle_beta     89.99955868627775
_cell_angle_gamma    89.99952420478071

_space_group_name_H-M_alt    "P 1"
_space_group_IT_number       1

loop_
  _space_group_symop_operation_xyz
  'x, y, z'

loop_
  _atom_site_type_symbol
  _atom_site_label
  _atom_site_symmetry_multiplicity
  _atom_site_fract_x
  _atom_site_fract_y
  _atom_site_fract_z
  _atom_site_occupancy
  Li  Li1       1.0  0.1374137615750755  0.3411425040645711  0.017006152131948206  1.0000
  Li  Li2       1.0  0.6374246813740925  0.15885869497858354  0.9829914933187073  1.0000
  Li  Li3       1.0  0.8625831348320361  0.8411405713190165  0.4829887903358953  1.0000
  Li  Li4       1.0  0.3625922350105952  0.6588525541694636  0.5170037665098735  1.0000
  H   H1        1.0  0.13440608188395234  0.6697995806286698  0.967802382120823  1.0000
  H   H2        1.0  0.6344085318043325  0.8302003530309394  0.03220909989293121  1.0000
  H   H3        1.0  0.8655880138183039  0.16979560273743743  0.5321961332592908  1.0000
  H   H4        1.0  0.3655783255581184  0.33018493374573415  0.46778981058110264  1.0000
  H   H5        1.0  0.11881435755523029  0.8816044307057352  0.9351505912675296  1.0000
  H   H6        1.0  0.6188348068755049  0.6183964198566729  0.06486355421913002  1.0000
  H   H7        1.0  0.8811855635620632  0.38159680162903703  0.5648513244276574  1.0000
  H   H8        1.0  0.3811503325198871  0.11838281794049274  0.43513392598080014  1.0000
  H   H9        1.0  0.44993669532336616  0.9647583877462867  0.8275632661687031  1.0000
  H   H10       1.0  0.9499479722022743  0.5352491720847113  0.17245338189548687  1.0000
  H   H11       1.0  0.5500779111784411  0.46475139263633025  0.6724456610958786  1.0000
  H   H12       1.0  0.0500348039180594  0.03524229927064941  0.3275443101953642  1.0000
  H   H13       1.0  0.7813914893664701  0.8380142374500678  0.7515862499307391  1.0000
  H   H14       1.0  0.28140521507374666  0.6619964718005209  0.24841963198760206  1.0000
  H   H15       1.0  0.21862166855171244  0.3380071437117281  0.7484197169272735  1.0000
  H   H16       1.0  0.71857695580794  0.16199552140997042  0.2515777370870965  1.0000
  H   H17       1.0  0.164668029403586  0.5852889490577554  0.6999425480620689  1.0000
  H   H18       1.0  0.6646763560493695  0.9147160809756656  0.3000550722554963  1.0000
  H   H19       1.0  0.8353442690283899  0.0852839501920144  0.8000594660788  1.0000
  H   H20       1.0  0.33532515804719054  0.4147217964237981  0.19994033938041875  1.0000
  H   H21       1.0  0.12337365796666691  0.729649481545316  0.7345101500498857  1.0000
  H   H22       1.0  0.6233899885626003  0.7703530859308789  0.2654908510491795  1.0000
  H   H23       1.0  0.8766356120608095  0.2296444920535379  0.7654914961987561  1.0000
  H   H24       1.0  0.3766042852781837  0.2703585217204818  0.23450755522544145  1.0000
  H   H25       1.0  0.6650628078323777  0.35538213962549764  0.9030388709306012  1.0000
  H   H26       1.0  0.165074540128245  0.14462070069757266  0.09696790286368893  1.0000
  H   H27       1.0  0.33492944843329303  0.8553783527188797  0.5969598281852698  1.0000
  H   H28       1.0  0.8349162101537929  0.6446139974102464  0.4030387040366677  1.0000
  H   H29       1.0  0.8161905906233502  0.4715418594159643  0.8469789209939267  1.0000
  H   H30       1.0  0.3162136206882026  0.028459620316191106  0.15302158627012835  1.0000
  H   H31       1.0  0.18381565866759791  0.9715374668565958  0.6530247355343379  1.0000
  H   H32       1.0  0.6837713515057401  0.5284562438486303  0.3469807198900839  1.0000
  C   C1        1.0  0.6515304278746612  0.68208965552752  0.8184591502624132  1.0000
  C   C2        1.0  0.1515528307079634  0.8179162833766118  0.18154375447327456  1.0000
  C   C3        1.0  0.34846751739794257  0.18208155044897018  0.6815491840268423  1.0000
  C   C4        1.0  0.8484342842168645  0.31791203059749057  0.3184565006554579  1.0000
  C   C5        1.0  0.46671236203167143  0.6341457157234772  0.8805986143874167  1.0000
  C   C6        1.0  0.9667180352690821  0.8658635210320681  0.11940683052883125  1.0000
  C   C7        1.0  0.5332948040673388  0.13413813141057326  0.6194006485259537  1.0000
  C   C8        1.0  0.033274235063778704  0.365854749483944  0.3805939590903194  1.0000
  C   C9        1.0  0.454366262220276  0.5097779467552643  0.9077827929462645  1.0000
  C   C10       1.0  0.9543905465913483  0.9902278667861285  0.09221742761078393  1.0000
  C   C11       1.0  0.5456311904852384  0.009773033424394801  0.5922121901467821  1.0000
  C   C12       1.0  0.0455991147853467  0.49022067300614947  0.4077843584368353  1.0000
  C   C13       1.0  0.27652071360671465  0.7083892220375673  0.9209676095262014  1.0000
  C   C14       1.0  0.7765269044300139  0.7916128441501726  0.07903894057996302  1.0000
  C   C15       1.0  0.723484894976579  0.2083837816740798  0.5790321208622518  1.0000
  C   C16       1.0  0.22345665487384994  0.2916024153761399  0.4209620382758035  1.0000
  C   C17       1.0  0.2683581596262172  0.8262159844677018  0.9026348793333343  1.0000
  C   C18       1.0  0.7683704692231076  0.6737913038317843  0.09737497341714631  1.0000
  C   C19       1.0  0.7316408696776905  0.3262078430284703  0.5973691475641305  1.0000
  C   C20       1.0  0.2316155617801172  0.17378179093118717  0.40262302228729413  1.0000
  C   C21       1.0  0.45374305684210736  0.8723276721261757  0.8420149788805634  1.0000
  C   C22       1.0  0.9537548114334911  0.6276790093540259  0.15799640675272295  1.0000
  C   C23       1.0  0.5462755424101928  0.3723233476042225  0.6579922138852725  1.0000
  C   C24       1.0  0.0462280794016507  0.12767035674236385  0.34200433319701773  1.0000
  C   C25       1.0  0.642310195231083  0.8007727972469285  0.7997645884772454  1.0000
  C   C26       1.0  0.14232024219916892  0.6992271105375067  0.20024227811497045  1.0000
  C   C27       1.0  0.3577016901596081  0.3007715110194696  0.7002401599189911  1.0000
  C   C28       1.0  0.8576673088742837  0.19922290572242932  0.2997569661228782  1.0000
  C   C29       1.0  0.010632840454377398  0.6530035575676082  0.7114470542789351  1.0000
  C   C30       1.0  0.5106408227435181  0.8470037084655007  0.2885528993192851  1.0000
  C   C31       1.0  0.9893759837494117  0.15299810261487323  0.7885528172534111  1.0000
  C   C32       1.0  0.4893580043977224  0.3470045421123586  0.21144334156964115  1.0000
  C   C33       1.0  0.8654747168769604  0.6792989097210909  0.6244560131309814  1.0000
  C   C34       1.0  0.3654839742899156  0.8207123902273353  0.3755417903281782  1.0000
  C   C35       1.0  0.13453560940551768  0.17929415736402635  0.8755457614320934  1.0000
  C   C36       1.0  0.6345195118785796  0.3207087829367907  0.12445714429080826  1.0000
  N   N1        1.0  0.6551365022853446  0.43856505042142413  0.8811555077195197  1.0000
  N   N2        1.0  0.155141215188479  0.06143609061221872  0.11884603603736822  1.0000
  N   N3        1.0  0.3448642776322187  0.9385594077006093  0.6188456061288223  1.0000
  N   N4        1.0  0.8448574413779327  0.561430312182452  0.38115815611666204  1.0000
  O   O1        1.0  0.2589283737200602  0.4750589724082275  0.9550484068324679  1.0000
  O   O2        1.0  0.7589389607799646  0.02495048787701391  0.04496077233389431  1.0000
  O   O3        1.0  0.7410613720094759  0.9750549394896312  0.5449460472044694  1.0000
  O   O4        1.0  0.24105224630996958  0.5249394497143669  0.45504219945353  1.0000
  O   O5        1.0  0.8338788443084156  0.6086713656923735  0.7784237577446478  1.0000
  O   O6        1.0  0.3338987016904582  0.8913322445507461  0.22157149349170174  1.0000
  O   O7        1.0  0.16612885613874792  0.10866975140920233  0.7215749133986906  1.0000
  O   O8        1.0  0.6661053566982814  0.391334817297853  0.278425947783596  1.0000
  O   O9        1.0  0.6172338384841893  0.6528798084404742  0.6149666287944842  1.0000
  O   O10       1.0  0.11721560485908361  0.8471297064171212  0.3850278199956848  1.0000
  O   O11       1.0  0.3827955257277154  0.15287680153379313  0.8850273328884487  1.0000
  O   O12       1.0  0.8827688436018949  0.3471201307657241  0.11496776392041853  1.0000
  O   O13       1.0  0.0187625691533242  0.7273874028757491  0.5664673382404717  1.0000
  O   O14       1.0  0.5187458799876836  0.7726189706906581  0.43352996948914324  1.0000
  O   O15       1.0  0.9812672857587545  0.22738310011276752  0.9335284036103746  1.0000
  O   O16       1.0  0.48124218520209894  0.27261957117362107  0.06646514761476403  1.0000
