data_image0
_chemical_formula_structural       Fe6H6C18N18Cl6
_chemical_formula_sum              "Fe6 H6 C18 N18 Cl6"
_cell_length_a       8.102271706262933
_cell_length_b       14.645802259157414
_cell_length_c       14.76884217199534
_cell_angle_alpha    116.90734861497471
_cell_angle_beta     100.6694237939569
_cell_angle_gamma    100.63306360148411

_space_group_name_H-M_alt    "P 1"
_space_group_IT_number       1

loop_
  _space_group_symop_operation_xyz
  'x, y, z'

loop_
  _atom_site_type_symbol
  _atom_site_label
  _atom_site_symmetry_multiplicity
  _atom_site_fract_x
  _atom_site_fract_y
  _atom_site_fract_z
  _atom_site_occupancy
  Fe  Fe1       1.0  0.7123923119785331  0.42629092476048647  0.7136183040156042  1.0000
  Fe  Fe2       1.0  0.283537062978951  0.2895725098730111  0.5833287987317919  1.0000
  Fe  Fe3       1.0  0.006963468235028342  0.29065287971683756  0.7065138654786767  1.0000
  Fe  Fe4       1.0  0.2892741436654518  0.580063988272819  0.28970089382607284  1.0000
  Fe  Fe5       1.0  0.7104147146724885  0.7093571415172376  0.4175018466089925  1.0000
  Fe  Fe6       1.0  0.9996183579031596  0.7096486836949009  0.2909570820936338  1.0000
  H   H1        1.0  0.8058518735052689  0.5815439520002171  0.0008552763046694781  1.0000
  H   H2        1.0  0.19317945381070703  0.0015356771011382994  0.4207357677326302  1.0000
  H   H3        1.0  0.8102878009773066  0.00152241939373  0.5831042983018622  1.0000
  H   H4        1.0  0.22440736973742761  0.4164417877285586  0.4147120859820463  1.0000
  H   H5        1.0  0.7756883088585056  0.5834929320641816  0.5807231118204045  1.0000
  H   H6        1.0  0.1901729231501933  0.4142187064537807  0.00035310927090392575  1.0000
  C   C1        1.0  0.537434237620751  0.47392819209092346  0.9072991209574969  1.0000
  C   C2        1.0  0.4625168855440478  0.09574406448366798  0.5263906528175186  1.0000
  C   C3        1.0  0.6355395280960324  0.09579479468048652  0.5718676135578991  1.0000
  C   C4        1.0  0.06150587822691025  0.4284847240844413  0.5201679810197322  1.0000
  C   C5        1.0  0.9361192720336364  0.47585479102138345  0.5669661029798264  1.0000
  C   C6        1.0  0.3648429753671323  0.4264560373807526  0.9070222019997165  1.0000
  C   C7        1.0  0.45896031734482545  0.5216078596457053  0.09389349492394683  1.0000
  C   C8        1.0  0.5411126777005749  0.9073488550719871  0.47747644349529866  1.0000
  C   C9        1.0  0.368016806169699  0.907346392721621  0.4318362287784938  1.0000
  C   C10       1.0  0.9371311365384613  0.5704023134328436  0.4748137122544238  1.0000
  C   C11       1.0  0.0630689830273497  0.5233477183337598  0.4281973260599516  1.0000
  C   C12       1.0  0.6318944574067373  0.5682494339510027  0.09407878352768512  1.0000
  C   C13       1.0  0.6753527759234288  0.5463502614823524  0.0007379011877049333  1.0000
  C   C14       1.0  0.324321851387424  0.0016339871709049995  0.45456710345292367  1.0000
  C   C15       1.0  0.6792763386743986  0.0016453031557546003  0.5493855940880368  1.0000
  C   C16       1.0  0.12815861389114497  0.4508759835740646  0.4492385296283318  1.0000
  C   C17       1.0  0.8712461043638344  0.5485373345403842  0.5459427795389689  1.0000
  C   C18       1.0  0.32090281170317786  0.44879011371151006  0.00019740663388746342  1.0000
  N   N1        1.0  0.5320496858242906  0.43443632460783005  0.8024694383879877  1.0000
  N   N2        1.0  0.46811720623112757  0.20182416882546758  0.5673931583331681  1.0000
  N   N3        1.0  0.7363934561617215  0.201945983786146  0.636709402511251  1.0000
  N   N4        1.0  0.09514854179402477  0.36316504808173977  0.5600617299631027  1.0000
  N   N5        1.0  0.9012890810166636  0.4363231708974735  0.6320251706556945  1.0000
  N   N6        1.0  0.26492998570970633  0.3610745193455216  0.8016234252780807  1.0000
  N   N7        1.0  0.46410695158991905  0.5626911798994242  0.19876194019202845  1.0000
  N   N8        1.0  0.5358474019030626  0.8014089238782204  0.4362278516533352  1.0000
  N   N9        1.0  0.2671201995030543  0.8014253126064474  0.366601027452795  1.0000
  N   N10       1.0  0.9019041638575871  0.6356488654405793  0.434840610933229  1.0000
  N   N11       1.0  0.09850535106210151  0.5639016284161328  0.36375235269670014  1.0000
  N   N12       1.0  0.7326819001316096  0.6337457144768804  0.19902007953572834  1.0000
  N   N13       1.0  0.3696935399657804  0.36838655245966107  0.7433077970287914  1.0000
  N   N14       1.0  0.6316737852722909  0.26112710932657274  0.6315140633500322  1.0000
  N   N15       1.0  0.9975269903361978  0.37061680588040247  0.625222148734679  1.0000
  N   N16       1.0  0.6281578780258601  0.6280341419246297  0.25760618810102204  1.0000
  N   N17       1.0  0.3717809164342968  0.7423615894252079  0.37175428557051776  1.0000
  N   N18       1.0  0.0001269711909444073  0.6292355558757591  0.37004237691506614  1.0000
  Cl  Cl1       1.0  0.5005925918641269  0.42858891103058716  0.5834045647740213  1.0000
  Cl  Cl2       1.0  0.9297150105889005  0.43132245837738037  0.8455953560903356  1.0000
  Cl  Cl3       1.0  0.0739347561053165  0.1462431357972491  0.57343219659807  1.0000
  Cl  Cl4       1.0  0.4998568501168492  0.5732767283689241  0.4234206181660056  1.0000
  Cl  Cl5       1.0  0.07501061969654893  0.5749270399410944  0.14949915905981473  1.0000
  Cl  Cl6       1.0  0.9246482894897246  0.8515438904381796  0.4235287571707149  1.0000
