data_image0
_chemical_formula_structural       V4Cu2P4H28C24N4O20
_chemical_formula_sum              "V4 Cu2 P4 H28 C24 N4 O20"
_cell_length_a       9.416539560376604
_cell_length_b       9.744221789638454
_cell_length_c       12.055142314797898
_cell_angle_alpha    106.22392465151292
_cell_angle_beta     105.15211113185094
_cell_angle_gamma    108.63292766524734

_space_group_name_H-M_alt    "P 1"
_space_group_IT_number       1

loop_
  _space_group_symop_operation_xyz
  'x, y, z'

loop_
  _atom_site_type_symbol
  _atom_site_label
  _atom_site_symmetry_multiplicity
  _atom_site_fract_x
  _atom_site_fract_y
  _atom_site_fract_z
  _atom_site_occupancy
  V   V1        1.0  0.2131180228110523  0.14339762626963193  0.8855531998411409  1.0000
  V   V2        1.0  0.8277482503079696  0.2581535015919771  0.11463499290827174  1.0000
  V   V3        1.0  0.013926014764813002  0.05042455142035611  0.049586778284826515  1.0000
  V   V4        1.0  0.4645360325517133  0.0011995422836435007  0.9507060190299516  1.0000
  Cu  Cu1       1.0  0.9059232930148369  0.2228331338613431  0.7060758320610888  1.0000
  Cu  Cu2       1.0  0.6996647825515154  0.5167245254389458  0.2939255349791239  1.0000
  P   P1        1.0  0.7022730777612267  0.9976439649305248  0.8051197884500355  1.0000
  P   P2        1.0  0.3972582512155399  0.19286114369428736  0.19507214828721692  1.0000
  P   P3        1.0  0.08445589132330165  0.41084980152184175  0.004623913099720821  1.0000
  P   P4        1.0  0.5797868341001476  0.40628219993488573  0.9953647166285154  1.0000
  H   H1        1.0  0.22189611053791233  0.5241551239288429  0.8206231846350678  1.0000
  H   H2        1.0  0.900757466873401  0.7027662838821274  0.17912593835227855  1.0000
  H   H3        1.0  0.4174010503527441  0.6613146648938725  0.7390825950302614  1.0000
  H   H4        1.0  0.17768872351559392  0.9214694958863846  0.26036009684477796  1.0000
  H   H5        1.0  0.3603987690672383  0.53907507899725  0.507803331203107  1.0000
  H   H6        1.0  0.35208084332806067  0.031038623505011707  0.4916246245927241  1.0000
  H   H7        1.0  0.11322730819320273  0.28918213545879473  0.3711752863541166  1.0000
  H   H8        1.0  0.2418394888076136  0.9180363344524524  0.6285143619708792  1.0000
  H   H9        1.0  0.9138789617560265  0.065291988594339  0.2758471188716954  1.0000
  H   H10       1.0  0.13770980320892795  0.7896801558378004  0.7242249703026149  1.0000
  H   H11       1.0  0.6758702127816039  0.8042952481835857  0.18024985366810142  1.0000
  H   H12       1.0  0.9953071148448698  0.6241308610778873  0.8198057081373735  1.0000
  H   H13       1.0  0.5252360374940608  0.7224692382205761  0.3116690185645795  1.0000
  H   H14       1.0  0.7135801349960219  0.4104679211456315  0.6882151334998171  1.0000
  H   H15       1.0  0.613619302361549  0.916179288971435  0.5326671687776497  1.0000
  H   H16       1.0  0.5809909357784734  0.38330062311772656  0.467278887915427  1.0000
  H   H17       1.0  0.21315391579500456  0.6928669440830578  0.0688667290215507  1.0000
  H   H18       1.0  0.6443041651057797  0.6241967547987954  0.9313161421210057  1.0000
  H   H19       1.0  0.351741994296674  0.6043295980397475  0.058817711001523866  1.0000
  H   H20       1.0  0.7929335413539819  0.5457612337513212  0.9412361478207533  1.0000
  H   H21       1.0  0.2882472599052975  0.6284121951745548  0.18810118270248216  1.0000
  H   H22       1.0  0.6002254891945215  0.44070481517667304  0.8119408386410927  1.0000
  H   H23       1.0  0.8370714318075231  0.8580816582462919  0.7135371766419853  1.0000
  H   H24       1.0  0.6239127385319634  0.14518966942461026  0.286422183334878  1.0000
  H   H25       1.0  0.6205339042121526  0.751120204388052  0.6359298000307521  1.0000
  H   H26       1.0  0.4851783976724775  0.11560522847616282  0.36415865647695267  1.0000
  H   H27       1.0  0.7237074474863618  0.7544939635020641  0.7848479707893221  1.0000
  H   H28       1.0  0.4394645907787976  0.9701126570540244  0.21521913328611236  1.0000
  C   C1        1.0  0.20459602282521422  0.4757263369007633  0.7226838930736508  1.0000
  C   C2        1.0  0.9814563363528565  0.7525599670156069  0.277084559308861  1.0000
  C   C3        1.0  0.3131417777113797  0.5502392082002816  0.6759921755353491  1.0000
  C   C4        1.0  0.13666557292179263  0.8737555278632815  0.32360421220609953  1.0000
  C   C5        1.0  0.2800805567923491  0.4831562876632419  0.548519817982829  1.0000
  C   C6        1.0  0.2310818947183578  0.9344203968318541  0.4510706399582107  1.0000
  C   C7        1.0  0.14206713877334218  0.3428088444728986  0.4714312352495755  1.0000
  C   C8        1.0  0.17032177956526356  0.8713316089027433  0.528311029580202  1.0000
  C   C9        1.0  0.03949723364854666  0.2740204522827769  0.525100525214569  1.0000
  C   C10       1.0  0.01416610549276243  0.7488263143120123  0.4748089453573743  1.0000
  C   C11       1.0  0.894053094749097  0.12346058976789463  0.45617185730184673  1.0000
  C   C12       1.0  0.9377315685804319  0.6673042540565677  0.5438625223194792  1.0000
  C   C13       1.0  0.8469608124086179  0.027060781749128203  0.33093993471046457  1.0000
  C   C14       1.0  0.01580552594677447  0.6962572144663002  0.6691438106226503  1.0000
  C   C15       1.0  0.7127229601824753  0.8819282241787934  0.2771399159350026  1.0000
  C   C16       1.0  0.9353915378132314  0.6048155794402278  0.7228955596602236  1.0000
  C   C17       1.0  0.6285693832220929  0.8365820565682256  0.34969518891126233  1.0000
  C   C18       1.0  0.7788159990624453  0.4866373754119097  0.6502600373111138  1.0000
  C   C19       1.0  0.6777065941146176  0.9407769637217528  0.4723912949547044  1.0000
  C   C20       1.0  0.7053185000134475  0.4682095325298191  0.5275847714578746  1.0000
  C   C21       1.0  0.2505903905036533  0.6035118867074801  0.08796425710720263  1.0000
  C   C22       1.0  0.6626521108133189  0.5157515236664239  0.9121078321342113  1.0000
  C   C23       1.0  0.7220941719580908  0.8232440928166301  0.7268220300172888  1.0000
  C   C24       1.0  0.49568193080121153  0.0968427347173986  0.2732113440412079  1.0000
  N   N1        1.0  0.8076974912273798  0.0801753604814763  0.5244778726393591  1.0000
  N   N2        1.0  0.7830962493782893  0.5556391661506485  0.47551380407306726  1.0000
  N   N3        1.0  0.07080361643900808  0.342576756225853  0.6485308962819405  1.0000
  N   N4        1.0  0.9219509480032643  0.6937565877878742  0.35136157411847085  1.0000
  O   O1        1.0  0.0779286451672547  0.11702167032528621  0.7562688775633364  1.0000
  O   O2        1.0  0.8220388360212497  0.3611850665123698  0.2439467504809515  1.0000
  O   O3        1.0  0.7106746990696066  0.10157059984592112  0.7302932343955109  1.0000
  O   O4        1.0  0.4802662505676949  0.3715891474314006  0.26993832759258407  1.0000
  O   O5        1.0  0.004098105065239138  0.3945337130298727  0.8703353179039583  1.0000
  O   O6        1.0  0.6334116810253577  0.524109684323378  0.12964815256334122  1.0000
  O   O7        1.0  0.968224622254482  0.4134721452716264  0.07609559012896484  1.0000
  O   O8        1.0  0.39207213692783677  0.3372643879721693  0.923751722078315  1.0000
  O   O9        1.0  0.837701573588582  0.08386816903540513  0.9380460153546155  1.0000
  O   O10       1.0  0.3997975986889415  0.1464152398434777  0.06213198106800632  1.0000
  O   O11       1.0  0.5343937502042593  0.9378409830938851  0.8158954649811678  1.0000
  O   O12       1.0  0.2186643277101439  0.1220854264833093  0.18436594098114514  1.0000
  O   O13       1.0  0.30743375725926836  0.028211662039503014  0.8303312145237884  1.0000
  O   O14       1.0  0.9773018748376145  0.19816138162669017  0.1698238363751799  1.0000
  O   O15       1.0  0.15352017544378782  0.2877834776468334  0.01386506584633913  1.0000
  O   O16       1.0  0.6397982056689243  0.27408112811847485  0.9862554995181443  1.0000
  O   O17       1.0  0.9101095921175144  0.8867701561449695  0.05445222260215139  1.0000
  O   O18       1.0  0.35595546120725174  0.8328931795337767  0.9462002662250346  1.0000
  O   O19       1.0  0.07988653168803954  0.9929617193813771  0.9285658900450432  1.0000
  O   O20       1.0  0.6515115907808706  0.06486317790197661  0.07178135595372481  1.0000
