data_image0
_chemical_formula_structural       Zn4H36C48N6O16
_chemical_formula_sum              "Zn4 H36 C48 N6 O16"
_cell_length_a       9.673438494242006
_cell_length_b       10.8969068215469
_cell_length_c       12.077
_cell_angle_alpha    83.79202909149961
_cell_angle_beta     79.09158028526932
_cell_angle_gamma    72.65111893327067

_space_group_name_H-M_alt    "P 1"
_space_group_IT_number       1

loop_
  _space_group_symop_operation_xyz
  'x, y, z'

loop_
  _atom_site_type_symbol
  _atom_site_label
  _atom_site_symmetry_multiplicity
  _atom_site_fract_x
  _atom_site_fract_y
  _atom_site_fract_z
  _atom_site_occupancy
  Zn  Zn1       1.0  0.0971558506765575  0.1317637471616777  0.3755585557025257  1.0000
  Zn  Zn2       1.0  0.9028439044457315  0.8682352872455112  0.6244411616192097  1.0000
  Zn  Zn3       1.0  0.39195241715697904  0.06618085300581811  0.16429469488049625  1.0000
  Zn  Zn4       1.0  0.6080483907466815  0.933818181401371  0.8357048628634871  1.0000
  H   H1        1.0  0.22266286316659745  0.9215248792476771  0.5881651071864341  1.0000
  H   H2        1.0  0.7773365795235279  0.0784751180562111  0.4118337355218529  1.0000
  H   H3        1.0  0.6196765689309559  0.8487212227474502  0.3526957406829112  1.0000
  H   H4        1.0  0.38032256132700587  0.15127973745313741  0.6473030554321113  1.0000
  H   H5        1.0  0.4664433042418993  0.7621385144872761  0.6558301930061886  1.0000
  H   H6        1.0  0.5335561384482262  0.23786148281661212  0.3441694777222892  1.0000
  H   H7        1.0  0.6325199061024237  0.7431954477316083  0.5581355837912625  1.0000
  H   H8        1.0  0.3674795365877088  0.2568045495722799  0.44186243089681204  1.0000
  H   H9        1.0  0.7277373372179812  0.5683218524675695  0.4380892283034967  1.0000
  H   H10       1.0  0.2722624179043081  0.4316771819396267  0.5619113170384438  1.0000
  H   H11       1.0  0.28648605576844943  0.6377534447285669  0.6226125641421946  1.0000
  H   H12       1.0  0.7135126465724684  0.3622455896786292  0.3773881407774979  1.0000
  H   H13       1.0  0.44530021422794885  0.433946729458718  0.15371497899554495  1.0000
  H   H14       1.0  0.5547015309722099  0.5660494162583802  0.8462896866494206  1.0000
  H   H15       1.0  0.26693952905896623  0.7822149106574373  0.33263851201725475  1.0000
  H   H16       1.0  0.733060653980367  0.2177860495431503  0.6673609525402213  1.0000
  H   H17       1.0  0.0229063723622929  0.5053801839565395  0.3669648747049621  1.0000
  H   H18       1.0  0.9770927578956687  0.494620776244048  0.633035577450471  1.0000
  H   H19       1.0  0.5937180760698767  0.6177280820834383  0.2271003158476645  1.0000
  H   H20       1.0  0.4062824194016272  0.3822719152204499  0.7728991953030685  1.0000
  H   H21       1.0  0.4772863198335531  0.7651774164687168  0.17827449603912274  1.0000
  H   H22       1.0  0.5227134352887362  0.2348216179384792  0.8217260493028249  1.0000
  H   H23       1.0  0.5414092419290029  0.6316063122033668  0.09245949983010603  1.0000
  H   H24       1.0  0.4585884076305433  0.3683927222038221  0.9075413646673456  1.0000
  H   H25       1.0  0.2623083370002206  0.800209524164771  0.0449514717598589  1.0000
  H   H26       1.0  0.7376935236848184  0.1997895102424181  0.9550479264063726  1.0000
  H   H27       1.0  0.8905231161029549  0.7285584550130224  0.9436532882160478  1.0000
  H   H28       1.0  0.1094780042328694  0.2714396164974744  0.0563471441413981  1.0000
  H   H29       1.0  0.8241389485945023  0.0014905640897567001  0.1935559853272864  1.0000
  H   H30       1.0  0.1758629120905368  0.9985084703174324  0.8064434128389449  1.0000
  H   H31       1.0  0.23662774445296003  0.5586293342973577  0.9570439408374227  1.0000
  H   H32       1.0  0.7633702175387499  0.44136873721313213  0.04295614223308061  1.0000
  H   H33       1.0  0.2855775267800595  0.6823634858876702  0.8651675195530686  1.0000
  H   H34       1.0  0.7144246463371432  0.3176345856228195  0.1348335812468235  1.0000
  H   H35       1.0  0.13503951497614963  0.6280869247692209  0.8464395563245475  1.0000
  H   H36       1.0  0.8649596152818121  0.3719140354313666  0.1535600678106803  1.0000
  C   C1        1.0  0.3031634544120578  0.9262565536256276  0.5129974375629018  1.0000
  C   C2        1.0  0.6968356758459039  0.07374440657496  0.4870013585521278  1.0000
  C   C3        1.0  0.5062824703703799  0.8897300302530199  0.39113870987772964  1.0000
  C   C4        1.0  0.493716659887582  0.1102709299475748  0.6088609142575051  1.0000
  C   C5        1.0  0.517688724761854  0.7425695648773853  0.5680823722988606  1.0000
  C   C6        1.0  0.4823110303604352  0.2574294695298036  0.4319165170026693  1.0000
  C   C7        1.0  0.5083511152829914  0.6162163342663121  0.5341678048993969  1.0000
  C   C8        1.0  0.4916469621935989  0.3837846259342754  0.4658311507933846  1.0000
  C   C9        1.0  0.6276657114539219  0.5384017633454832  0.4644606644043847  1.0000
  C   C10       1.0  0.3723316256734535  0.461598233958405  0.5355384974593989  1.0000
  C   C11       1.0  0.3807861404366761  0.5771593183692332  0.5694020331831808  1.0000
  C   C12       1.0  0.6192129898212855  0.4228416418313543  0.4305975909520471  1.0000
  C   C13       1.0  0.23583209883212672  0.3213504039835229  0.2480837629849759  1.0000
  C   C14       1.0  0.7641670314258349  0.6786505562170647  0.7519166891704573  1.0000
  C   C15       1.0  0.23490398343309946  0.4562695636271954  0.2593998892289662  1.0000
  C   C16       1.0  0.7650968244705609  0.5437294707799936  0.7406029805958313  1.0000
  C   C17       1.0  0.3576910980899798  0.4976442718783077  0.20959956474715824  1.0000
  C   C18       1.0  0.6423092818966439  0.5023528367354828  0.7904035578418984  1.0000
  C   C19       1.0  0.3701104900327294  0.616482093755181  0.2327609976125373  1.0000
  C   C20       1.0  0.6298906303030949  0.3835159777553089  0.7672410907853048  1.0000
  C   C21       1.0  0.2578163044044999  0.6915081158362568  0.309495907803921  1.0000
  C   C22       1.0  0.7421841910669968  0.3084918814676314  0.6905044313670174  1.0000
  C   C23       1.0  0.1314816413921704  0.6541881655838324  0.355896890521052  1.0000
  C   C24       1.0  0.868517801297955  0.3458118317200558  0.6441036082276312  1.0000
  C   C25       1.0  0.11892297945226458  0.5368437964868136  0.3292557121509248  1.0000
  C   C26       1.0  0.8810775160192394  0.4631562008170818  0.670745455040219  1.0000
  C   C27       1.0  0.5022060344989966  0.660255377683022  0.17987079962518498  1.0000
  C   C28       1.0  0.49779372062329236  0.339743656724167  0.8201305737369609  1.0000
  C   C29       1.0  0.013243722850233992  0.7343560560365461  0.4393198514421216  1.0000
  C   C30       1.0  0.9867557198398913  0.2656439412673421  0.5606798192863636  1.0000
  C   C31       1.0  0.10954801227185841  0.9777436030076245  0.19570851202959721  1.0000
  C   C32       1.0  0.890452795631802  0.0222554313995644  0.8042918737345914  1.0000
  C   C33       1.0  0.04967713143552298  0.9048802469120716  0.12852868889943642  1.0000
  C   C34       1.0  0.9503250416816799  0.0951178245984181  0.8714715838802506  1.0000
  C   C35       1.0  0.14434037071657707  0.8156072052754197  0.0528166648716564  1.0000
  C   C36       1.0  0.8556614899684547  0.1843918291317692  0.947182733294575  1.0000
  C   C37       1.0  0.08934714910410695  0.7481716978710509  0.9876178775576464  1.0000
  C   C38       1.0  0.9106526060181892  0.2518273365361381  0.012381839764096028  1.0000
  C   C39       1.0  0.9368543387595666  0.7760225219874002  0.9962355576034484  1.0000
  C   C40       1.0  0.06314752192547252  0.2239765124197959  0.0037654966031866067  1.0000
  C   C41       1.0  0.8416094011007048  0.8675198549982923  0.06946218187459859  1.0000
  C   C42       1.0  0.15839351236570562  0.1324791794088966  0.9305370567138809  1.0000
  C   C43       1.0  0.8983602453143863  0.9297720894729764  0.13744314111979614  1.0000
  C   C44       1.0  0.10164087502144531  0.0702259820375133  0.8625564632174375  1.0000
  C   C45       1.0  0.6798485453153448  0.9067761905120264  0.07133110046247981  1.0000
  C   C46       1.0  0.3201533153696944  0.0932228438951626  0.9286682977037516  1.0000
  C   C47       1.0  0.1917123126951097  0.6493602015360054  0.909440063662288  1.0000
  C   C48       1.0  0.808288495208558  0.3506388328711836  0.09055949408169535  1.0000
  N   N1        1.0  0.279796960245001  0.0055992443035748  0.4229929622637627  1.0000
  N   N2        1.0  0.7202011172315893  0.9944017158970128  0.577006821449224  1.0000
  N   N3        1.0  0.40731918748201684  0.9828883600693602  0.3462449016654078  1.0000
  N   N4        1.0  0.5926809955573233  0.0171126001312274  0.6537545628920681  1.0000
  N   N5        1.0  0.445064804049629  0.8518573772954738  0.4957667503947505  1.0000
  N   N6        1.0  0.5549356914218677  0.1481426200084144  0.5042327607559828  1.0000
  O   O1        1.0  0.11703738410309229  0.2897606519857021  0.2826676642593782  1.0000
  O   O2        1.0  0.8829613182378254  0.7102383824214868  0.7173322126401162  1.0000
  O   O3        1.0  0.35888653718375  0.2439662478870588  0.20864876478101022  1.0000
  O   O4        1.0  0.6411100595944248  0.7560327865201302  0.7913522592941932  1.0000
  O   O5        1.0  0.057635917605253405  0.8059204644854034  0.49737289664766854  1.0000
  O   O6        1.0  0.9423632126527083  0.19408049571518401  0.5026275555077646  1.0000
  O   O7        1.0  0.8839107429357043  0.7281232257051613  0.4531413616718822  1.0000
  O   O8        1.0  0.11608944010362879  0.27187773449543334  0.5468597589259971  1.0000
  O   O9        1.0  0.24547979073566495  0.9697332653702376  0.16899678989631894  1.0000
  O   O10       1.0  0.7545210171680027  0.0302657690369514  0.8310044238880748  1.0000
  O   O11       1.0  0.021208082631922302  0.0421642835441318  0.2764371571581776  1.0000
  O   O12       1.0  0.9787924128395745  0.9578357137597564  0.7235623539925555  1.0000
  O   O13       1.0  0.6036846490885351  0.9819485728913193  0.14936662027155023  1.0000
  O   O14       1.0  0.3963155339507979  0.0180523873092682  0.8506320162657205  1.0000
  O   O15       1.0  0.6255473962609487  0.8660004040075719  0.00016048107007550608  1.0000
  O   O16       1.0  0.3744544644240833  0.133998630399617  0.9998389170961559  1.0000
