data_image0
_chemical_formula_structural       Zn4H64C104N16O16
_chemical_formula_sum              "Zn4 H64 C104 N16 O16"
_cell_length_a       18.36325382210516
_cell_length_b       22.789720891505507
_cell_length_c       22.78975830882742
_cell_angle_alpha    63.20195242806365
_cell_angle_beta     66.22256802374604
_cell_angle_gamma    66.22256957228942

_space_group_name_H-M_alt    "P 1"
_space_group_IT_number       1

loop_
  _space_group_symop_operation_xyz
  'x, y, z'

loop_
  _atom_site_type_symbol
  _atom_site_label
  _atom_site_symmetry_multiplicity
  _atom_site_fract_x
  _atom_site_fract_y
  _atom_site_fract_z
  _atom_site_occupancy
  Zn  Zn1       1.0  0.5796214381079637  0.9673404299582699  0.46733905776861207  1.0000
  Zn  Zn2       1.0  0.014240879401967315  0.5326814721718663  0.03268016702210018  1.0000
  Zn  Zn3       1.0  0.985760624527842  0.4673222424735572  0.9673220713130062  1.0000
  Zn  Zn4       1.0  0.4203807897743132  0.032659126556922  0.5326587154260097  1.0000
  H   H1        1.0  0.2911142882675719  0.12106894795092418  0.372089974564517  1.0000
  H   H2        1.0  0.7842601787238053  0.3787897419484595  0.12788759627845545  1.0000
  H   H3        1.0  0.21573904286054804  0.3721096757898509  0.12121646615269546  1.0000
  H   H4        1.0  0.7088839042840078  0.12791070067642346  0.3789298608464834  1.0000
  H   H5        1.0  0.7088847952496097  0.8789311422077902  0.6279094583384861  1.0000
  H   H6        1.0  0.21573894370929733  0.6212139073119403  0.8721093071619989  1.0000
  H   H7        1.0  0.78425718626805  0.6278863890354743  0.8787892641713526  1.0000
  H   H8        1.0  0.2911150146451719  0.8720898947890773  0.6210689543245705  1.0000
  H   H9        1.0  0.5040764598450663  0.08144565753684671  0.16378492794706298  1.0000
  H   H10       1.0  0.748849713325953  0.41876402123574513  0.33607094294882967  1.0000
  H   H11       1.0  0.25115261853325427  0.16393065632257017  0.0812350451977579  1.0000
  H   H12       1.0  0.4959255439033114  0.33621801130900764  0.4185524053948483  1.0000
  H   H13       1.0  0.4959228510252558  0.9185518977954247  0.8362169144816889  1.0000
  H   H14       1.0  0.2511528433070112  0.5812345407733801  0.6639293748890082  1.0000
  H   H15       1.0  0.7488468961245192  0.83606994206626  0.9187640127141916  1.0000
  H   H16       1.0  0.5040776468071116  0.6637841342018191  0.5814473712937628  1.0000
  H   H17       1.0  0.5421474694889596  0.038785250541934616  0.2722235265659024  1.0000
  H   H18       1.0  0.8528256271919616  0.46130256614512183  0.2276655952142263  1.0000
  H   H19       1.0  0.1471722131758781  0.2723351070190319  0.038702118149892294  1.0000
  H   H20       1.0  0.4578499826815089  0.2277799528589171  0.4612135236397208  1.0000
  H   H21       1.0  0.45784912886569634  0.9612133198181212  0.7277774186146574  1.0000
  H   H22       1.0  0.14717322826323448  0.5387000856858961  0.7723336101285483  1.0000
  H   H23       1.0  0.8528255133037417  0.7276655201840186  0.9612992662910926  1.0000
  H   H24       1.0  0.5421487074768547  0.7722232311247412  0.538787245936625  1.0000
  H   H25       1.0  0.2511161893142457  0.16302032333146604  0.2644924312435819  1.0000
  H   H26       1.0  0.6784666897385636  0.3369755826475824  0.23545861258791942  1.0000
  H   H27       1.0  0.3215319788927574  0.26454038020058596  0.16302856127500576  1.0000
  H   H28       1.0  0.7488834374381097  0.23550689983739667  0.33697714683278696  1.0000
  H   H29       1.0  0.7488820323470333  0.836978734259503  0.7355064424622031  1.0000
  H   H30       1.0  0.32153216585840033  0.6630270638142619  0.764540156361747  1.0000
  H   H31       1.0  0.6784629957299729  0.7354577190360772  0.8369757645596396  1.0000
  H   H32       1.0  0.2511158113758968  0.7644926581686775  0.6630207218366381  1.0000
  H   H33       1.0  0.4936415314213746  0.11720803866514734  0.939324923996253  1.0000
  H   H34       1.0  0.5500014920081782  0.38271214310813667  0.560642590538656  1.0000
  H   H35       1.0  0.4500138724202786  0.939347328737945  0.11729649801522873  1.0000
  H   H36       1.0  0.5063711724191436  0.5606809189992604  0.3827809461664484  1.0000
  H   H37       1.0  0.506368756601354  0.8827813384558071  0.060679290688724956  1.0000
  H   H38       1.0  0.45001770016232706  0.6172975706133884  0.4393471536696155  1.0000
  H   H39       1.0  0.5499994950759016  0.060643624796711  0.8827108110641435  1.0000
  H   H40       1.0  0.49364218856278813  0.4393246849730019  0.6172082086479946  1.0000
  H   H41       1.0  0.42185882745257425  0.1883150400444364  0.011221416892254976  1.0000
  H   H42       1.0  0.6210676310428768  0.3116494870065694  0.4886994401704358  1.0000
  H   H43       1.0  0.37893434852443875  0.0112968456713887  0.18835237100828547  1.0000
  H   H44       1.0  0.5781470870394754  0.48877966947306833  0.3116761077233861  1.0000
  H   H45       1.0  0.5781442490618788  0.8116763315162459  0.9887780931081095  1.0000
  H   H46       1.0  0.37893599180051757  0.6883531291501725  0.5112969067753851  1.0000
  H   H47       1.0  0.6210664836878976  0.9886996780481071  0.8116490104006501  1.0000
  H   H48       1.0  0.4218586547175035  0.5112218481949854  0.6883143478331563  1.0000
  H   H49       1.0  0.6794844096235337  0.8219086986143938  0.49489289012358045  1.0000
  H   H50       1.0  0.9963514508267437  0.6781086326040011  0.005126464078117074  1.0000
  H   H51       1.0  0.003651345532340159  0.49487395959067737  0.8218930388304881  1.0000
  H   H52       1.0  0.3205243589003075  0.005104325045408602  0.6780907776759407  1.0000
  H   H53       1.0  0.3205253988513164  0.17809137436497477  0.5051052390052817  1.0000
  H   H54       1.0  0.0036500770940577545  0.32188948805091394  0.9948796591202368  1.0000
  H   H55       1.0  0.9963482691053044  0.5051282328102502  0.17811051812997666  1.0000
  H   H56       1.0  0.6794831288582446  0.9948937281976881  0.32190991785553535  1.0000
  H   H57       1.0  0.7772231493186654  0.7454967458882535  0.42640122029915517  1.0000
  H   H58       1.0  0.9491476565174751  0.7544992163310554  0.07360955919346421  1.0000
  H   H59       1.0  0.05084404383406849  0.4263877670736847  0.7455097256942976  1.0000
  H   H60       1.0  0.22277798574496194  0.0735962017630669  0.7544999606515647  1.0000
  H   H61       1.0  0.2227802313884126  0.2544992466335643  0.5735986950536045  1.0000
  H   H62       1.0  0.050842855760286944  0.24550350732598497  0.9263954120318942  1.0000
  H   H63       1.0  0.9491444139964713  0.5736139611223267  0.25449769199688893  1.0000
  H   H64       1.0  0.7772226198230638  0.9264028299370114  0.24549682926609495  1.0000
  C   C1        1.0  0.33731028434776533  0.11313587592949399  0.32590767767931794  1.0000
  C   C2        1.0  0.776235260763947  0.3868126466300836  0.17403027558815864  1.0000
  C   C3        1.0  0.22376248987787054  0.3259726103985869  0.11319169638768758  1.0000
  C   C4        1.0  0.6626912627935296  0.17408965054368516  0.3868614440953309  1.0000
  C   C5        1.0  0.6626915132445178  0.8868631401405555  0.6740878521477214  1.0000
  C   C6        1.0  0.22376283352405577  0.6131905397994188  0.8259706876403924  1.0000
  C   C7        1.0  0.7762329542343094  0.6740295776465645  0.8868114705657815  1.0000
  C   C8        1.0  0.33731043255060916  0.8259078574210081  0.6131365689728694  1.0000
  C   C9        1.0  0.45738875996982387  0.08992360760441903  0.20956150496143516  1.0000
  C   C10       1.0  0.756471983268426  0.4102315240226133  0.2903178258875274  1.0000
  C   C11       1.0  0.24352749286246225  0.2096867168593306  0.08976934968373479  1.0000
  C   C12       1.0  0.5426128520778378  0.29043850276855915  0.4100750653614325  1.0000
  C   C13       1.0  0.5426103873048761  0.9100744154504454  0.7904366649836374  1.0000
  C   C14       1.0  0.243526009196728  0.5897701381940266  0.7096843114028673  1.0000
  C   C15       1.0  0.756470868119912  0.790317477737908  0.9102301844287055  1.0000
  C   C16       1.0  0.45738861463725305  0.7095615883451246  0.5899244657189584  1.0000
  C   C17       1.0  0.41906504627088026  0.077444864770996  0.3288181859644013  1.0000
  C   C18       1.0  0.8251265916663189  0.42256800325836963  0.17109867688576952  1.0000
  C   C19       1.0  0.17487288858556843  0.32890089518078  0.07743585967233464  1.0000
  C   C20       1.0  0.580928600377227  0.1711857748328995  0.4225569480148153  1.0000
  C   C21       1.0  0.580929105128341  0.9225557717379544  0.6711839239966936  1.0000
  C   C22       1.0  0.17487318926053058  0.5774336194057029  0.8289002610893873  1.0000
  C   C23       1.0  0.8251254969548685  0.6710976839492632  0.9225658137309338  1.0000
  C   C24       1.0  0.41906456221812516  0.8288179418393185  0.5774453830925168  1.0000
  C   C25       1.0  0.4430571732504376  0.0510978463497622  0.3933154626367498  1.0000
  C   C26       1.0  0.8873693294645476  0.4488406337085849  0.10659345286047982  1.0000
  C   C27       1.0  0.11262914171715724  0.39340632993035024  0.05116413747735038  1.0000
  C   C28       1.0  0.5569564899991449  0.1066795351285919  0.4488948733130941  1.0000
  C   C29       1.0  0.5569561354500793  0.9488949863677406  0.6066778356418822  1.0000
  C   C30       1.0  0.11262860080253038  0.5511630365510173  0.893405147063696  1.0000
  C   C31       1.0  0.8873677220559628  0.606593296919982  0.9488393061250451  1.0000
  C   C32       1.0  0.4430565907811541  0.8933158538920412  0.5510977610122011  1.0000
  C   C33       1.0  0.3750699106900726  0.12493057637268377  0.2070336877866269  1.0000
  C   C34       1.0  0.7067066380307453  0.375169086624453  0.2928671457936574  1.0000
  C   C35       1.0  0.2932970298774221  0.2071308725285732  0.12483082192464684  1.0000
  C   C36       1.0  0.6249319712512575  0.2929681652522262  0.37506729006147305  1.0000
  C   C37       1.0  0.6249295651935399  0.8750664575452873  0.7929674631947634  1.0000
  C   C38       1.0  0.2932967815922609  0.6248304649990503  0.7071302400965535  1.0000
  C   C39       1.0  0.706703143982935  0.7928676724180762  0.8751680885564779  1.0000
  C   C40       1.0  0.3750707888856298  0.7070334505517978  0.6249311160457722  1.0000
  C   C41       1.0  0.4786215741753352  0.06620739614755419  0.2698405956501588  1.0000
  C   C42       1.0  0.8143326279828571  0.4338856632319831  0.23005306963221991  1.0000
  C   C43       1.0  0.18566990066674555  0.2699474636766723  0.06611890900217077  1.0000
  C   C44       1.0  0.5213835384029721  0.2301628074528495  0.4337875048569515  1.0000
  C   C45       1.0  0.5213828964496232  0.9337870672697121  0.7301601064600404  1.0000
  C   C46       1.0  0.18567023340980882  0.5661174982615905  0.7699459079855941  1.0000
  C   C47       1.0  0.8143315651977401  0.7300526596520387  0.9338832404368561  1.0000
  C   C48       1.0  0.47862246735479635  0.769839820397202  0.5662098130524811  1.0000
  C   C49       1.0  0.31509213216873627  0.136462798490534  0.2659948011610425  1.0000
  C   C50       1.0  0.7173533105260785  0.36355167886390666  0.2339352653959211  1.0000
  C   C51       1.0  0.28265164621480215  0.26606086063463147  0.1364530392191625  1.0000
  C   C52       1.0  0.6849110068641552  0.23400735156716473  0.36353294165273553  1.0000
  C   C53       1.0  0.6849100563723169  0.8635332150304863  0.7340068106754387  1.0000
  C   C54       1.0  0.282651174598513  0.6364519537530597  0.7660603315678074  1.0000
  C   C55       1.0  0.7173500471445919  0.7339367224984699  0.8635510833525114  1.0000
  C   C56       1.0  0.315092349710163  0.7659942403143346  0.6364635252298851  1.0000
  C   C57       1.0  0.4784643041000152  0.021591345436981196  0.02161333032431403  1.0000
  C   C58       1.0  0.5215536827608745  0.4783942286868453  0.47839741653228185  1.0000
  C   C59       1.0  0.5215504834824005  0.9783970307953423  0.9783929462246659  1.0000
  C   C60       1.0  0.4784679563650657  0.5216134188857922  0.5215911628954544  1.0000
  C   C61       1.0  0.3954198786573642  0.1047406019451032  0.10469588158601086  1.0000
  C   C62       1.0  0.6045833864813874  0.3953067801461003  0.39525259646816097  1.0000
  C   C63       1.0  0.6045799901597705  0.8952533542554449  0.8953052419013472  1.0000
  C   C64       1.0  0.395421428953327  0.6046957989039256  0.6047407448146275  1.0000
  C   C65       1.0  0.46859013484122153  0.09268402546653928  0.9937854162936333  1.0000
  C   C66       1.0  0.5548998911984526  0.4072803994750487  0.506185928575377  1.0000
  C   C67       1.0  0.4451141627924572  0.9938077712460328  0.0927243377742568  1.0000
  C   C68       1.0  0.5314234886833233  0.5062177542693718  0.4073057079254951  1.0000
  C   C69       1.0  0.5314207496189454  0.9073053277318838  0.006216859166727173  1.0000
  C   C70       1.0  0.4451189955035204  0.5927247416078887  0.49380733781844544  1.0000
  C   C71       1.0  0.5548970254350322  0.0061862190210391  0.9072796522178095  1.0000
  C   C72       1.0  0.468592154098985  0.493786310337484  0.5926834099488758  1.0000
  C   C73       1.0  0.4282261240783781  0.1335294474132169  0.034140554432404734  1.0000
  C   C74       1.0  0.5956480553055102  0.3664562730912877  0.46579609294404617  1.0000
  C   C75       1.0  0.40436088319650315  0.03419685362977281  0.1335456235931787  1.0000
  C   C76       1.0  0.5717796903873378  0.4658630567488587  0.3664649036097884  1.0000
  C   C77       1.0  0.5717765586519549  0.8664650340799229  0.9658616014206203  1.0000
  C   C78       1.0  0.4043631496898854  0.63354680046875  0.5341958096118661  1.0000
  C   C79       1.0  0.5956457040737606  0.9657965972055537  0.8664561694174183  1.0000
  C   C80       1.0  0.42822760964283907  0.5341410635765059  0.6335286709678627  1.0000
  C   C81       1.0  0.7842702258127475  0.8303462817200259  0.3303460517286965  1.0000
  C   C82       1.0  0.9449571177934429  0.6696803233226234  0.16967876036704144  1.0000
  C   C83       1.0  0.05503970876495864  0.33031567999596945  0.8303219759806455  1.0000
  C   C84       1.0  0.215725978899556  0.1696553932033211  0.6696571029114226  1.0000
  C   C85       1.0  0.7036135064532728  0.8424512398402585  0.43959800900929497  1.0000
  C   C86       1.0  0.9856996693135257  0.6575549607654025  0.060424987244545016  1.0000
  C   C87       1.0  0.014304966686019334  0.4395695931059935  0.8424533135133672  1.0000
  C   C88       1.0  0.2963942909420183  0.060406198903777415  0.6575451380099508  1.0000
  C   C89       1.0  0.29639463880665323  0.1575448243907118  0.5604077758086206  1.0000
  C   C90       1.0  0.014304979264913727  0.34244820949815136  0.9395747185959705  1.0000
  C   C91       1.0  0.9856979801868775  0.5604259931999707  0.15755526829943997  1.0000
  C   C92       1.0  0.7036132743648551  0.9395989832810301  0.3424513713826371  1.0000
  C   C93       1.0  0.8386812739148652  0.7876988123451554  0.28769628416223725  1.0000
  C   C94       1.0  0.9140648102624666  0.7123257327141558  0.21232230802076654  1.0000
  C   C95       1.0  0.08591847841742611  0.2876697249069835  0.7876756449836648  1.0000
  C   C96       1.0  0.1612950404311988  0.2123054512716465  0.7123086695093193  1.0000
  C   C97       1.0  0.757109702657857  0.8005353025038674  0.4015381806321586  1.0000
  C   C98       1.0  0.9592067588187805  0.6994696102165462  0.09848803844044328  1.0000
  C   C99       1.0  0.0407896675099479  0.40151260429289704  0.800531075194577  1.0000
  C   C100      1.0  0.24289441155907807  0.09845890905182128  0.6994701658448789  1.0000
  C   C101      1.0  0.2428950476016638  0.19946939734172286  0.5984607875396151  1.0000
  C   C102      1.0  0.040788278427328434  0.30052646486963397  0.9015185155811167  1.0000
  C   C103      1.0  0.9592079962045262  0.5984900524298026  0.19946851745260136  1.0000
  C   C104      1.0  0.7571098291609245  0.9015381858369695  0.30053598181545754  1.0000
  N   N1        1.0  0.35401608101001614  0.14621132955416266  0.1461098269699477  1.0000
  N   N2        1.0  0.6459860864741744  0.35389080416838686  0.35378658785452183  1.0000
  N   N3        1.0  0.6459830656976137  0.8537867149773819  0.853890088547537  1.0000
  N   N4        1.0  0.35401581194857823  0.6461097736987186  0.6462108226624039  1.0000
  N   N5        1.0  0.6771086230383148  0.9106013911869653  0.41060151154804464  1.0000
  N   N6        1.0  0.9983052047587718  0.5894128353295401  0.08941197763363105  1.0000
  N   N7        1.0  0.0016991383511424265  0.4105857622954332  0.9105912503924357  1.0000
  N   N8        1.0  0.3229013494574601  0.08939819796230351  0.5893989808851856  1.0000
  N   N9        1.0  0.8649113900939439  0.7195127422466002  0.31906520349242834  1.0000
  N   N10       1.0  0.9034749332906884  0.7805054462965019  0.18094685311430705  1.0000
  N   N11       1.0  0.09647873724530602  0.319051655619127  0.7195061014213947  1.0000
  N   N12       1.0  0.13505495293610179  0.18092885315106602  0.7804845578369567  1.0000
  N   N13       1.0  0.13505375776546913  0.2804817054137488  0.6809338786907516  1.0000
  N   N14       1.0  0.09647976754440889  0.21949931940157807  0.8190570356218528  1.0000
  N   N15       1.0  0.9034757595188054  0.6809500777607411  0.28050144461777643  1.0000
  N   N16       1.0  0.8649098031239361  0.819068629273339  0.2195110606954175  1.0000
  O   O1        1.0  0.5172585916392762  0.014730268199563998  0.39248705837392356  1.0000
  O   O2        1.0  0.9243793767122384  0.4851969599558857  0.10742506842171923  1.0000
  O   O3        1.0  0.07561991615921222  0.39257524219729595  0.014810905987076173  1.0000
  O   O4        1.0  0.4827314615714897  0.10751705620558032  0.4852699203924545  1.0000
  O   O5        1.0  0.4827309576685793  0.9852698718310081  0.6075163457505539  1.0000
  O   O6        1.0  0.07561918692345423  0.5148103206512786  0.8925751723187574  1.0000
  O   O7        1.0  0.9243806238083179  0.6074259264058669  0.9851928199988792  1.0000
  O   O8        1.0  0.5172583930631306  0.8924876618327532  0.5147303979395658  1.0000
  O   O9        1.0  0.3880799033351252  0.0665694911441648  0.4443092262801969  1.0000
  O   O10       1.0  0.8989247274089606  0.43334054197712407  0.05562260660569519  1.0000
  O   O11       1.0  0.10107450958341255  0.44438049938393226  0.06666547084019211  1.0000
  O   O12       1.0  0.6119130971627768  0.05569812452076659  0.4334295454211485  1.0000
  O   O13       1.0  0.6119136512013623  0.9334311853948237  0.5556961320848403  1.0000
  O   O14       1.0  0.10107476127308247  0.5666657255706156  0.9443786759464813  1.0000
  O   O15       1.0  0.8989243445958834  0.5556222007696263  0.9333376620405217  1.0000
  O   O16       1.0  0.3880787480197797  0.9443096614516192  0.5665700257960893  1.0000
