data_image0
_chemical_formula_structural       Zn8H64C32O16
_chemical_formula_sum              "Zn8 H64 C32 O16"
_cell_length_a       9.082470337
_cell_length_b       9.203370148
_cell_length_c       13.4868
_cell_angle_alpha    90.0
_cell_angle_beta     90.0
_cell_angle_gamma    90.0

_space_group_name_H-M_alt    "P 1"
_space_group_IT_number       1

loop_
  _space_group_symop_operation_xyz
  'x, y, z'

loop_
  _atom_site_type_symbol
  _atom_site_label
  _atom_site_symmetry_multiplicity
  _atom_site_fract_x
  _atom_site_fract_y
  _atom_site_fract_z
  _atom_site_occupancy
  Zn  Zn1       1.0  0.46661974581244436  0.5937194649492028  0.1551732063944016  1.0000
  Zn  Zn2       1.0  0.5333813181051497  0.0937178431519925  0.8448305009342505  1.0000
  Zn  Zn3       1.0  0.5333846211712654  0.593705339688789  0.6551687576000234  1.0000
  Zn  Zn4       1.0  0.4666164427463285  0.09371023724254  0.344825310674139  1.0000
  Zn  Zn5       1.0  0.7619545942041412  0.7912547124471061  0.0967212385443545  1.0000
  Zn  Zn6       1.0  0.2380442676693733  0.291254177208387  0.9032795029213716  1.0000
  Zn  Zn7       1.0  0.23804646971345284  0.791249279654636  0.5967182726814357  1.0000
  Zn  Zn8       1.0  0.7619545942041412  0.291254177208387  0.403277278524186  1.0000
  H   H1        1.0  0.9367352365953535  0.5408985969212381  0.3594996589257633  1.0000
  H   H2        1.0  0.0632592211900089  0.0408969751240278  0.6405018240056962  1.0000
  H   H3        1.0  0.0632592211900089  0.5409029431552099  0.8594959515971184  1.0000
  H   H4        1.0  0.9367385396614694  0.0408969751240278  0.1404988581427773  1.0000
  H   H5        1.0  0.9066454053204112  0.7084556955928676  0.2946073197496801  1.0000
  H   H6        1.0  0.093342446332727  0.2084551603541556  0.7053911973188605  1.0000
  H   H7        1.0  0.09334795144291519  0.7084546090343764  0.7946043538867613  1.0000
  H   H8        1.0  0.9066465063424545  0.2084529872371732  0.2053911973188605  1.0000
  H   H9        1.0  0.9883874834613736  0.5597416943096079  0.2329025417445223  1.0000
  H   H10       1.0  0.0116058733019599  0.0597411590708958  0.7670937509268327  1.0000
  H   H11       1.0  0.0116069743239962  0.5597427808681061  0.7329010588130629  1.0000
  H   H12       1.0  0.9883907865274892  0.0597411590708958  0.2670952338582921  1.0000
  H   H13       1.0  0.263890760010085  0.8752924059835364  0.9638832043183001  1.0000
  H   H14       1.0  0.7361114049295452  0.375294043861814  0.0361294005991013  1.0000
  H   H15       1.0  0.7361268192380805  0.875294579100526  0.4638772725924625  1.0000
  H   H16       1.0  0.2638808508117449  0.3752820917183897  0.536116795681707  1.0000
  H   H17       1.0  0.3068504378865455  0.6857618349047385  0.9712763591066818  1.0000
  H   H18       1.0  0.6931451209208603  0.1857678190169878  0.0287369872764458  1.0000
  H   H19       1.0  0.693171545449772  0.6857650945802192  0.4712689444493848  1.0000
  H   H20       1.0  0.3068438317543141  0.18575369375657402  0.5287221579618588  1.0000
  H   H21       1.0  0.34821363380798687  0.7891609142307843  0.861314767031466  1.0000
  H   H22       1.0  0.6517742178451584  0.2891647252260441  0.1386985793516615  1.0000
  H   H23       1.0  0.6517951372638748  0.7891641739062649  0.3613080938399023  1.0000
  H   H24       1.0  0.3482158358520593  0.2891560327581004  0.6386800427084297  1.0000
  H   H25       1.0  0.3580953065985213  0.7630737313685216  0.2810288578461879  1.0000
  H   H26       1.0  0.6419035552750003  0.2630688498958307  0.7189807812082947  1.0000
  H   H27       1.0  0.6419035552750003  0.7630650389005709  0.7810169943945198  1.0000
  H   H28       1.0  0.358098609664637  0.2630645036618589  0.2189778153453759  1.0000
  H   H29       1.0  0.2166547125382579  0.6734641658791602  0.2166421982975919  1.0000
  H   H30       1.0  0.7833452503573  0.1734592844064764  0.7833615090310531  1.0000
  H   H31       1.0  0.7833463513793362  0.6734554734112166  0.7166370080374875  1.0000
  H   H32       1.0  0.21665581356029404  0.1734549381725046  0.2833592846338675  1.0000
  H   H33       1.0  0.2214254410286642  0.5965216993030609  0.3978697689592821  1.0000
  H   H34       1.0  0.7785745218668936  0.0965287699737942  0.6021317139721775  1.0000
  H   H35       1.0  0.7785756228889297  0.5965303917710045  0.8978668030963634  1.0000
  H   H36       1.0  0.22142654205070042  0.0965255102983207  0.1021294895749918  1.0000
  H   H37       1.0  0.4051331701035181  0.5361296916947609  0.3835268558887179  1.0000
  H   H38       1.0  0.5948645907479602  0.0361335026900207  0.6164761099741938  1.0000
  H   H39       1.0  0.5948711968801916  0.5361318648117432  0.8835261144229918  1.0000
  H   H40       1.0  0.40513757419167007  0.03613024301454  0.1164716611798227  1.0000
  H   H41       1.0  0.2615488861353796  0.4454096634253943  0.3207973722454582  1.0000
  H   H42       1.0  0.7384532788042506  0.9454101986641065  0.6792004033573563  1.0000
  H   H43       1.0  0.7384565818703663  0.4454107499838855  0.8208025625055626  1.0000
  H   H44       1.0  0.2615499871574229  0.9454058524301345  0.17919817896017073  1.0000
  H   H45       1.0  0.0353692319468806  0.8373465237269286  0.0693663433876068  1.0000
  H   H46       1.0  0.9646252258384891  0.3373492481636973  0.9306381054067714  1.0000
  H   H47       1.0  0.9646340340147931  0.8373400043759744  0.5693678263190662  1.0000
  H   H48       1.0  0.0353681309248444  0.3373459884882166  0.4306336566123932  1.0000
  H   H49       1.0  0.9749263880254803  0.6886977159532606  0.9989975383337752  1.0000
  H   H50       1.0  0.0250702718039619  0.1886982672730397  0.0010069104605961  1.0000
  H   H51       1.0  0.0250680697598824  0.6886922831607905  0.4989990212652344  1.0000
  H   H52       1.0  0.9749285900695598  0.18870152694852044  0.501002461666225  1.0000
  H   H53       1.0  0.0428649899811973  0.9042046409280219  0.8892835958122022  1.0000
  H   H54       1.0  0.95713717495844  0.4042073653647833  0.11072085298217621  1.0000
  H   H55       1.0  0.9571294678041723  0.9041981215770605  0.3892828543464688  1.0000
  H   H56       1.0  0.0428682930473059  0.40420845192328164  0.6107164041877979  1.0000
  H   H57       1.0  0.9019847790338034  0.0080003301851335  0.9453154195213074  1.0000
  H   H58       1.0  0.09801848692787019  0.5079997788653543  0.054686063410152  1.0000
  H   H59       1.0  0.0980107797736025  0.007992724275681  0.44531616098704063  1.0000
  H   H60       1.0  0.9019847790338034  0.508003038540835  0.5546830975472332  1.0000
  H   H61       1.0  0.8552122618399451  0.8543696356392587  0.8742859685025337  1.0000
  H   H62       1.0  0.1447899030996851  0.3543712735175291  0.1257155144289257  1.0000
  H   H63       1.0  0.1447821959454174  0.8543620297298062  0.3742837441053481  1.0000
  H   H64       1.0  0.8552144638840247  0.3543712735175291  0.6257147729631924  1.0000
  C   C1        1.0  0.7571827646916987  0.537389012988335  0.2544428626508903  1.0000
  C   C2        1.0  0.2428072890055191  0.0373852180741423  0.7455549129519241  1.0000
  C   C3        1.0  0.2428127941157072  0.5373846667543631  0.7544384138565121  1.0000
  C   C4        1.0  0.7571849667357711  0.037384131515644  0.2455549129519241  1.0000
  C   C5        1.0  0.9055608986130395  0.5896937657320436  0.2886370376961196  1.0000
  C   C6        1.0  0.0944368622384388  0.0896954036103139  0.7113637037696137  1.0000
  C   C7        1.0  0.0944346601943664  0.5896905060565629  0.7886333303674675  1.0000
  C   C8        1.0  0.9055619996350756  0.0896910573763421  0.2113622208381543  1.0000
  C   C9        1.0  0.4919201312223365  0.8315953696226401  0.9825006673191581  1.0000
  C   C10       1.0  0.5080754275850694  0.3316154789952961  0.0175111961325172  1.0000
  C   C11       1.0  0.5080996500699086  0.831610581441538  0.482496959990506  1.0000
  C   C12       1.0  0.491913525090105  0.3315980940594017  0.5174934009550114  1.0000
  C   C13       1.0  0.3434418042955372  0.7909743803558698  0.9426342794436027  1.0000
  C   C14       1.0  0.6565526534898254  0.2909792779096207  0.05737610107660631  1.0000
  C   C15       1.0  0.6565713708644694  0.7909787265898416  0.4426305721149575  1.0000
  C   C16       1.0  0.3434385012294285  0.2909705854416771  0.5573612717620193  1.0000
  C   C17       1.0  0.3221260176409615  0.6552936481980538  0.2550797817124888  1.0000
  C   C18       1.0  0.677872844232553  0.15528876672537  0.7449276329448085  1.0000
  C   C19       1.0  0.6778750462766325  0.655283869171619  0.7550723670551918  1.0000
  C   C20       1.0  0.3221249166189253  0.1552865936083805  0.24492244268469682  1.0000
  C   C21       1.0  0.30114714372999873  0.5532082180902407  0.343666399739007  1.0000
  C   C22       1.0  0.6988506171214794  0.0532087694100198  0.656333600260993  1.0000
  C   C23       1.0  0.6988517181435226  0.5532093046487319  0.8436678826704666  1.0000
  C   C24       1.0  0.3011482447520351  0.053204423176048  0.156329892932348  1.0000
  C   C25       1.0  0.9457691224166779  0.8003883231406022  0.0203450781504912  1.0000
  C   C26       1.0  0.0542297394568436  0.30038996101887255  0.9796578877124276  1.0000
  C   C27       1.0  0.0542264363907279  0.8003828903481391  0.5203450781504912  1.0000
  C   C28       1.0  0.9457702234387143  0.3003910475773708  0.479655663315242  1.0000
  C   C29       1.0  0.9359898446756674  0.8962347343806983  0.9278331405522451  1.0000
  C   C30       1.0  0.0640123202639629  0.3962363722589686  0.072170566776407  1.0000
  C   C31       1.0  0.0640068151537747  0.8962282150297369  0.4278323990865118  1.0000
  C   C32       1.0  0.9359920467197469  0.3962374588174598  0.5721668594477549  1.0000
  O   O1        1.0  0.695100536060245  0.6072199542267072  0.1827149509149706  1.0000
  O   O2        1.0  0.3048972247912332  0.1072215921049775  0.8172880149479482  1.0000
  O   O3        1.0  0.3048972247912332  0.6072069155247917  0.682705311860488  1.0000
  O   O4        1.0  0.6951049401483971  0.1072118130785427  0.3172865320164888  1.0000
  O   O5        1.0  0.6936703084329565  0.4283170117695008  0.2922464928671005  1.0000
  O   O6        1.0  0.3063197452642541  0.9283110276572587  0.7077542485986328  1.0000
  O   O7        1.0  0.3063230483303697  0.4283115789770378  0.7922472343328266  1.0000
  O   O8        1.0  0.6936703084329565  0.9283132007742411  0.2077505412699807  1.0000
  O   O9        1.0  0.5490202351320903  0.7519821422703501  0.0509935640774657  1.0000
  O   O10       1.0  0.45098303082957614  0.2519892129410835  0.9490079188539937  1.0000
  O   O11       1.0  0.4509929400279161  0.7519821422703501  0.550994305543199  1.0000
  O   O12       1.0  0.5490158310439384  0.2519837801486204  0.4490019871281562  1.0000
  O   O13       1.0  0.5615135321966348  0.9411867458011969  0.9504552599578845  1.0000
  O   O14       1.0  0.4384897337650386  0.44118186432851303  0.049546222973575  1.0000
  O   O15       1.0  0.4385095521617259  0.9411845726842074  0.4504589672865293  1.0000
  O   O16       1.0  0.561504724020331  0.4411949030304285  0.5495373253848186  1.0000
