data_image0
_chemical_formula_structural       Zn2H32C44N4O12
_chemical_formula_sum              "Zn2 H32 C44 N4 O12"
_cell_length_a       8.38226063375861
_cell_length_b       8.382269646556681
_cell_length_c       14.797886880624166
_cell_angle_alpha    78.40723111417503
_cell_angle_beta     78.4071546695804
_cell_angle_gamma    72.04305810237219

_space_group_name_H-M_alt    "P 1"
_space_group_IT_number       1

loop_
  _space_group_symop_operation_xyz
  'x, y, z'

loop_
  _atom_site_type_symbol
  _atom_site_label
  _atom_site_symmetry_multiplicity
  _atom_site_fract_x
  _atom_site_fract_y
  _atom_site_fract_z
  _atom_site_occupancy
  Zn  Zn1       1.0  0.06765741080889862  0.9323444290022708  0.24999857900303368  1.0000
  Zn  Zn2       1.0  0.9323406984323057  0.0676530949749008  0.7500018592996653  1.0000
  H   H1        1.0  0.24997874530837538  0.2381138952310309  0.5419187134013796  1.0000
  H   H2        1.0  0.7618888430852239  0.7500202787621004  0.9580823871701298  1.0000
  H   H3        1.0  0.7500203559789611  0.7618887138241207  0.45808106611546145  1.0000
  H   H4        1.0  0.23811254501855939  0.2499785224139828  0.04191823305819042  1.0000
  H   H5        1.0  0.20596052557664277  0.9796269984187093  0.5140103233225943  1.0000
  H   H6        1.0  0.020375392823268668  0.7940397064435416  0.9859889054411681  1.0000
  H   H7        1.0  0.7940389264211375  0.020374333105365804  0.4859902324880423  1.0000
  H   H8        1.0  0.9796268699448806  0.2059603876684548  0.014010128164620977  1.0000
  H   H9        1.0  0.21884490078524266  0.7146449014057693  0.536691128860241  1.0000
  H   H10       1.0  0.2853610573630688  0.7811523391281413  0.9633079494516679  1.0000
  H   H11       1.0  0.7811545605228291  0.2853564394276375  0.4633087491092596  1.0000
  H   H12       1.0  0.7146403586715736  0.2188464899759452  0.03669063725326541  1.0000
  H   H13       1.0  0.320306173872858  0.5446849477588599  0.47233953893579184  1.0000
  H   H14       1.0  0.4553179668053815  0.6796923331970036  0.027660364183361683  1.0000
  H   H15       1.0  0.6796948542101902  0.455315121638968  0.5276609828398763  1.0000
  H   H16       1.0  0.5446823505464877  0.3203102819536526  0.9723392828458657  1.0000
  H   H17       1.0  0.8139470179616596  0.7976911971188304  0.17029420169843945  1.0000
  H   H18       1.0  0.20230733828444872  0.18605128181277308  0.32970612234131386  1.0000
  H   H19       1.0  0.18605193801305833  0.20230759186625139  0.8297066835051226  1.0000
  H   H20       1.0  0.7976932030858207  0.8139462543553933  0.6702940509861506  1.0000
  H   H21       1.0  0.5078313851704762  0.9178536384056672  0.14307384930977918  1.0000
  H   H22       1.0  0.08214492854449425  0.4921663063566655  0.3569266723601531  1.0000
  H   H23       1.0  0.49216879617906534  0.0821451659842438  0.8569262255650331  1.0000
  H   H24       1.0  0.9178556221360666  0.507831239120833  0.6430728231261824  1.0000
  H   H25       1.0  0.3539043885621708  0.21214336068037204  0.1724489509579286  1.0000
  H   H26       1.0  0.7878574390045613  0.6460942949847137  0.3275503704181091  1.0000
  H   H27       1.0  0.6460945860331223  0.7878554469233735  0.8275505785633754  1.0000
  H   H28       1.0  0.21214394909922168  0.35390450619136965  0.6724502498102112  1.0000
  H   H29       1.0  0.3586137645467461  0.4839619005013205  0.222318595205266  1.0000
  H   H30       1.0  0.5160384775394959  0.6413861332496253  0.2776820765576957  1.0000
  H   H31       1.0  0.641386903515574  0.5160394371182522  0.7776818281177498  1.0000
  H   H32       1.0  0.4839616851894706  0.3586126525216215  0.7223193539993744  1.0000
  C   C1        1.0  0.3603215647063465  0.1340254793566586  0.5235584503476858  1.0000
  C   C2        1.0  0.8659773938183196  0.639677856184207  0.9764411729759176  1.0000
  C   C3        1.0  0.639677527270706  0.8659771203891681  0.47644200701028444  1.0000
  C   C4        1.0  0.13402523828085583  0.360320979015377  0.023557281241394907  1.0000
  C   C5        1.0  0.3357088730712121  0.9856145207447324  0.5075984306799484  1.0000
  C   C6        1.0  0.014389140472381743  0.6642899692512855  0.9924007718344967  1.0000
  C   C7        1.0  0.6642890028413077  0.014388072905582302  0.4924021591656498  1.0000
  C   C8        1.0  0.9856118969209575  0.33571010945587443  0.0075990721000423  1.0000
  C   C9        1.0  0.4760118335934749  0.8505209229299098  0.48381645712064614  1.0000
  C   C10       1.0  0.14948259733491662  0.5239880639629388  0.016181925543378405  1.0000
  C   C11       1.0  0.5239860330087538  0.1494816614110803  0.5161848105660738  1.0000
  C   C12       1.0  0.8505196747435234  0.47601203945838944  0.9838164302212746  1.0000
  C   C13       1.0  0.30094245862471797  0.6805971436659419  0.4715030413171419  1.0000
  C   C14       1.0  0.3194061659109409  0.6990576065040841  0.028494671829129525  1.0000
  C   C15       1.0  0.69905856945833  0.319402925731886  0.5284974804585261  1.0000
  C   C16       1.0  0.6805941607512126  0.30094501795590395  0.9715042973589688  1.0000
  C   C17       1.0  0.2105253046612034  0.780092109514328  0.38964937918049  1.0000
  C   C18       1.0  0.2199134426189602  0.7894728014531864  0.11034971506801129  1.0000
  C   C19       1.0  0.7894757234218444  0.21990795988349984  0.610351142595178  1.0000
  C   C20       1.0  0.7800868933534773  0.2105298323161335  0.8896485762789509  1.0000
  C   C21       1.0  0.7392219010461857  0.9240251988872573  0.1850438977409183  1.0000
  C   C22       1.0  0.07597445197963282  0.2607782735284943  0.3149575175146779  1.0000
  C   C23       1.0  0.2607782896136398  0.07597361481199272  0.8149554992927648  1.0000
  C   C24       1.0  0.9240257200596176  0.7392205215520846  0.6850432352012632  1.0000
  C   C25       1.0  0.5700806584777853  0.9919456407632836  0.16913383267662144  1.0000
  C   C26       1.0  0.008052867516518281  0.4299176291431764  0.3308666344880677  1.0000
  C   C27       1.0  0.42991918147158964  0.0080544504670499  0.8308647880632734  1.0000
  C   C28       1.0  0.9919488899182836  0.5700799131204944  0.6691334063517759  1.0000
  C   C29       1.0  0.4839344587691273  0.15511065133108562  0.18621067715292844  1.0000
  C   C30       1.0  0.8448900393610611  0.5160651835576217  0.3137891686337894  1.0000
  C   C31       1.0  0.5160665879344961  0.8448894366854134  0.8137884889404745  1.0000
  C   C32       1.0  0.15511294344855742  0.48393237411087847  0.686210061877304  1.0000
  C   C33       1.0  0.4890361385631011  0.4230446771281606  0.23517617994249918  1.0000
  C   C34       1.0  0.5769546305049005  0.5109639293222586  0.26482520459462217  1.0000
  C   C35       1.0  0.5109640334761495  0.5769541179524184  0.764824572773442  1.0000
  C   C36       1.0  0.4230443161595333  0.489034850353491  0.7351763584500688  1.0000
  C   C37       1.0  0.5664997256004796  0.251309292351216  0.21876752102570407  1.0000
  C   C38       1.0  0.748690454122567  0.4334992357080054  0.2812331810876572  1.0000
  C   C39       1.0  0.4334988703535032  0.7486907648556097  0.7812332657251986  1.0000
  C   C40       1.0  0.25131008724770243  0.566498300460161  0.7187669922398071  1.0000
  C   C41       1.0  0.7366543688970424  0.1715097612808307  0.2338557122968226  1.0000
  C   C42       1.0  0.8284897171804886  0.2633455253190817  0.2661448385135401  1.0000
  C   C43       1.0  0.26334581245249217  0.8284890431090872  0.7661443625779896  1.0000
  C   C44       1.0  0.17150923879423638  0.7366532636659997  0.7338560466900219  1.0000
  N   N1        1.0  0.8189457455348615  0.010743258515084602  0.2177100566104855  1.0000
  N   N2        1.0  0.989256112053269  0.18105602366419762  0.28229022560017103  1.0000
  N   N3        1.0  0.18105408510422913  0.9892568234059097  0.7822892419705383  1.0000
  N   N4        1.0  0.010742843921448877  0.8189427653208838  0.7177106596033909  1.0000
  O   O1        1.0  0.05700196889910816  0.7809606239373748  0.39306052863417307  1.0000
  O   O2        1.0  0.2190403874095423  0.9429983959029825  0.1069381861182421  1.0000
  O   O3        1.0  0.9429994285149661  0.2190381865480404  0.606939413753011  1.0000
  O   O4        1.0  0.7809568150129279  0.05700678073749539  0.8930588176163852  1.0000
  O   O5        1.0  0.28907515627705754  0.855865386892674  0.3200329048702457  1.0000
  O   O6        1.0  0.14413954320313146  0.7109219298418594  0.17996569067890533  1.0000
  O   O7        1.0  0.7109258811162817  0.144134691814493  0.6799669390642862  1.0000
  O   O8        1.0  0.855862846257068  0.2890819657215431  0.8200335929224281  1.0000
  O   O9        1.0  0.4656317847542299  0.6983438540378726  0.4672464314419146  1.0000
  O   O10       1.0  0.3016601776403077  0.5343687743206118  0.03275177912716031  1.0000
  O   O11       1.0  0.5343688833080834  0.3016574835816996  0.5327539918810942  1.0000
  O   O12       1.0  0.6983420665072728  0.4656313011727207  0.9672486101608868  1.0000
