data_image0
_chemical_formula_structural       K4H16C28Cl8O10
_chemical_formula_sum              "K4 H16 C28 Cl8 O10"
_cell_length_a       4.261542352185205
_cell_length_b       12.827967536452206
_cell_length_c       15.953340024043937
_cell_angle_alpha    93.95592654028366
_cell_angle_beta     97.6751885304065
_cell_angle_gamma    89.9944031929737

_space_group_name_H-M_alt    "P 1"
_space_group_IT_number       1

loop_
  _space_group_symop_operation_xyz
  'x, y, z'

loop_
  _atom_site_type_symbol
  _atom_site_label
  _atom_site_symmetry_multiplicity
  _atom_site_fract_x
  _atom_site_fract_y
  _atom_site_fract_z
  _atom_site_occupancy
  K   K1        1.0  0.7564702220496357  0.3946103762399247  0.06680260818914965  1.0000
  K   K2        1.0  0.6902819915780967  0.10535661395249458  0.9332459665629498  1.0000
  K   K3        1.0  0.24352050034798373  0.6053907771382826  0.9331988800458927  1.0000
  K   K4        1.0  0.3097205603308736  0.8946437616536898  0.06675465362499008  1.0000
  H   H1        1.0  0.48718800419069924  0.48330010557874903  0.4158808521131475  1.0000
  H   H2        1.0  0.07246327490975088  0.0167835457666641  0.5841371063170654  1.0000
  H   H3        1.0  0.5128168599014772  0.5166979311522295  0.5841184619178819  1.0000
  H   H4        1.0  0.9275393070805292  0.9832176142132028  0.41586293399260643  1.0000
  H   H5        1.0  0.9476210392313505  0.769545726747026  0.3701976038488651  1.0000
  H   H6        1.0  0.5772856249623999  0.7302043517129346  0.6296114817254688  1.0000
  H   H7        1.0  0.05237674473355721  0.2304530927467283  0.6298014979306357  1.0000
  H   H8        1.0  0.42271455918830003  0.26979602433548416  0.37038905220118307  1.0000
  H   H9        1.0  0.6727893367719844  0.7566184771307076  0.2226777581638045  1.0000
  H   H10       1.0  0.45054120735949243  0.743203355348072  0.7771947062547183  1.0000
  H   H11       1.0  0.32720134391813355  0.24338034368975764  0.7773210848318468  1.0000
  H   H12       1.0  0.5494589837249891  0.2567970236379651  0.22280520126133746  1.0000
  H   H13       1.0  0.1806200868369174  0.22335402472746316  0.044030778934619284  1.0000
  H   H14       1.0  0.13681516263110177  0.27651094608089005  0.9561036437575081  1.0000
  H   H15       1.0  0.819380120461325  0.7766471327570269  0.9559698015243607  1.0000
  H   H16       1.0  0.8631850516009153  0.7234902143412113  0.04389631029087578  1.0000
  C   C1        1.0  0.43055016841670823  0.6125686993936412  0.2335437441198919  1.0000
  C   C2        1.0  0.1980827191078589  0.887406715828092  0.7664270704989843  1.0000
  C   C3        1.0  0.5694476248281859  0.3874308956609552  0.7664566570131439  1.0000
  C   C4        1.0  0.8019198328011045  0.11259365977809918  0.23357354968895544  1.0000
  C   C5        1.0  0.3866258760354811  0.5356754423881611  0.2894305876104894  1.0000
  C   C6        1.0  0.0983838955553011  0.9643645969087656  0.7105816959665672  1.0000
  C   C7        1.0  0.6133719079294339  0.464323377105593  0.7105685141690115  1.0000
  C   C8        1.0  0.9016210241119327  0.03563577825519099  0.2894190104826535  1.0000
  C   C9        1.0  0.5319425917849329  0.5427946630903832  0.37345931325377524  1.0000
  C   C10       1.0  0.15950306824888832  0.9572406203540492  0.6265330357862096  1.0000
  C   C11       1.0  0.4680599045489728  0.45720337408283734  0.626539914515966  1.0000
  C   C12       1.0  0.8404994998738432  0.042760533750595194  0.37346825734465466  1.0000
  C   C13       1.0  0.7330855570451646  0.6272794584798901  0.40168519367751526  1.0000
  C   C14       1.0  0.33198725512107785  0.8726680904173989  0.5982460517117472  1.0000
  C   C15       1.0  0.26691457846425237  0.3727185820731832  0.598313321420342  1.0000
  C   C16       1.0  0.6680153037216673  0.1273322881264036  0.4017539420655963  1.0000
  C   C17       1.0  0.786600789312878  0.7047693486293838  0.34788335570087975  1.0000
  C   C18       1.0  0.4390378280985061  0.7950875396031731  0.6520005128219495  1.0000
  C   C19       1.0  0.21339936241029991  0.29522947042213576  0.6521158323399091  1.0000
  C   C20       1.0  0.5609623930672855  0.20491362375654626  0.34799881481583117  1.0000
  C   C21       1.0  0.6318537190785989  0.6968243346205298  0.26529805467420425  1.0000
  C   C22       1.0  0.3671947742772872  0.803077468116342  0.7346114095340397  1.0000
  C   C23       1.0  0.3681393131560213  0.3031737072592476  0.7347002016397963  1.0000
  C   C24       1.0  0.6328078007792186  0.19692368892590648  0.2653892571862286  1.0000
  C   C25       1.0  0.2768874428254123  0.6118703396725921  0.14246856978269304  1.0000
  C   C26       1.0  0.1354731530322582  0.8881296440353663  0.8574977235922316  1.0000
  C   C27       1.0  0.7231080196763174  0.3881300431355327  0.8575305388001907  1.0000
  C   C28       1.0  0.864527077413527  0.1118722948851882  0.14250290339908386  1.0000
  Cl  Cl1       1.0  0.1437718770134992  0.42679981724570826  0.2586961057738292  1.0000
  Cl  Cl2       1.0  0.8863255202022912  0.0732347622830929  0.7413550295541069  1.0000
  Cl  Cl3       1.0  0.8562235484731319  0.5731997782511229  0.7413042090979187  1.0000
  Cl  Cl4       1.0  0.11367469402972571  0.9267663981390156  0.258644924494284  1.0000
  Cl  Cl5       1.0  0.9198230315463006  0.6357567411902636  0.5051707328522423  1.0000
  Cl  Cl6       1.0  0.4148253761202341  0.8641492513581281  0.4947063180810785  1.0000
  Cl  Cl7       1.0  0.08018418409037048  0.3642405166000343  0.494827994497136  1.0000
  Cl  Cl8       1.0  0.5851724472059772  0.13585112807015073  0.5052935031736823  1.0000
  O   O1        1.0  0.3003468058545735  0.2498976998072067  7.048980472039596e-05  1.0000
  O   O2        1.0  0.6996533782961265  0.7501026762412195  0.9999300441219315  1.0000
  O   O3        1.0  0.16757220529085967  0.6990431220865007  0.11877275987252735  1.0000
  O   O4        1.0  0.04948465297354691  0.8009968279258929  0.8811680089103999  1.0000
  O   O5        1.0  0.8324303697656463  0.3009580349557481  0.8812279068477408  1.0000
  O   O6        1.0  0.9505155612584701  0.1990043324962159  0.11883194513798397  1.0000
  O   O7        1.0  0.2737605608100964  0.5276033725385857  0.09545735470591409  1.0000
  O   O8        1.0  0.1796154687376799  0.9723661269858395  0.9045363228742501  1.0000
  O   O9        1.0  0.7262301592413181  0.47239700821639025  0.9045422077649972  1.0000
  O   O10       1.0  0.8203871132526076  0.02763503299402709  0.09546371743542179  1.0000
