data_image0
_chemical_formula_structural       Sm2CuH20C32N4O28
_chemical_formula_sum              "Sm2 Cu1 H20 C32 N4 O28"
_cell_length_a       10.261345676225579
_cell_length_b       10.754256681213372
_cell_length_c       11.376484978325207
_cell_angle_alpha    86.2829902456861
_cell_angle_beta     75.02746566544862
_cell_angle_gamma    68.19194263969962

_space_group_name_H-M_alt    "P 1"
_space_group_IT_number       1

loop_
  _space_group_symop_operation_xyz
  'x, y, z'

loop_
  _atom_site_type_symbol
  _atom_site_label
  _atom_site_symmetry_multiplicity
  _atom_site_fract_x
  _atom_site_fract_y
  _atom_site_fract_z
  _atom_site_occupancy
  Sm  Sm1       1.0  0.5832037006133888  0.6107527992306174  0.6315741725951582  1.0000
  Sm  Sm2       1.0  0.41679823315222836  0.3892396950269585  0.3684251093113389  1.0000
  Cu  Cu1       1.0  2.8458873668186174e-07  0.5000087612238386  0.499999630052301  1.0000
  H   H1        1.0  0.36277306211556526  0.9820536993987048  0.4508705550848192  1.0000
  H   H2        1.0  0.6372124256182162  0.0179426324244645  0.5491481625274873  1.0000
  H   H3        1.0  0.9610177990486336  0.17981007890150377  0.3482126146484248  1.0000
  H   H4        1.0  0.03898514245602065  0.8202013819593077  0.6517891755999301  1.0000
  H   H5        1.0  0.1567320216542144  0.7477065533616524  0.3311426090256405  1.0000
  H   H6        1.0  0.84326304427519  0.2522986162194059  0.6688440280742258  1.0000
  H   H7        1.0  0.6783311372789953  0.472209822871342  0.9437505798316793  1.0000
  H   H8        1.0  0.3216705393573849  0.5277805877928116  0.05624542727947813  1.0000
  H   H9        1.0  0.9377413539974244  0.3112723101488014  0.20134595099177233  1.0000
  H   H10       1.0  0.0622577067883087  0.6887250325874277  0.7986474430625068  1.0000
  H   H11       1.0  0.1459770053991037  0.33702690562418514  0.8251031538536682  1.0000
  H   H12       1.0  0.854023697104751  0.6629715735857714  0.1748959034382053  1.0000
  H   H13       1.0  0.45850850869556586  0.8434688650591157  0.8291475631198612  1.0000
  H   H14       1.0  0.5414935827436552  0.15653906369946208  0.17083539222599606  1.0000
  H   H15       1.0  0.3431508797736812  0.8801217827495547  0.7514359914687037  1.0000
  H   H16       1.0  0.656849241791477  0.11989402929393828  0.24854323410225732  1.0000
  H   H17       1.0  0.80403447806183  0.5615764647238493  0.3793762906774134  1.0000
  H   H18       1.0  0.19596396952273662  0.4384280759123341  0.6206245393206373  1.0000
  H   H19       1.0  0.7154386239891225  0.4674174477455961  0.378277201031942  1.0000
  H   H20       1.0  0.28456111834020714  0.5325889691428002  0.6217205178024372  1.0000
  C   C1        1.0  0.2708771041694079  0.8520283783756  0.39405076816712636  1.0000
  C   C2        1.0  0.7291093641111958  0.1479787185910766  0.6059623831060109  1.0000
  C   C3        1.0  0.27513052622643414  0.9773900831992461  0.4161538852060147  1.0000
  C   C4        1.0  0.7248577015324075  0.0226150651345165  0.583861651634223  1.0000
  C   C5        1.0  0.16495249869395684  0.09545592259188848  0.398414161603931  1.0000
  C   C6        1.0  0.8350375755956352  0.904544479910534  0.6016101381369696  1.0000
  C   C7        1.0  0.050973100097550614  0.0889892532850354  0.35665068784341264  1.0000
  C   C8        1.0  0.9490292768998434  0.9110185115114362  0.6433603519118022  1.0000
  C   C9        1.0  0.05214281361580941  0.9642904301913829  0.3297829489374636  1.0000
  C   C10       1.0  0.9478645639091356  0.0357200373425144  0.6702213818842184  1.0000
  C   C11       1.0  0.16007273127413407  0.8446148363708803  0.3482285308617322  1.0000
  C   C12       1.0  0.8399149682682324  0.15538627564340857  0.651784845026029  1.0000
  C   C13       1.0  0.37931471746870943  0.7268064832361103  0.4301623841046125  1.0000
  C   C14       1.0  0.6206646577907479  0.27320046853716917  0.5698419274954818  1.0000
  C   C15       1.0  0.16076534243087795  0.23103265441285706  0.42805095308723656  1.0000
  C   C16       1.0  0.8392321050656693  0.7689613042941302  0.5719615873434662  1.0000
  C   C17       1.0  0.910489495435243  0.4131048589508452  0.8716797273745415  1.0000
  C   C18       1.0  0.0895187084782948  0.586892449857622  0.12831763398352788  1.0000
  C   C19       1.0  0.7843046388865106  0.42989292747055424  0.9640203423431546  1.0000
  C   C20       1.0  0.21570597802553973  0.5700844193611798  0.03597641538426187  1.0000
  C   C21       1.0  0.7938268787551479  0.3923594595734413  0.0827688112666253  1.0000
  C   C22       1.0  0.2061840072836462  0.6076387521940703  0.917226949642391  1.0000
  C   C23       1.0  0.929380126694234  0.33864594507515716  0.109208375520474  1.0000
  C   C24       1.0  0.07062585775970129  0.6613381988681438  0.8907801087876167  1.0000
  C   C25       1.0  0.05363174933456354  0.3190780578546181  0.014906319112604604  1.0000
  C   C26       1.0  0.9463643498638847  0.6809165077169153  0.9850924224165212  1.0000
  C   C27       1.0  0.04681234366151441  0.3548451790491923  0.8964681283386399  1.0000
  C   C28       1.0  0.9531942560614158  0.6451402040151419  0.10352889425548986  1.0000
  C   C29       1.0  0.8999850231088334  0.4566064178314802  0.7458413766224156  1.0000
  C   C30       1.0  0.10002181420213678  0.5433812320405877  0.2541650648605369  1.0000
  C   C31       1.0  0.6594897681697773  0.4049497472807459  0.18091837469755495  1.0000
  C   C32       1.0  0.3405251509766316  0.5950213851770768  0.8190726156820748  1.0000
  N   N1        1.0  0.9309991234640766  0.9608616962252083  0.2862821919518055  1.0000
  N   N2        1.0  0.06899814517533542  0.0391567952618459  0.7137185885638787  1.0000
  N   N3        1.0  0.1975462564979367  0.2599413080502373  0.04088683266636653  1.0000
  N   N4        1.0  0.8024561184316356  0.7400580197252464  0.9591082328590448  1.0000
  O   O1        1.0  0.39139814994104677  0.6136315035832852  0.3923628855294653  1.0000
  O   O2        1.0  0.6085975987686681  0.386372291134684  0.6076448112834784  1.0000
  O   O3        1.0  0.4482523233903993  0.7450739996687543  0.5010231276240661  1.0000
  O   O4        1.0  0.5517372317812956  0.25491382479930275  0.49897952602398743  1.0000
  O   O5        1.0  0.27548055063375193  0.24780895655614904  0.42945090239793166  1.0000
  O   O6        1.0  0.7245094393949217  0.7521942169712332  0.5705661422817627  1.0000
  O   O7        1.0  0.03276115393242664  0.3213313912125315  0.4506246489402842  1.0000
  O   O8        1.0  0.9672418558073305  0.6786689924696887  0.5493728107776763  1.0000
  O   O9        1.0  0.8502507192745838  0.06890457906941087  0.25307392401729367  1.0000
  O   O10       1.0  0.14974717373239357  0.931106609823807  0.7469159096440593  1.0000
  O   O11       1.0  0.9137615278439172  0.8531885707979256  0.28514385507283907  1.0000
  O   O12       1.0  0.08623903209360156  0.14683410093696378  0.7148320318446795  1.0000
  O   O13       1.0  0.019296559290921788  0.43814812641743833  0.6653946558192275  1.0000
  O   O14       1.0  0.980703281257327  0.5618553885786354  0.33460592943814765  1.0000
  O   O15       1.0  0.7768093721434186  0.5073274425568287  0.7241110101885654  1.0000
  O   O16       1.0  0.22320532627186657  0.4926686152831507  0.27588138619065466  1.0000
  O   O17       1.0  0.539946292119872  0.4319279436503578  0.15414647319760627  1.0000
  O   O18       1.0  0.4600588408210698  0.5680695945796331  0.8458568801228739  1.0000
  O   O19       1.0  0.6710822766062066  0.3809359372136711  0.2910775581113186  1.0000
  O   O20       1.0  0.32891983281932397  0.6190613854888126  0.7089168658016761  1.0000
  O   O21       1.0  0.2016389216924922  0.24113870073541213  0.1490422266209279  1.0000
  O   O22       1.0  0.7983661681377401  0.7588696791119176  0.8509575576811841  1.0000
  O   O23       1.0  0.3062876582898896  0.2329877545028863  0.9537470360967507  1.0000
  O   O24       1.0  0.6937216966528087  0.7669958651894289  0.0462591520200845  1.0000
  O   O25       1.0  0.4466211451646986  0.832413896427319  0.7488761049932366  1.0000
  O   O26       1.0  0.5533772460749377  0.16759315349910514  0.2511086926671951  1.0000
  O   O27       1.0  0.7313640007462185  0.5287595153242747  0.4305112543110141  1.0000
  O   O28       1.0  0.2686372383489086  0.4712429216847409  0.5694873307504056  1.0000
