data_image0
_chemical_formula_structural       K12H4C4N24O24
_chemical_formula_sum              "K12 H4 C4 N24 O24"
_cell_length_a       7.3303127156313215
_cell_length_b       7.840387895821282
_cell_length_c       19.208497516630338
_cell_angle_alpha    82.19728047300427
_cell_angle_beta     78.99058258766308
_cell_angle_gamma    62.103468433934566

_space_group_name_H-M_alt    "P 1"
_space_group_IT_number       1

loop_
  _space_group_symop_operation_xyz
  'x, y, z'

loop_
  _atom_site_type_symbol
  _atom_site_label
  _atom_site_symmetry_multiplicity
  _atom_site_fract_x
  _atom_site_fract_y
  _atom_site_fract_z
  _atom_site_occupancy
  K   K1        1.0  0.5247666786655784  0.004948491091006697  0.3046193946599517  1.0000
  K   K2        1.0  0.8345593541098353  0.49545126224688113  0.19549108289842823  1.0000
  K   K3        1.0  0.4752304463638809  0.9950510698487489  0.695380682063913  1.0000
  K   K4        1.0  0.16543822103943032  0.5045526323930074  0.8045091145990997  1.0000
  K   K5        1.0  0.8533405106309216  0.22102542437404074  0.38686521459821693  1.0000
  K   K6        1.0  0.46140323859859905  0.27874009526259147  0.11309309677876911  1.0000
  K   K7        1.0  0.1466571333681866  0.7789741398716571  0.6131343414237521  1.0000
  K   K8        1.0  0.5385970442924015  0.7212609079733311  0.886907256150302  1.0000
  K   K9        1.0  0.27163685967025947  0.2638912868291427  0.5055944727429633  1.0000
  K   K10       1.0  0.04051433720502454  0.23666045527123458  0.994504098678384  1.0000
  K   K11       1.0  0.7283613640575904  0.7361097216589059  0.4944051572436481  1.0000
  K   K12       1.0  0.9594884630596919  0.76333910508211  0.005495861824698465  1.0000
  H   H1        1.0  0.24107727600650722  0.7824033524469555  0.31524247636918556  1.0000
  H   H2        1.0  0.3388076336172146  0.7175459917284143  0.18471437101025862  1.0000
  H   H3        1.0  0.7589237162221565  0.21759620557352824  0.6847579037155144  1.0000
  H   H4        1.0  0.6611921303041297  0.2824550082015661  0.8152865026207083  1.0000
  C   C1        1.0  0.21813696411022207  0.6765241183901267  0.35501918391181425  1.0000
  C   C2        1.0  0.24973418594401403  0.8234432824102809  0.14493110737089412  1.0000
  C   C3        1.0  0.7818658361544945  0.3234754419632111  0.6449807765912682  1.0000
  C   C4        1.0  0.7502655172182455  0.17655627658329104  0.8550691715935275  1.0000
  N   N1        1.0  0.3777169119579895  0.4849027547034977  0.3336924504200739  1.0000
  N   N2        1.0  0.1962623706561145  0.0150608619778723  0.16627079417545332  1.0000
  N   N3        1.0  0.6222825400771793  0.5150968118750611  0.6663066860202776  1.0000
  N   N4        1.0  0.8037379122348859  0.9849401412580502  0.8337295587536108  1.0000
  N   N5        1.0  0.4503089591054417  0.4866312512484966  0.2654093393133863  1.0000
  N   N6        1.0  0.20221953979854848  0.013287644670825199  0.23455421505141066  1.0000
  N   N7        1.0  0.5496912630264741  0.5133683110510248  0.7345904189491393  1.0000
  N   N8        1.0  0.7977794540260488  0.9867133595381925  0.7654460367573821  1.0000
  N   N9        1.0  0.2300930560484175  0.7233165380863084  0.4249465674100821  1.0000
  N   N10       1.0  0.37845376033146744  0.7766794285934606  0.07501181072754552  1.0000
  N   N11       1.0  0.7699071660834984  0.27668302421321295  0.5750531908524438  1.0000
  N   N12       1.0  0.6215465225595335  0.2233215746424689  0.9249885422015256  1.0000
  N   N13       1.0  0.2982202399268273  0.8538339773421127  0.42077953343730473  1.0000
  N   N14       1.0  0.5729750399149793  0.6459983293408837  0.07917187908556401  1.0000
  N   N15       1.0  0.7017814616394984  0.1461641354629393  0.5792208738030241  1.0000
  N   N16       1.0  0.42702543334403487  0.3540012253736577  0.9208290217010318  1.0000
  N   N17       1.0  0.005064593725854982  0.7047312945241585  0.3549758574896203  1.0000
  N   N18       1.0  0.06484409095875075  0.7952672467541074  0.14498710520222602  1.0000
  N   N19       1.0  0.9949363985028157  0.29526826349632523  0.6450245225950796  1.0000
  N   N20       1.0  0.9351549028658465  0.20473375745490321  0.8550131466065596  1.0000
  N   N21       1.0  0.9794380403010406  0.5580626494119014  0.34213226482059167  1.0000
  N   N22       1.0  0.8795519310754046  0.9418838434825216  0.15784503179808243  1.0000
  N   N23       1.0  0.020562761559609954  0.44193835712997026  0.6578675674065765  1.0000
  N   N24       1.0  0.12044887078525299  0.05811716305934307  0.8421548004290927  1.0000
  O   O1        1.0  0.42963774531938254  0.3323431934218277  0.37683490215288634  1.0000
  O   O2        1.0  0.13881751601747544  0.1676389564308564  0.12314673019819375  1.0000
  O   O3        1.0  0.5703611877461298  0.667656369850789  0.623164754989361  1.0000
  O   O4        1.0  0.861183285843175  0.8323620501110084  0.8768531020289816  1.0000
  O   O5        1.0  0.5792197220921409  0.3195451065011808  0.24191308150948035  1.0000
  O   O6        1.0  0.1405499722328756  0.1803403491975928  0.2580632829860363  1.0000
  O   O7        1.0  0.420779920311041  0.6804530115559967  0.758086602788403  1.0000
  O   O8        1.0  0.8594463138499858  0.8196635464153843  0.7419368133912132  1.0000
  O   O9        1.0  0.16422827605835244  0.6490046983603361  0.482958947024436  1.0000
  O   O10       1.0  0.2962304565825206  0.8511839253328972  0.017016044377164998  1.0000
  O   O11       1.0  0.8357708473751726  0.35099341639088527  0.5170412579753362  1.0000
  O   O12       1.0  0.7037698263084728  0.1488170779030326  0.9829843085519062  1.0000
  O   O13       1.0  0.30705530639640644  0.9017482064439477  0.4810776031351268  1.0000
  O   O14       1.0  0.6900463427943678  0.598101865704258  0.018862145461511694  1.0000
  O   O15       1.0  0.6929425887298066  0.09825135021677057  0.5189230954109193  1.0000
  O   O16       1.0  0.3099538793375487  0.40189769659526303  0.9811376128010068  1.0000
  O   O17       1.0  0.8590721229951087  0.8806531589351817  0.3661228059084608  1.0000
  O   O18       1.0  0.1062224361987063  0.6192865161676052  0.13386723147400661  1.0000
  O   O19       1.0  0.14092880847447725  0.11934495814890057  0.633876979509701  1.0000
  O   O20       1.0  0.8937783656619441  0.38071449037426663  0.8661326007531616  1.0000
  O   O21       1.0  0.7870622975639916  0.6014051170322359  0.3393200334740741  1.0000
  O   O22       1.0  0.7277677737581173  0.8984654494883058  0.16072067813373542  1.0000
  O   O23       1.0  0.2129372152302621  0.39859589048272415  0.6606796976328229  1.0000
  O   O24       1.0  0.272232448373799  0.10153411281121547  0.8392790801287903  1.0000
