data_image0
_chemical_formula_structural       Na4H24C16N12O24
_chemical_formula_sum              "Na4 H24 C16 N12 O24"
_cell_length_a       6.877871318200522
_cell_length_b       10.57044142601145
_cell_length_c       11.412276349002848
_cell_angle_alpha    90.00009419443369
_cell_angle_beta     95.09567000187407
_cell_angle_gamma    89.99984555228404

_space_group_name_H-M_alt    "P 1"
_space_group_IT_number       1

loop_
  _space_group_symop_operation_xyz
  'x, y, z'

loop_
  _atom_site_type_symbol
  _atom_site_label
  _atom_site_symmetry_multiplicity
  _atom_site_fract_x
  _atom_site_fract_y
  _atom_site_fract_z
  _atom_site_occupancy
  Na  Na1       1.0  0.25269080679607464  0.9305502429232182  0.9968720466295409  1.0000
  Na  Na2       1.0  0.2473136556954216  0.4305517722277728  0.5031287428120947  1.0000
  Na  Na3       1.0  0.7473108971464485  0.069448640186252  0.0031269386033870106  1.0000
  Na  Na4       1.0  0.7526865885490538  0.5694480569172458  0.4968701608785153  1.0000
  H   H1        1.0  0.10418681294284939  0.18038674119043924  0.9115474372307943  1.0000
  H   H2        1.0  0.39581130206981646  0.6803889595879797  0.5884508593495283  1.0000
  H   H3        1.0  0.8958134256258675  0.8196130879553537  0.08845234239875312  1.0000
  H   H4        1.0  0.6041874768026289  0.3196108695590851  0.41154883873707593  1.0000
  H   H5        1.0  0.0191840416011075  0.07325403435197593  0.8228149691823532  1.0000
  H   H6        1.0  0.4808203089259138  0.5732571992415886  0.6771843867865144  1.0000
  H   H7        1.0  0.9808162026433679  0.9267457947930356  0.17718393450826403  1.0000
  H   H8        1.0  0.5191813893390744  0.42674262990293965  0.322815474385969  1.0000
  H   H9        1.0  0.5156414385981094  0.0110503352820501  0.2062576153812685  1.0000
  H   H10       1.0  0.9843620768563497  0.5110499149882415  0.2937441121686248  1.0000
  H   H11       1.0  0.4843587942930797  0.9889504398988084  0.7937430401878416  1.0000
  H   H12       1.0  0.015638161710590695  0.48895086019184225  0.706255667461548  1.0000
  H   H13       1.0  0.4249322583716832  0.1306253078085291  0.13794401972369744  1.0000
  H   H14       1.0  0.075066640407826  0.6306295429319705  0.36205600334223925  1.0000
  H   H15       1.0  0.5750694398950884  0.8693735753017078  0.8620558414481606  1.0000
  H   H16       1.0  0.9249336038330966  0.3693721782816156  0.6379429003496355  1.0000
  H   H17       1.0  0.16180517023668983  0.4256754066775629  0.9147313075719623  1.0000
  H   H18       1.0  0.33819346610309964  0.9256777251689885  0.5852700251430889  1.0000
  H   H19       1.0  0.8381950569822935  0.5743234764355023  0.08527022393482038  1.0000
  H   H20       1.0  0.6618038417215643  0.07432210398089723  0.4147313432784401  1.0000
  H   H21       1.0  0.5143288655423319  0.7174087733678576  0.2580846022610501  1.0000
  H   H22       1.0  0.9856651449976185  0.21740934025661582  0.24191253124904222  1.0000
  H   H23       1.0  0.4856713786985908  0.2825929478457284  0.7419143014308247  1.0000
  H   H24       1.0  0.0143336338730506  0.7825914349247258  0.7580871668381945  1.0000
  C   C1        1.0  0.32758006352468544  0.5053334557839906  0.09351428838690622  1.0000
  C   C2        1.0  0.1724178461773604  0.005335833460712501  0.40648548622035463  1.0000
  C   C3        1.0  0.6724216347367502  0.4946682654291124  0.9064855727868419  1.0000
  C   C4        1.0  0.8275794616473036  0.9946639956891733  0.5935158822011743  1.0000
  C   C5        1.0  0.292474438582019  0.3689314054575022  0.0694968397091102  1.0000
  C   C6        1.0  0.2075148523351373  0.8689232197857636  0.4304960040521451  1.0000
  C   C7        1.0  0.7075243516366144  0.6310712617908578  0.9305011065015164  1.0000
  C   C8        1.0  0.7924781161381061  0.13107282522533842  0.5694989881655133  1.0000
  C   C9        1.0  0.279227742415614  0.6163836768813342  0.0278884512449125  1.0000
  C   C10       1.0  0.2207712155421575  0.11638324342438726  0.47211067690619757  1.0000
  C   C11       1.0  0.7207739615233564  0.38361709829670354  0.972110533989273  1.0000
  C   C12       1.0  0.7792275633320643  0.8836156396883935  0.5278890211797744  1.0000
  C   C13       1.0  0.17321708923475398  0.635019534811754  0.9098976300019359  1.0000
  C   C14       1.0  0.32678557526349994  0.13502674782870372  0.590100850772096  1.0000
  C   C15       1.0  0.826787539774294  0.36498029432868156  0.090100642378566  1.0000
  C   C16       1.0  0.6732146462761719  0.8649740273537108  0.4099015566748818  1.0000
  N   N1        1.0  0.35074561300649515  0.7161486591923423  0.0917915974813113  1.0000
  N   N2        1.0  0.1492529815702426  0.21614824429843796  0.4082059116994117  1.0000
  N   N3        1.0  0.6492546312362037  0.28385211598696714  0.9082073062099312  1.0000
  N   N4        1.0  0.8507457859489166  0.7838525308844665  0.5917955382656928  1.0000
  N   N5        1.0  0.42773016208240483  0.5405221446804236  0.19504851218868421  1.0000
  N   N6        1.0  0.07226469605655693  0.04052263505219141  0.3049511462100085  1.0000
  N   N7        1.0  0.5722700708070079  0.4594795765347187  0.8049521433810582  1.0000
  N   N8        1.0  0.9277326117645542  0.9594790861662619  0.6950502222127852  1.0000
  N   N9        1.0  0.43603769910409085  0.6653400031594006  0.188878557801246  1.0000
  N   N10       1.0  0.0639581555736939  0.1653395736114903  0.3111204724838785  1.0000
  N   N11       1.0  0.5639625337835454  0.3346626640900255  0.8111220977691218  1.0000
  N   N12       1.0  0.9360391522491939  0.8346612015726791  0.6888808959382828  1.0000
  O   O1        1.0  0.11099313717840431  0.5346812548021165  0.8546216657812167  1.0000
  O   O2        1.0  0.3890040597627049  0.03467899076090221  0.6453772310824561  1.0000
  O   O3        1.0  0.8890100207881843  0.46531573623828854  0.1453782769323197  1.0000
  O   O4        1.0  0.610999098200331  0.9653198923480705  0.35462271163233794  1.0000
  O   O5        1.0  0.1494641163922878  0.7461605772090822  0.8721536052889433  1.0000
  O   O6        1.0  0.3505381363491579  0.24615173059645204  0.627844147598168  1.0000
  O   O7        1.0  0.8505405126167603  0.2538392519313604  0.1278446670915585  1.0000
  O   O8        1.0  0.6494606311824357  0.7538424223464519  0.372157302362524  1.0000
  O   O9        1.0  0.47481604248230974  0.04402811222018241  0.1272152358300076  1.0000
  O   O10       1.0  0.025186095291395805  0.544029619663995  0.3727857108936661  1.0000
  O   O11       1.0  0.5251827363901356  0.9559717169268822  0.8727844622566039  1.0000
  O   O12       1.0  0.974815608649351  0.45597020947975875  0.627213274339887  1.0000
  O   O13       1.0  0.20213936172022784  0.34059098285420936  0.9654816933562813  1.0000
  O   O14       1.0  0.297862507928251  0.840592339849053  0.5345205650330058  1.0000
  O   O15       1.0  0.7978652502615518  0.6594088462885638  0.0345192068410256  1.0000
  O   O16       1.0  0.7021333345243903  0.15940748930287194  0.4654815977845175  1.0000
  O   O17       1.0  0.0536238244835801  0.09369409315755213  0.9063568814592672  1.0000
  O   O18       1.0  0.4463775469005711  0.5936981200079999  0.5936397108378486  1.0000
  O   O19       1.0  0.946379344830973  0.9063047899498715  0.0936413093776665  1.0000
  O   O20       1.0  0.5536212376458564  0.40630265517257425  0.40635911131045077  1.0000
  O   O21       1.0  0.34775511031425305  0.2885326962467688  0.1435160896420982  1.0000
  O   O22       1.0  0.1522431385730556  0.7885424561774953  0.3564929031819446  1.0000
  O   O23       1.0  0.6522495016693028  0.7114661868617135  0.8564848105545764  1.0000
  O   O24       1.0  0.8477556175874882  0.21146210314410047  0.6435102986635428  1.0000
