data_image0
_chemical_formula_structural       Cd4H36C44O20
_chemical_formula_sum              "Cd4 H36 C44 O20"
_cell_length_a       8.227944270830584
_cell_length_b       11.356246938009498
_cell_length_c       12.2325970847852
_cell_angle_alpha    83.79699971824267
_cell_angle_beta     87.48165154492553
_cell_angle_gamma    78.29154798138481

_space_group_name_H-M_alt    "P 1"
_space_group_IT_number       1

loop_
  _space_group_symop_operation_xyz
  'x, y, z'

loop_
  _atom_site_type_symbol
  _atom_site_label
  _atom_site_symmetry_multiplicity
  _atom_site_fract_x
  _atom_site_fract_y
  _atom_site_fract_z
  _atom_site_occupancy
  Cd  Cd1       1.0  0.9871325087940548  0.35019420553390296  0.9924875694332727  1.0000
  Cd  Cd2       1.0  0.012877229348873698  0.6498016430790017  0.007510479856321695  1.0000
  Cd  Cd3       1.0  0.3907926530790391  0.4582179024409428  0.888827760812312  1.0000
  Cd  Cd4       1.0  0.6092175671236219  0.5417769406827376  0.11117526185601179  1.0000
  H   H1        1.0  0.21490902050453536  0.9832808562667168  0.9549310128616354  1.0000
  H   H2        1.0  0.7850766977519542  0.016715175744700196  0.04507560087978389  1.0000
  H   H3        1.0  0.6491215274813413  0.733530715350092  0.8529435089185783  1.0000
  H   H4        1.0  0.3508993864207071  0.26647806125542667  0.1470740903555026  1.0000
  H   H5        1.0  0.6147569709643931  0.1181721992852474  0.7808802366005665  1.0000
  H   H6        1.0  0.38525113940994515  0.8818180063801861  0.21913148674217098  1.0000
  H   H7        1.0  0.8806108143668752  0.05574392016591639  0.7375382324122982  1.0000
  H   H8        1.0  0.11938828959368662  0.9442647479242795  0.2624559417474046  1.0000
  H   H9        1.0  0.7745343861501512  0.022724535793948116  0.6232255644983056  1.0000
  H   H10       1.0  0.22544853495696063  0.9772671304055579  0.37677667196942377  1.0000
  H   H11       1.0  0.9213643330094924  0.8017050407575609  0.553612238784396  1.0000
  H   H12       1.0  0.07864355482276153  0.19829351855295838  0.4463864808376812  1.0000
  H   H13       1.0  0.1940414837610476  0.6884328797244309  0.4928453833826723  1.0000
  H   H14       1.0  0.8059545540059788  0.3115648931303454  0.5071564615558728  1.0000
  H   H15       1.0  0.44126340486720056  0.9196575196783097  0.6524219897842302  1.0000
  H   H16       1.0  0.558733084840398  0.0803437999201861  0.3475819702715199  1.0000
  H   H17       1.0  0.16898389533363198  0.030024820049902697  0.7175888427860143  1.0000
  H   H18       1.0  0.831009296111823  0.9699747766906343  0.28241380203850497  1.0000
  H   H19       1.0  0.7947046537029864  0.4696849202360696  0.5923135980425585  1.0000
  H   H20       1.0  0.20529016551105886  0.5303203194519382  0.4076753727288178  1.0000
  H   H21       1.0  0.9195461411576886  0.5488553955325344  0.4182554372100569  1.0000
  H   H22       1.0  0.08043845398746899  0.4511472506239542  0.5817359193971114  1.0000
  H   H23       1.0  0.78409744833818  0.750310202804748  0.32564133175976906  1.0000
  H   H24       1.0  0.21589725152968245  0.24969426908457845  0.6743411691857517  1.0000
  H   H25       1.0  0.518840345786195  0.8588235192613213  0.39885690326204326  1.0000
  H   H26       1.0  0.4811536764636701  0.14118774017747882  0.6011462961636056  1.0000
  H   H27       1.0  0.8680285988855019  0.34697060476785413  0.2342154419108624  1.0000
  H   H28       1.0  0.13197533502236777  0.6530198550622687  0.765786654186705  1.0000
  H   H29       1.0  0.9813476383384271  0.4431658476562959  0.2083021878868436  1.0000
  H   H30       1.0  0.01865322493353012  0.5568273396814192  0.7917006389485053  1.0000
  H   H31       1.0  0.24050662812342688  0.44096279992784565  0.0812076529016963  1.0000
  H   H32       1.0  0.7594947953691502  0.5590376167204668  0.9187928651940139  1.0000
  H   H33       1.0  0.8197377022114409  0.44023173507263647  0.7690230884705969  1.0000
  H   H34       1.0  0.18025315355171753  0.5597662238673281  0.23097327648685714  1.0000
  H   H35       1.0  0.9903775881045433  0.34045199520991076  0.7643900412714472  1.0000
  H   H36       1.0  0.009619102012841628  0.6595468002799052  0.2356051351395578  1.0000
  C   C1        1.0  0.4070729905263804  0.06194960650496029  0.8682887147773783  1.0000
  C   C2        1.0  0.5929306988836559  0.9380623711421662  0.1317163843729432  1.0000
  C   C3        1.0  0.33718367428571844  0.9660358299801641  0.9153987909549244  1.0000
  C   C4        1.0  0.6628112881790713  0.033971797993359615  0.08460550243524519  1.0000
  C   C5        1.0  0.42554753562855296  0.8470473282988424  0.9113461809917637  1.0000
  C   C6        1.0  0.5744683486377083  0.1529463232504327  0.08866729503637319  1.0000
  C   C7        1.0  0.58118797114129  0.8253670201774385  0.8590436884541645  1.0000
  C   C8        1.0  0.41883211858013425  0.17464080170463347  0.14097730986043183  1.0000
  C   C9        1.0  0.6499760946491053  0.9220271658135742  0.8095838178115714  1.0000
  C   C10       1.0  0.3500373874819048  0.07798012512078148  0.190423656357865  1.0000
  C   C11       1.0  0.5638752284631041  0.0406585253050267  0.8153985064562121  1.0000
  C   C12       1.0  0.4361300674810806  0.9593364020364632  0.1846039404615496  1.0000
  C   C13       1.0  0.316019051075969  0.19012567432159952  0.8742113051179387  1.0000
  C   C14       1.0  0.6839797136664315  0.8098695068487487  0.12578327010876927  1.0000
  C   C15       1.0  0.3473529348625987  0.7438718396819227  0.9581270361300723  1.0000
  C   C16       1.0  0.6526552074031573  0.2561212637738138  0.04187461090172208  1.0000
  C   C17       1.0  0.863826929913678  0.983269083518202  0.6885039137674765  1.0000
  C   C18       1.0  0.13616105716300103  0.0167269827848386  0.3114993096763143  1.0000
  C   C19       1.0  0.027037478145025877  0.9229565971137317  0.6413440800430975  1.0000
  C   C20       1.0  0.9729560554213209  0.07704495983946909  0.35865019236217677  1.0000
  C   C21       1.0  0.03513767322332481  0.8280779159393247  0.5754606520662406  1.0000
  C   C22       1.0  0.9648737863575859  0.17191527290964362  0.4245342747755956  1.0000
  C   C23       1.0  0.18819464961927673  0.7646027782435142  0.5408958917960405  1.0000
  C   C24       1.0  0.8118228194580086  0.23539653323112467  0.4591030928071973  1.0000
  C   C25       1.0  0.33667577357417866  0.7947921547890642  0.5702723112731789  1.0000
  C   C26       1.0  0.6633263786573736  0.20521006927086202  0.42972719074909793  1.0000
  C   C27       1.0  0.3275244570388481  0.8940778063216043  0.6301219672389848  1.0000
  C   C28       1.0  0.672472696085251  0.10592162114372172  0.36988621797192417  1.0000
  C   C29       1.0  0.17386062406168185  0.9565741005336788  0.6662992970471819  1.0000
  C   C30       1.0  0.8261320629591395  0.04342278517340501  0.3337044329989709  1.0000
  C   C31       1.0  0.5006694515716178  0.7252208976528391  0.5351193096035303  1.0000
  C   C32       1.0  0.4993199136916786  0.2747895254040316  0.4648842005915199  1.0000
  C   C33       1.0  0.5830244181283889  0.6154305713225768  0.5916821431655278  1.0000
  C   C34       1.0  0.4169619161446789  0.3845772082765819  0.4083209383182335  1.0000
  C   C35       1.0  0.7343110325650101  0.5548774175418246  0.5488253131234159  1.0000
  C   C36       1.0  0.2656724410084621  0.445129746723893  0.45116569774279464  1.0000
  C   C37       1.0  0.8059097019506042  0.6001448888198267  0.45251834072518443  1.0000
  C   C38       1.0  0.1940749027210629  0.3998569386042945  0.5474689981713965  1.0000
  C   C39       1.0  0.7291694771938139  0.7113062671035594  0.3999822714785708  1.0000
  C   C40       1.0  0.2708169253044587  0.2886936853332002  0.6000075974243586  1.0000
  C   C41       1.0  0.5788445981160778  0.7726861959431305  0.4412417146816949  1.0000
  C   C42       1.0  0.421143381206349  0.22731813911552484  0.558752591900209  1.0000
  C   C43       1.0  0.518364667355577  0.5599087965118484  0.6968589384090292  1.0000
  C   C44       1.0  0.4816380322581893  0.44009612160363076  0.30314029576337026  1.0000
  O   O1        1.0  0.16350629073119896  0.20631630005443916  0.9050493748946309  1.0000
  O   O2        1.0  0.8365034998958051  0.7936787128482052  0.09494547405613221  1.0000
  O   O3        1.0  0.398982321939684  0.27169657406922443  0.8443980792588235  1.0000
  O   O4        1.0  0.6010134055978683  0.7283021363631902  0.15560206178802358  1.0000
  O   O5        1.0  0.19635877753130154  0.770261901472793  0.9886875619510604  1.0000
  O   O6        1.0  0.8036439220824647  0.2297430166426934  0.011311672221346198  1.0000
  O   O7        1.0  0.4358195056523472  0.6358497619351908  0.962564813061924  1.0000
  O   O8        1.0  0.564203794467275  0.364145032101881  0.0374310061740317  1.0000
  O   O9        1.0  0.7998974107120209  0.890618977656679  0.75735280993689  1.0000
  O   O10       1.0  0.20012053421038442  0.10938550104850721  0.2426571425764834  1.0000
  O   O11       1.0  0.3640229479912023  0.5811573619208301  0.721061420841025  1.0000
  O   O12       1.0  0.6359784817159877  0.41883688200771013  0.2789331027232791  1.0000
  O   O13       1.0  0.6215193061519884  0.48888606932744233  0.7628561373229487  1.0000
  O   O14       1.0  0.3784737196778281  0.5111074226049013  0.23713724348313292  1.0000
  O   O15       1.0  0.18321594133941235  0.4606432387112633  0.011513007987126391  1.0000
  O   O16       1.0  0.8167854230453031  0.5393473056724999  0.98848675680577  1.0000
  O   O17       1.0  0.9612977620066235  0.3656419433271482  0.18779204532178537  1.0000
  O   O18       1.0  0.03869999719837841  0.634353169763699  0.8122066771690086  1.0000
  O   O19       1.0  0.9416690792228479  0.41975697497039727  0.7869687663965904  1.0000
  O   O20       1.0  0.05832678671391282  0.5802408657959645  0.21302980905493032  1.0000
