data_image0
_chemical_formula_structural       Cd6H40C24N20O16
_chemical_formula_sum              "Cd6 H40 C24 N20 O16"
_cell_length_a       7.122481561703718
_cell_length_b       12.566664085482987
_cell_length_c       13.793939737662408
_cell_angle_alpha    107.07921403885771
_cell_angle_beta     89.98138246789179
_cell_angle_gamma    106.47373620004268

_space_group_name_H-M_alt    "P 1"
_space_group_IT_number       1

loop_
  _space_group_symop_operation_xyz
  'x, y, z'

loop_
  _atom_site_type_symbol
  _atom_site_label
  _atom_site_symmetry_multiplicity
  _atom_site_fract_x
  _atom_site_fract_y
  _atom_site_fract_z
  _atom_site_occupancy
  Cd  Cd1       1.0  0.28815144504115137  8.53834175061e-05  0.750053788908204  1.0000
  Cd  Cd2       1.0  0.711842551498776  0.999915335351396  0.24994803210074673  1.0000
  Cd  Cd3       1.0  0.9135765460013514  0.8333265968239018  0.9556356275804133  1.0000
  Cd  Cd4       1.0  0.08029734707776727  0.16666103135491986  0.5443095564324381  1.0000
  Cd  Cd5       1.0  0.08641894765431597  0.16667149874113107  0.044362596876972284  1.0000
  Cd  Cd6       1.0  0.9197013937662034  0.833337944246416  0.45569180127750986  1.0000
  H   H1        1.0  0.6686632641409673  0.7185699819240696  0.6792674016008178  1.0000
  H   H2        1.0  0.9493426184778001  0.2810328042017218  0.8209144334553357  1.0000
  H   H3        1.0  0.3313360048893371  0.2814272400390222  0.32072986559472116  1.0000
  H   H4        1.0  0.050654524101140797  0.7189713971984305  0.17908686218641634  1.0000
  H   H5        1.0  0.7991629587224408  0.6336451513974736  0.7171356268317126  1.0000
  H   H6        1.0  0.16455129844568714  0.36623832152442753  0.7829925049579174  1.0000
  H   H7        1.0  0.20083490708525878  0.36635207258377267  0.2828623659761717  1.0000
  H   H8        1.0  0.8354486529971863  0.63376588203635  0.21700951597880894  1.0000
  H   H9        1.0  0.7914493520683832  0.6372163621344312  0.5878538675347258  1.0000
  H   H10       1.0  0.15338618790756434  0.3626577597558907  0.9122748229911721  1.0000
  H   H11       1.0  0.20854948186249078  0.3627799902155429  0.41214389372944277  1.0000
  H   H12       1.0  0.8466124542058394  0.6373438246373199  0.08772505261867992  1.0000
  H   H13       1.0  0.4922781334450547  0.7350047510302814  0.8483316404941802  1.0000
  H   H14       1.0  0.7574953563033445  0.2650110517751044  0.6517197890318797  1.0000
  H   H15       1.0  0.5077219135034312  0.26499683547604747  0.15166896051643156  1.0000
  H   H16       1.0  0.2425033845406331  0.7349879238262318  0.3482815686780682  1.0000
  H   H17       1.0  0.30705994302421397  0.7851611462711149  0.8164383521593661  1.0000
  H   H18       1.0  0.5219382252387915  0.21491228968300644  0.6834942245160673  1.0000
  H   H19       1.0  0.6929359889558385  0.21483782716959615  0.18356228025560029  1.0000
  H   H20       1.0  0.47806279063911444  0.7850884272576976  0.3165068704573954  1.0000
  H   H21       1.0  0.8093333456421163  0.421357367712531  0.8487440114344833  1.0000
  H   H22       1.0  0.38795239538206516  0.578475271118286  0.6515401389555748  1.0000
  H   H23       1.0  0.19066679358703445  0.578641593476803  0.15125226762380348  1.0000
  H   H24       1.0  0.6120561736638164  0.42152370481546336  0.3484612180138598  1.0000
  H   H25       1.0  0.5943093858525045  0.43497106890595205  0.9121558624350639  1.0000
  H   H26       1.0  0.15943597539703067  0.5651569241140917  0.5882593460607595  1.0000
  H   H27       1.0  0.40569172311230517  0.5650270247833903  0.08784163609261955  1.0000
  H   H28       1.0  0.840574868682779  0.4348437931590252  0.41174174817218295  1.0000
  H   H29       1.0  0.6032630658068567  0.43526781179178897  0.7840779912892443  1.0000
  H   H30       1.0  0.16796112453474157  0.5645661169154934  0.7162460550259695  1.0000
  H   H31       1.0  0.39673654201101255  0.5647328947732148  0.21591947625722696  1.0000
  H   H32       1.0  0.8320478788043317  0.4354337265657335  0.2837540823682829  1.0000
  H   H33       1.0  0.7667192329757312  0.27143007520145085  0.99292073442151  1.0000
  H   H34       1.0  0.4947266065424855  0.7285620524679073  0.506935659718877  1.0000
  H   H35       1.0  0.23327800591506778  0.7285715112099069  0.007079866800680253  1.0000
  H   H36       1.0  0.5052730053065773  0.271438664425304  0.49306543536036423  1.0000
  H   H37       1.0  0.5295910091987037  0.22430922075199788  0.938728902521582  1.0000
  H   H38       1.0  0.3046842268192546  0.7757769687667986  0.5610311760100826  1.0000
  H   H39       1.0  0.4704066672102341  0.7756932414694048  0.06127338115163642  1.0000
  H   H40       1.0  0.6953177571818328  0.22422287654263323  0.4389696874196644  1.0000
  C   C1        1.0  0.5630728326315687  0.9097535746561786  0.8737819095376903  1.0000
  C   C2        1.0  0.6532743650641349  0.09026272524705797  0.626231873087832  1.0000
  C   C3        1.0  0.4369230022303866  0.09024801170769342  0.12621869179029227  1.0000
  C   C4        1.0  0.3467280564550989  0.909737995872412  0.3737706727929435  1.0000
  C   C5        1.0  0.7997366436123341  0.6878383518451868  0.6679245837996105  1.0000
  C   C6        1.0  0.11120409616284374  0.3120006597307565  0.8322085157939937  1.0000
  C   C7        1.0  0.2002630629361021  0.31215974592794987  0.33207436584697086  1.0000
  C   C8        1.0  0.8887968201782498  0.6880026639361816  0.16779037157281348  1.0000
  C   C9        1.0  0.9762371983686504  0.7934069610763502  0.6961682281960577  1.0000
  C   C10       1.0  0.18266558074435574  0.20663556802789879  0.8039552330786534  1.0000
  C   C11       1.0  0.023760667439049074  0.20659026290489624  0.30382976461182654  1.0000
  C   C12       1.0  0.8173298182119381  0.7933651466572087  0.19604513681139926  1.0000
  C   C13       1.0  0.6925096690509989  0.4630835193345106  0.8571018939610225  1.0000
  C   C14       1.0  0.22937350118520775  0.5368390277729915  0.6431778835345057  1.0000
  C   C15       1.0  0.30748950286120186  0.5369163155517426  0.14289534214752558  1.0000
  C   C16       1.0  0.7706377779940323  0.4631625591132433  0.3568227166298072  1.0000
  C   C17       1.0  0.7741129718292896  0.5941357014612549  0.8924962432064375  1.0000
  C   C18       1.0  0.17972155968668346  0.4057959509761346  0.6075403968822144  1.0000
  C   C19       1.0  0.22588620008291818  0.4058641334249912  0.10750099290211777  1.0000
  C   C20       1.0  0.820280952500731  0.594202140695053  0.3924563760331238  1.0000
  C   C21       1.0  0.657767356943424  0.09713619514114671  0.9245834550013325  1.0000
  C   C22       1.0  0.560303513130577  0.9028763293816265  0.5753073867584887  1.0000
  C   C23       1.0  0.34222944684795187  0.9028645216570935  0.07541764028948707  1.0000
  C   C24       1.0  0.4396956636190623  0.0971235178984671  0.4246942023893893  1.0000
  N   N1        1.0  0.5081781515055255  0.0038223485111502004  0.8696111570905316  1.0000
  N   N2        1.0  0.5039702529657859  0.9962072480771269  0.630171815545097  1.0000
  N   N3        1.0  0.49181584342192486  0.9961783661264716  0.13038921290530675  1.0000
  N   N4        1.0  0.49602892297761497  0.003792597137326899  0.3698290480962214  1.0000
  N   N5        1.0  0.7371502302172386  0.9418000155321236  0.9269164711173941  1.0000
  N   N6        1.0  0.7955630534504792  0.0581972220621836  0.5733272810857031  1.0000
  N   N7        1.0  0.26284797840921925  0.05820070337924219  0.07308534957419249  1.0000
  N   N8        1.0  0.20443612249292176  0.9418026231522701  0.4266735825556154  1.0000
  N   N9        1.0  0.45426235230463136  0.7972591190836267  0.8258971242432124  1.0000
  N   N10       1.0  0.6570211069591778  0.20277274815366295  0.6741100781646097  1.0000
  N   N11       1.0  0.5457362914212495  0.20274246944086366  0.17410420237974478  1.0000
  N   N12       1.0  0.34297990891872826  0.7972279687870412  0.32589101680885335  1.0000
  N   N13       1.0  0.7984779103007966  0.06381222114131188  0.9601557994340126  1.0000
  N   N14       1.0  0.7347165011806138  0.9361812527526961  0.5399839686957859  1.0000
  N   N15       1.0  0.2015170527498284  0.9361876218650378  0.039844339018117035  1.0000
  N   N16       1.0  0.2652840812103463  0.06381859870617028  0.4600190713594117  1.0000
  N   N17       1.0  0.6636275211244465  0.21033854700502264  0.9381308004054175  1.0000
  N   N18       1.0  0.45268680608551626  0.7897050430160844  0.5616507289550936  1.0000
  N   N19       1.0  0.336369718572591  0.789663041471975  0.06187052632333221  1.0000
  N   N20       1.0  0.5473161468449916  0.21029393272771557  0.4383506284374903  1.0000
  O   O1        1.0  0.653041152828514  0.654546443078786  0.9048084934167162  1.0000
  O   O2        1.0  0.9981922166869308  0.3454412613299027  0.5949529599269495  1.0000
  O   O3        1.0  0.34695618318038157  0.34545253040941765  0.09519213889246458  1.0000
  O   O4        1.0  0.001815718992140978  0.6545620605088301  0.4050452014043556  1.0000
  O   O5        1.0  0.9598531453021051  0.6423166647488258  0.9094015179534762  1.0000
  O   O6        1.0  0.317209619910514  0.35753562225544033  0.5907114824460178  1.0000
  O   O7        1.0  0.04014602741634115  0.3576831722030605  0.09059644366162438  1.0000
  O   O8        1.0  0.6827951705357832  0.6424642190176754  0.40928792975903855  1.0000
  O   O9        1.0  0.05007746436073982  0.8407614648562216  0.6288200381588354  1.0000
  O   O10       1.0  0.20937712557535085  0.15936724747390227  0.8713325611435677  1.0000
  O   O11       1.0  0.9499227744052231  0.1592348896068856  0.3711784485061073  1.0000
  O   O12       1.0  0.7906118809598578  0.8406291066092988  0.12866592636767385  1.0000
  O   O13       1.0  0.05249428425855737  0.8387907995630499  0.7886304294124358  1.0000
  O   O14       1.0  0.21353251420726588  0.16126220939807467  0.7114696144542448  1.0000
  O   O15       1.0  0.9474992755694698  0.16120904546145454  0.2113704346520393  1.0000
  O   O16       1.0  0.7864665646180382  0.8387402487395332  0.2885312181000827  1.0000
