data_image0
_chemical_formula_structural       Ag4P4H64C40N8O28
_chemical_formula_sum              "Ag4 P4 H64 C40 N8 O28"
_cell_length_a       8.766311486
_cell_length_b       10.944172261934371
_cell_length_c       16.257
_cell_angle_alpha    90.0
_cell_angle_beta     90.0
_cell_angle_gamma    108.2438538454924

_space_group_name_H-M_alt    "P 1"
_space_group_IT_number       1

loop_
  _space_group_symop_operation_xyz
  'x, y, z'

loop_
  _atom_site_type_symbol
  _atom_site_label
  _atom_site_symmetry_multiplicity
  _atom_site_fract_x
  _atom_site_fract_y
  _atom_site_fract_z
  _atom_site_occupancy
  Ag  Ag1       1.0  0.12453729612352052  0.5284865973544797  0.1541563634126817  1.0000
  Ag  Ag2       1.0  0.3754613880630728  0.4715135541746847  0.6541563634126819  1.0000
  Ag  Ag3       1.0  0.8754618736721016  0.4715135541746847  0.8458436365873183  1.0000
  Ag  Ag4       1.0  0.624537781732549  0.5284865973544797  0.3458436365873183  1.0000
  P   P1        1.0  0.037516086186762714  0.17722755339919874  0.1545918681183522  1.0000
  P   P2        1.0  0.46248259799983066  0.8227725981299728  0.6545918681183522  1.0000
  P   P3        1.0  0.9624830836088591  0.8227725981299728  0.8454081318816478  1.0000
  P   P4        1.0  0.5375165717957913  0.17722755339919874  0.3454081318816478  1.0000
  H   H1        1.0  0.39610264591714645  0.22544461586402062  0.1853158639355357  1.0000
  H   H2        1.0  0.10389717900007155  0.7745555356651508  0.6853158639355357  1.0000
  H   H3        1.0  0.6038965238784685  0.7745555356651508  0.8146841360644643  1.0000
  H   H4        1.0  0.896103131526175  0.22544461586402062  0.3146841360644643  1.0000
  H   H5        1.0  0.3335375703022905  0.3628021992808855  0.1697428799901601  1.0000
  H   H6        1.0  0.16646225461492747  0.637197952248286  0.6697428799901604  1.0000
  H   H7        1.0  0.666462740223956  0.637197952248286  0.8302571200098399  1.0000
  H   H8        1.0  0.8335380559113119  0.3628021992808855  0.3302571200098399  1.0000
  H   H9        1.0  0.2996998694903894  0.2941484219113804  0.9701187180906672  1.0000
  H   H10       1.0  0.20029995542682846  0.7058517296177911  0.4701187180906673  1.0000
  H   H11       1.0  0.7003004410358571  0.7058517296177911  0.0298812819093328  1.0000
  H   H12       1.0  0.7996999790785395  0.2941474598214242  0.5298812819093328  1.0000
  H   H13       1.0  0.510358079278497  0.3785612328059075  0.8646533800824232  1.0000
  H   H14       1.0  0.9896419521470322  0.6214398808132202  0.364653380082423  1.0000
  H   H15       1.0  0.48964223124774975  0.621438918723257  0.135346619917577  1.0000
  H   H16       1.0  0.010357593669468191  0.3785612328059075  0.635346619917577  1.0000
  H   H17       1.0  0.87432460354664  0.4447347422616446  0.0390373377621955  1.0000
  H   H18       1.0  0.6256758165677496  0.5552644471775636  0.5390373377621955  1.0000
  H   H19       1.0  0.12567533095872824  0.5552644471775636  0.9609632773574435  1.0000
  H   H20       1.0  0.3743244939584898  0.4447357043516007  0.4609626622378045  1.0000
  H   H21       1.0  0.679408745767212  0.3634660413524529  0.1517057267638577  1.0000
  H   H22       1.0  0.820592050368056  0.6365341101767186  0.6517057267638577  1.0000
  H   H23       1.0  0.3205915647590345  0.6365341101767186  0.8482942732361423  1.0000
  H   H24       1.0  0.17940826015818348  0.3634660413524529  0.3482942732361423  1.0000
  H   H25       1.0  0.9789393693251043  0.1090528968291764  0.9699298763609505  1.0000
  H   H26       1.0  0.5210610507892923  0.890946292610032  0.4699298763609505  1.0000
  H   H27       1.0  0.021061705910888434  0.890946292610032  0.0300701236390495  1.0000
  H   H28       1.0  0.4789381190063296  0.10905385891913262  0.5300701236390495  1.0000
  H   H29       1.0  0.932871806762634  0.24305759673963936  0.012036661130586903  1.0000
  H   H30       1.0  0.5671282246628948  0.7569435168794882  0.5120366611305869  1.0000
  H   H31       1.0  0.0671277390538663  0.7569435168794882  0.9879633388694132  1.0000
  H   H32       1.0  0.4328705691118415  0.243055672559727  0.48796333886941323  1.0000
  H   H33       1.0  0.6873396999945599  0.9764433788881277  0.9802909515900853  1.0000
  H   H34       1.0  0.8126614721615937  0.0235577347309999  0.4802903364704463  1.0000
  H   H35       1.0  0.3126621272831898  0.0235577347309999  0.0197096635295537  1.0000
  H   H36       1.0  0.18733883836465284  0.9764424167981646  0.5197096635295537  1.0000
  H   H37       1.0  0.7118522912596603  0.11793779759862841  0.9208796210863  1.0000
  H   H38       1.0  0.7881485048756147  0.882062353930543  0.4208783908470224  1.0000
  H   H39       1.0  0.2881480192665862  0.882062353930543  0.0791216091529776  1.0000
  H   H40       1.0  0.21185180565063186  0.11793779759862841  0.5791216091529776  1.0000
  H   H41       1.0  0.6420225053042968  0.1113445951110208  0.0237479239712144  1.0000
  H   H42       1.0  0.8579790555407172  0.8886545943281876  0.5237485390908532  1.0000
  H   H43       1.0  0.3579797106623205  0.8886545943281876  0.9762514609091468  1.0000
  H   H44       1.0  0.14201973823401912  0.1113445951110208  0.4762514609091468  1.0000
  H   H45       1.0  0.20054182136809118  0.9952041330845844  0.1967915359537429  1.0000
  H   H46       1.0  0.29945686281850215  0.0047960184445799  0.6967915359537429  1.0000
  H   H47       1.0  0.7994569724066451  0.0047950563546237  0.8032078489266183  1.0000
  H   H48       1.0  0.7005423069771197  0.9952041330845844  0.3032078489266184  1.0000
  H   H49       1.0  0.9954046930086875  0.9074730739221764  0.1741988066678957  1.0000
  H   H50       1.0  0.5045949623959629  0.092527077606988  0.6741988066678957  1.0000
  H   H51       1.0  0.0045944767869344014  0.092527077606988  0.8258011933321043  1.0000
  H   H52       1.0  0.4954053481302836  0.9074730739221764  0.3258011933321043  1.0000
  H   H53       1.0  0.13514517223290312  0.9652475380376516  0.34885833794673  1.0000
  H   H54       1.0  0.36485616943581795  0.0347535755814761  0.8488577228270915  1.0000
  H   H55       1.0  0.8648555143142217  0.0347535755814761  0.6511422771729087  1.0000
  H   H56       1.0  0.6351441410904286  0.9652465759476954  0.1511422771729087  1.0000
  H   H57       1.0  0.10671087752420048  0.81841625479656  0.2958989973549819  1.0000
  H   H58       1.0  0.39328932341390305  0.1815848588225677  0.7958989973549819  1.0000
  H   H59       1.0  0.8932898090229244  0.1815848588225677  0.704101002645011  1.0000
  H   H60       1.0  0.6067109871123434  0.8184152927065966  0.204101002645011  1.0000
  H   H61       1.0  0.9364141488118634  0.8660483665664316  0.3221559943408963  1.0000
  H   H62       1.0  0.5635866473234118  0.1339517849627327  0.8221559943408963  1.0000
  H   H63       1.0  0.0635857856935047  0.13395082287277663  0.677844005659104  1.0000
  H   H64       1.0  0.4364136632028348  0.8660483665664316  0.1778440056591037  1.0000
  C   C1        1.0  0.3521246908325538  0.2788406085770276  0.1387519222488791  1.0000
  C   C2        1.0  0.1478747580637858  0.7211585808621807  0.6387519222488791  1.0000
  C   C3        1.0  0.6478752436728146  0.7211585808621807  0.8612480777511209  1.0000
  C   C4        1.0  0.8521255524624609  0.2788415706669838  0.3612480777511209  1.0000
  C   C5        1.0  0.4716530542337125  0.3225166064363449  0.070525312173217  1.0000
  C   C6        1.0  0.028347911414130077  0.6774835450928194  0.570525312173217  1.0000
  C   C7        1.0  0.5283483970231586  0.6774835450928194  0.929474687826783  1.0000
  C   C8        1.0  0.9716523991121164  0.3225166064363449  0.429474687826783  1.0000
  C   C9        1.0  0.42551657995430514  0.3260696046541725  0.9884695823337638  1.0000
  C   C10       1.0  0.07448324496291285  0.673930546874999  0.4884701974534025  1.0000
  C   C11       1.0  0.5744825898413098  0.673930546874999  0.0115298025465975  1.0000
  C   C12       1.0  0.9255166895424553  0.3260686425642092  0.5115298025465975  1.0000
  C   C13       1.0  0.5432617566864621  0.37300227702400696  0.9289216952697288  1.0000
  C   C14       1.0  0.956739039448813  0.6269978745051645  0.4289216952697288  1.0000
  C   C15       1.0  0.45673855383978434  0.6269978745051645  0.0710783047302712  1.0000
  C   C16       1.0  0.0432612710774336  0.37300227702400696  0.5710783047302712  1.0000
  C   C17       1.0  0.7458082682129686  0.4104506665800614  0.0258651657747464  1.0000
  C   C18       1.0  0.7541910111707966  0.5895485228591468  0.5258651657747464  1.0000
  C   C19       1.0  0.25419166629239953  0.5895485228591468  0.9741348342252536  1.0000
  C   C20       1.0  0.24580815862481842  0.4104516286700175  0.4741348342252536  1.0000
  C   C21       1.0  0.6359048155012701  0.3650862008430593  0.0890078120194389  1.0000
  C   C22       1.0  0.8640948399033804  0.6349139506861121  0.5890078120194389  1.0000
  C   C23       1.0  0.36409549502497646  0.6349139506861121  0.9109921879805614  1.0000
  C   C24       1.0  0.1359054706228662  0.3650862008430593  0.4109921879805611  1.0000
  C   C25       1.0  0.8955464761544363  0.1375923333668041  0.0101568555083986  1.0000
  C   C26       1.0  0.6044558367323418  0.8624087802523235  0.5101562403887527  1.0000
  C   C27       1.0  0.1044549751024348  0.8624078181623602  0.9898437596112474  1.0000
  C   C28       1.0  0.3955433330632729  0.137591371276848  0.4898437596112473  1.0000
  C   C29       1.0  0.7235093831460803  0.0818190163656212  0.9827397428799927  1.0000
  C   C30       1.0  0.7764929297407052  0.9181820972535066  0.48273974287999283  1.0000
  C   C31       1.0  0.2764935848623012  0.9181820972535066  0.0172602571200073  1.0000
  C   C32       1.0  0.22350624005491687  0.08181805427566502  0.5172602571200073  1.0000
  C   C33       1.0  0.0767031988874152  0.9676873981731475  0.2200867318693511  1.0000
  C   C34       1.0  0.4232954852991783  0.0323127533560168  0.7200867318693511  1.0000
  C   C35       1.0  0.9232948301775823  0.0323127533560168  0.7799132681306489  1.0000
  C   C36       1.0  0.5767036844964367  0.9676873981731475  0.2799132681306489  1.0000
  C   C37       1.0  0.062015662048629676  0.9011223181041856  0.3020255889770596  1.0000
  C   C38       1.0  0.4379853035992127  0.0988778334249787  0.8020255889770525  1.0000
  C   C39       1.0  0.9379846484776169  0.0988778334249787  0.6979744110229404  1.0000
  C   C40       1.0  0.5620161476576584  0.9011223181041856  0.1979744110229404  1.0000
  N   N1        1.0  0.7016312283395294  0.4146011226622904  0.9466463677185217  1.0000
  N   N2        1.0  0.798368427065121  0.5853990288668741  0.4466463677185217  1.0000
  N   N3        1.0  0.2983679414560925  0.5853990288668741  0.0533536322814783  1.0000
  N   N4        1.0  0.20163188346112557  0.4146011226622904  0.5533536322814783  1.0000
  N   N5        1.0  0.3504481668432575  0.6300640552038388  0.3115513317340231  1.0000
  N   N6        1.0  0.1495505173433358  0.3699360963253326  0.8115507166143843  1.0000
  N   N7        1.0  0.6495510029523645  0.3699360963253326  0.6884492833856157  1.0000
  N   N8        1.0  0.8504475117216544  0.6300640552038388  0.18844805314633825  1.0000
  O   O1        1.0  0.2013006986994625  0.1971466639060466  0.1055083963830938  1.0000
  O   O2        1.0  0.2986991262177554  0.8028534876231248  0.6055083963830938  1.0000
  O   O3        1.0  0.7986984710961522  0.8028534876231248  0.8944916036169062  1.0000
  O   O4        1.0  0.7013011843084913  0.1971466639060466  0.3944916036169062  1.0000
  O   O5        1.0  0.0090407882506724  0.29747629107884427  0.1820803346250841  1.0000
  O   O6        1.0  0.49095903666654556  0.7025238604503201  0.6820809497447229  1.0000
  O   O7        1.0  0.9909591462546886  0.702522898360364  0.8179190502552771  1.0000
  O   O8        1.0  0.5090401331290764  0.29747629107884427  0.3179190502552771  1.0000
  O   O9        1.0  0.9112632083363934  0.08878839602711962  0.0929378114043189  1.0000
  O   O10       1.0  0.5887368357571249  0.9112098313221324  0.5929371962846801  1.0000
  O   O11       1.0  0.08873672616897468  0.9112107934120888  0.9070621885956811  1.0000
  O   O12       1.0  0.4112630987482434  0.0887893581170758  0.4070628037153199  1.0000
  O   O13       1.0  0.03361508521049222  0.0866265798897103  0.2307793565848542  1.0000
  O   O14       1.0  0.4663847397067258  0.913373571639454  0.7307793565848542  1.0000
  O   O15       1.0  0.9663840845851298  0.913373571639454  0.7692206434151461  1.0000
  O   O16       1.0  0.5336155708195209  0.0866265798897103  0.2692206434151458  1.0000
  O   O17       1.0  0.3931728345813497  0.540629134724405  0.2762084025342944  1.0000
  O   O18       1.0  0.10683039985976708  0.4593739030746349  0.7762096327735719  1.0000
  O   O19       1.0  0.6068274759448968  0.45937101680475934  0.7237915974657056  1.0000
  O   O20       1.0  0.8931691459567335  0.5406272105444927  0.2237897521067822  1.0000
  O   O21       1.0  0.42065017073404226  0.682236269489259  0.3760866088454193  1.0000
  O   O22       1.0  0.07934965418317572  0.3177638820399125  0.8760859937257806  1.0000
  O   O23       1.0  0.5793493750824583  0.3177648441298686  0.6239133911545807  1.0000
  O   O24       1.0  0.9206506563430708  0.682236269489259  0.12391339115458068  1.0000
  O   O25       1.0  0.2372343979374918  0.6634312591546916  0.2805560681552564  1.0000
  O   O26       1.0  0.2627620174558274  0.33656600610459725  0.7805542227963329  1.0000
  O   O27       1.0  0.7627659125887548  0.33656889237447984  0.7194445469643824  1.0000
  O   O28       1.0  0.7372341188367744  0.6634322212446477  0.2194445469643824  1.0000
