data_image0
_chemical_formula_structural       Ag8H24C28S4O16
_chemical_formula_sum              "Ag8 H24 C28 S4 O16"
_cell_length_a       6.067997993756734
_cell_length_b       11.734658968725075
_cell_length_c       11.885110384181734
_cell_angle_alpha    90.00050116942602
_cell_angle_beta     90.00038239903984
_cell_angle_gamma    92.60428509007706

_space_group_name_H-M_alt    "P 1"
_space_group_IT_number       1

loop_
  _space_group_symop_operation_xyz
  'x, y, z'

loop_
  _atom_site_type_symbol
  _atom_site_label
  _atom_site_symmetry_multiplicity
  _atom_site_fract_x
  _atom_site_fract_y
  _atom_site_fract_z
  _atom_site_occupancy
  Ag  Ag1       1.0  0.119733342938396  0.642145234633752  0.3502428872214765  1.0000
  Ag  Ag2       1.0  0.38027178249837584  0.3578596462869542  0.8502408541046907  1.0000
  Ag  Ag3       1.0  0.8802623797605448  0.35784963906402834  0.6497547621606189  1.0000
  Ag  Ag4       1.0  0.619731072004761  0.6421438013760224  0.14975679532707892  1.0000
  Ag  Ag5       1.0  0.2844125966045111  0.534317782481608  0.639631701547117  1.0000
  Ag  Ag6       1.0  0.21559799704983357  0.4656852148813186  0.13963256110099562  1.0000
  Ag  Ag7       1.0  0.7155849895344912  0.4656805141945953  0.36036763063084726  1.0000
  Ag  Ag8       1.0  0.7844065062800211  0.5343182438112065  0.8603659297226827  1.0000
  H   H1        1.0  0.5594404468398579  0.19238560456031445  0.735549901214526  1.0000
  H   H2        1.0  0.9405516428471682  0.8076213983646169  0.23554946107888242  1.0000
  H   H3        1.0  0.44054910979002654  0.8076160489247999  0.2644477481856527  1.0000
  H   H4        1.0  0.059449509182847686  0.19238118528644324  0.7644481883461157  1.0000
  H   H5        1.0  0.7865245408033203  0.06788353975284171  0.6193901455113819  1.0000
  H   H6        1.0  0.71347772057522  0.9321250300482121  0.11938996096594684  1.0000
  H   H7        1.0  0.21346006939632636  0.9321180806784997  0.38061255221320794  1.0000
  H   H8        1.0  0.28652694371603354  0.06788098760694083  0.8806093712579328  1.0000
  H   H9        1.0  0.48038276041305744  0.19373254083820513  0.32081655347155197  1.0000
  H   H10       1.0  0.019626387143801993  0.806263572439967  0.8208179237111468  1.0000
  H   H11       1.0  0.5196163672210402  0.8062640608756695  0.6791794131462796  1.0000
  H   H12       1.0  0.9803761990718481  0.19373561027239122  0.17917551875727614  1.0000
  H   H13       1.0  0.7408850508530804  0.044811750841127214  0.30265920811667973  1.0000
  H   H14       1.0  0.7591337679741911  0.9551875163833474  0.802659353547597  1.0000
  H   H15       1.0  0.2591255649437868  0.9551840751126549  0.6973468551852875  1.0000
  H   H16       1.0  0.24089211637890168  0.044815232656631614  0.1973391373114097  1.0000
  H   H17       1.0  0.8153302242087788  0.9659201457636755  0.42365502738277183  1.0000
  H   H18       1.0  0.6846770524739296  0.034081000034348115  0.9236579211171262  1.0000
  H   H19       1.0  0.1846722547972348  0.03407733104201331  0.5763527186894919  1.0000
  H   H20       1.0  0.31533239729724727  0.9659224917196951  0.07633720415996241  1.0000
  H   H21       1.0  0.9687652558989368  0.0930718878475005  0.38578652427744237  1.0000
  H   H22       1.0  0.5312299798709644  0.9069288321532201  0.885782070893562  1.0000
  H   H23       1.0  0.031228979017868107  0.9069255338414524  0.6142237459465038  1.0000
  H   H24       1.0  0.4687761185671063  0.09307378453612361  0.11420716465141822  1.0000
  C   C1        1.0  0.37439659344968845  0.2645164840779444  0.47683877764797705  1.0000
  C   C2        1.0  0.12559679538480847  0.735486062028542  0.9768382368076802  1.0000
  C   C3        1.0  0.6256076952668153  0.7354835626656993  0.5231588717717415  1.0000
  C   C4        1.0  0.8743877611517945  0.26451470540880717  0.023162778135329604  1.0000
  C   C5        1.0  0.3967316972464727  0.2701854392399811  0.5958692889821934  1.0000
  C   C6        1.0  0.1032601289027255  0.7298161810018018  0.09586696872023742  1.0000
  C   C7        1.0  0.6032593472542728  0.7298136663159197  0.40412920179861095  1.0000
  C   C8        1.0  0.8967426719817269  0.27018641369816276  0.9041357290411939  1.0000
  C   C9        1.0  0.5483237749775824  0.19527628777584033  0.6438612206539673  1.0000
  C   C10       1.0  0.9516736478961219  0.8047290622842953  0.14386584390254606  1.0000
  C   C11       1.0  0.4516607279126104  0.8047236266791205  0.356140635674187  1.0000
  C   C12       1.0  0.048325909003487794  0.1952743633544501  0.8561376952455364  1.0000
  C   C13       1.0  0.6728377752669271  0.1238740123300488  0.5779299025854528  1.0000
  C   C14       1.0  0.8271639932735863  0.8761350287875234  0.077924596291858  1.0000
  C   C15       1.0  0.32715343019521  0.8761276521884798  0.4220694295955455  1.0000
  C   C16       1.0  0.17283556355394575  0.12386839680088003  0.9220680048004727  1.0000
  C   C17       1.0  0.6539873849993824  0.12203961068876625  0.4603020093001646  1.0000
  C   C18       1.0  0.8460175062413311  0.8779686742654678  0.9603001197097144  1.0000
  C   C19       1.0  0.34600839139586986  0.8779561160262476  0.5397023711969312  1.0000
  C   C20       1.0  0.15398534823962248  0.12203477338202624  0.0396941641664412  1.0000
  C   C21       1.0  0.4997731572053893  0.1915775775817181  0.4118068992579468  1.0000
  C   C22       1.0  0.0002242136037792997  0.8084226969695508  0.9117989631356949  1.0000
  C   C23       1.0  0.5002261313956495  0.8084215830986639  0.5881907501489892  1.0000
  C   C24       1.0  0.9997717236697027  0.19157558865000374  0.08819363792803613  1.0000
  C   C25       1.0  0.8018169824288534  0.0522026168437861  0.3893114683372616  1.0000
  C   C26       1.0  0.6981833535688081  0.9477998746544571  0.8893071244771918  1.0000
  C   C27       1.0  0.19818049645615327  0.9477939738947685  0.610695436333316  1.0000
  C   C28       1.0  0.3018229058473024  0.0522053010091312  0.1106854766346999  1.0000
  S   S1        1.0  0.20353394436266828  0.3578643293144452  0.40415717468007994  1.0000
  S   S2        1.0  0.2964532717470546  0.642133249713531  0.9041505546310804  1.0000
  S   S3        1.0  0.7964655052995792  0.6421373903982684  0.5958564611273263  1.0000
  S   S4        1.0  0.7035559098918964  0.35786597719831564  0.09586392257197933  1.0000
  O   O1        1.0  0.3066241754889774  0.4748555707676659  0.4212540439998593  1.0000
  O   O2        1.0  0.19337326620572526  0.5251439377745797  0.9212494131746214  1.0000
  O   O3        1.0  0.6933818157172735  0.5251453399995186  0.5787461295933413  1.0000
  O   O4        1.0  0.8066194270995551  0.47485517879537303  0.0787465534424783  1.0000
  O   O5        1.0  0.9794064156926581  0.34748128261896494  0.4542842667551313  1.0000
  O   O6        1.0  0.5205889181780491  0.6525072731612981  0.9542893663810619  1.0000
  O   O7        1.0  0.020596277793629294  0.6525196060426596  0.5457041273874028  1.0000
  O   O8        1.0  0.4794119655977551  0.34749104556237137  0.04570912441401732  1.0000
  O   O9        1.0  0.20494102429518077  0.32432997910485284  0.28534366446744747  1.0000
  O   O10       1.0  0.29507808513817924  0.6756744036379844  0.7853406934382791  1.0000
  O   O11       1.0  0.7950611864067054  0.6756632327385931  0.7146573504747664  1.0000
  O   O12       1.0  0.7049363111519538  0.3243291212317914  0.21466284573686784  1.0000
  O   O13       1.0  0.28407158883948813  0.3387143302345806  0.6612570787406684  1.0000
  O   O14       1.0  0.21592269432152722  0.6612870499592846  0.16125709770390276  1.0000
  O   O15       1.0  0.7159377536721436  0.6612874555779342  0.3387447776401232  1.0000
  O   O16       1.0  0.7840667550432698  0.33871289758043593  0.8387464414110755  1.0000
