data_image0
_chemical_formula_structural       Cu4H24C18N16O6
_chemical_formula_sum              "Cu4 H24 C18 N16 O6"
_cell_length_a       8.019305378466957
_cell_length_b       8.807872504215968
_cell_length_c       10.681373144308353
_cell_angle_alpha    74.46301809984313
_cell_angle_beta     76.57263438819837
_cell_angle_gamma    75.03475257015356

_space_group_name_H-M_alt    "P 1"
_space_group_IT_number       1

loop_
  _space_group_symop_operation_xyz
  'x, y, z'

loop_
  _atom_site_type_symbol
  _atom_site_label
  _atom_site_symmetry_multiplicity
  _atom_site_fract_x
  _atom_site_fract_y
  _atom_site_fract_z
  _atom_site_occupancy
  Cu  Cu1       1.0  0.077612844441596  0.024342448090607104  0.8391460453002111  1.0000
  Cu  Cu2       1.0  0.9223879823161952  0.9756585992556096  0.16085123434608317  1.0000
  Cu  Cu3       1.0  0.4893764701738519  0.8747126283050477  0.6636316190578028  1.0000
  Cu  Cu4       1.0  0.5106215180036812  0.12528959254741076  0.3363668456945135  1.0000
  H   H1        1.0  0.3931844667007525  0.3374916706228177  0.895227598149404  1.0000
  H   H2        1.0  0.6068079715186698  0.6624959400647511  0.10478052738769617  1.0000
  H   H3        1.0  0.5879613150240816  0.29560373962885234  0.7754323954345637  1.0000
  H   H4        1.0  0.41203811817394603  0.7043923255739275  0.2245746024193664  1.0000
  H   H5        1.0  0.5628305138761648  0.17031571195669673  0.93685152504316  1.0000
  H   H6        1.0  0.43716536489408503  0.829679109350906  0.06315729152035487  1.0000
  H   H7        1.0  0.8203786788477104  0.9711088579218411  0.7580949079289638  1.0000
  H   H8        1.0  0.1796244099432798  0.0288825335647971  0.24190494447922364  1.0000
  H   H9        1.0  0.8252149707894034  0.880489257620404  0.9155054274793527  1.0000
  H   H10       1.0  0.174784268637552  0.11950214402063614  0.08449322241801129  1.0000
  H   H11       1.0  0.5733412704856775  0.6177406012151323  0.5810063940359101  1.0000
  H   H12       1.0  0.4266619781783518  0.382255584802664  0.4189942943283781  1.0000
  H   H13       1.0  0.4481639385376752  0.7612394288510984  0.482084329695475  1.0000
  H   H14       1.0  0.5518360252113083  0.23875435744900392  0.5179155645984466  1.0000
  H   H15       1.0  0.9221666433923019  0.7038493474955487  0.7386634583906471  1.0000
  H   H16       1.0  0.07783388904292113  0.29614201256127604  0.26133778334379093  1.0000
  H   H17       1.0  0.042691662073210096  0.6648612219089785  0.8686827786842172  1.0000
  H   H18       1.0  0.9573080194512827  0.3351337693271788  0.13131691138947593  1.0000
  H   H19       1.0  0.12375389321520198  0.8673096805389664  0.5885712006303905  1.0000
  H   H20       1.0  0.8762461928852334  0.13267810629392326  0.41142806192765846  1.0000
  H   H21       1.0  0.2601462897496917  0.5743968656104315  0.6060150431557361  1.0000
  H   H22       1.0  0.7398569334908133  0.4255994186344338  0.39398001120819964  1.0000
  H   H23       1.0  0.3377106950520457  0.5729806773108095  0.7510196334797641  1.0000
  H   H24       1.0  0.6622932277006583  0.42700714848120214  0.24897801458892843  1.0000
  C   C1        1.0  0.002420069821667406  0.7536235803414755  0.781484556413929  1.0000
  C   C2        1.0  0.9975770595843158  0.24637136309369367  0.21851746198607466  1.0000
  C   C3        1.0  0.16342389012140757  0.7937954362241585  0.6830546453561084  1.0000
  C   C4        1.0  0.8365740859580555  0.2061958924028532  0.31694798570457994  1.0000
  C   C5        1.0  0.3035038461173585  0.6472620052688146  0.6565152993868961  1.0000
  C   C6        1.0  0.6964976801526249  0.35273058362455595  0.3434845739641545  1.0000
  C   C7        1.0  0.40968089052410755  0.1364920471858468  0.8120204485841144  1.0000
  C   C8        1.0  0.5903233525883778  0.8634944263295099  0.18798585470533885  1.0000
  C   C9        1.0  0.49317070969701865  0.24306197054889364  0.8561260436074888  1.0000
  C   C10       1.0  0.5068298523989869  0.7569292749096802  0.14388177112736145  1.0000
  C   C11       1.0  0.670981364006437  0.5767422757379137  0.884461133965118  1.0000
  C   C12       1.0  0.3290266890226121  0.4232826836836381  0.1155448336465597  1.0000
  C   C13       1.0  0.8412375942964233  0.3171657128493094  0.9274735304377373  1.0000
  C   C14       1.0  0.15878749746128315  0.6828740554703926  0.07251323792080204  1.0000
  C   C15       1.0  0.161101582935153  0.18136937399380323  0.515883226940062  1.0000
  C   C16       1.0  0.8388881335908208  0.8186353097819322  0.48411054635003126  1.0000
  C   C17       1.0  0.9134281199561939  0.3514832779787014  0.6000811679188017  1.0000
  C   C18       1.0  0.08655906140028687  0.6485212925113332  0.39991868969783434  1.0000
  N   N1        1.0  0.901439449786146  0.9037334735345439  0.8235248053773676  1.0000
  N   N2        1.0  0.0985622363568837  0.09626390988999131  0.17647590392978432  1.0000
  N   N3        1.0  0.4606532650328888  0.7071140059258527  0.578509456525289  1.0000
  N   N4        1.0  0.5393466987160949  0.2928797803742569  0.4214904377686395  1.0000
  N   N5        1.0  0.5741187003946067  0.6943013267321874  0.8405068617765963  1.0000
  N   N6        1.0  0.4258719384617251  0.30571038889317503  0.1594974428666944  1.0000
  N   N7        1.0  0.7820953530318562  0.46110556053184143  0.9438689638312211  1.0000
  N   N8        1.0  0.21792668209359795  0.5389253993235101  0.05613985372254859  1.0000
  N   N9        1.0  0.9034142545041706  0.17958845689631178  0.9277866181885627  1.0000
  N   N10       1.0  0.09660365151372469  0.8204600596532218  0.0721799022795366  1.0000
  N   N11       1.0  0.2734063954962594  0.12128264666623077  0.43952313973005624  1.0000
  N   N12       1.0  0.7265851700124697  0.878719618395543  0.5604717558374618  1.0000
  N   N13       1.0  0.04194120420727639  0.22608513440385286  0.610158918937266  1.0000
  N   N14       1.0  0.9580460656026374  0.7739135675883944  0.38983279494303263  1.0000
  N   N15       1.0  0.7903317513901982  0.4590089211833331  0.6039954353927186  1.0000
  N   N16       1.0  0.20965626392800366  0.540992083612089  0.39600221788442974  1.0000
  O   O1        1.0  0.24205263566803845  0.8851515181634184  0.7369428960834127  1.0000
  O   O2        1.0  0.7579444767889287  0.1148434907564635  0.2630553663163583  1.0000
  O   O3        1.0  0.49281233033257615  0.0812019289955259  0.7106335305852838  1.0000
  O   O4        1.0  0.5071859612557148  0.9187990050649972  0.28936983338756045  1.0000
  O   O5        1.0  0.26380989814337846  0.10757084539024933  0.8814256419837676  1.0000
  O   O6        1.0  0.7361916160285419  0.8924108512776739  0.1185783976756625  1.0000
