data_image0
_chemical_formula_structural       Cd4H32C28N16O12
_chemical_formula_sum              "Cd4 H32 C28 N16 O12"
_cell_length_a       6.512962557011383
_cell_length_b       7.100995803186498
_cell_length_c       20.076161356654026
_cell_angle_alpha    89.9996254021269
_cell_angle_beta     90.00088750097578
_cell_angle_gamma    97.43791334609188

_space_group_name_H-M_alt    "P 1"
_space_group_IT_number       1

loop_
  _space_group_symop_operation_xyz
  'x, y, z'

loop_
  _atom_site_type_symbol
  _atom_site_label
  _atom_site_symmetry_multiplicity
  _atom_site_fract_x
  _atom_site_fract_y
  _atom_site_fract_z
  _atom_site_occupancy
  Cd  Cd1       1.0  0.7808758363286897  0.29810246916732547  0.0284995919994415  1.0000
  Cd  Cd2       1.0  0.28084436132942864  0.7981101364352768  0.4714992743603261  1.0000
  Cd  Cd3       1.0  0.219152829280425  0.7018881589087088  0.9714986995397084  1.0000
  Cd  Cd4       1.0  0.7191191087857547  0.2018974345541622  0.5285000132017431  1.0000
  H   H1        1.0  0.9445855060423156  0.9558338712428451  0.0778856707312201  1.0000
  H   H2        1.0  0.4445671088798235  0.4558465637358324  0.42211464701460244  1.0000
  H   H3        1.0  0.05543989011992069  0.044155332112445905  0.9221121226981879  1.0000
  H   H4        1.0  0.5554125104106973  0.5441667106720018  0.577884640581388  1.0000
  H   H5        1.0  0.4753783089460555  0.4848070097512221  0.1980125866965921  1.0000
  H   H6        1.0  0.975363504855004  0.9848098196630419  0.3019833353708137  1.0000
  H   H7        1.0  0.5246282094458293  0.5152119839297599  0.8019827161347877  1.0000
  H   H8        1.0  0.0246250339554024  0.015179329463102  0.698007982624631  1.0000
  H   H9        1.0  0.12659802269620002  0.4414846796457682  0.1829067819309742  1.0000
  H   H10       1.0  0.6265816815753595  0.9415043302069253  0.31709197194050637  1.0000
  H   H11       1.0  0.8734133058180333  0.5584917237778768  0.8170954944067078  1.0000
  H   H12       1.0  0.37340759642059146  0.05852315749221051  0.6829117985919028  1.0000
  H   H13       1.0  0.9319295464045182  0.6128458008668788  0.10183434139279508  1.0000
  H   H14       1.0  0.4319134680581271  0.112850288033826  0.3981657150100162  1.0000
  H   H15       1.0  0.06808871696140528  0.3871362924138637  0.8981669387492986  1.0000
  H   H16       1.0  0.5680576806524726  0.8871572942588418  0.6018340706745137  1.0000
  H   H17       1.0  0.6733995593285584  0.6005392756547823  0.1058822891317348  1.0000
  H   H18       1.0  0.17337427862609897  0.10054522172180212  0.394114504866387  1.0000
  H   H19       1.0  0.3266270248333214  0.3994584489119931  0.8941150061875548  1.0000
  H   H20       1.0  0.8265905291353802  0.8994609313468304  0.6058817940815544  1.0000
  H   H21       1.0  0.1343039868432498  0.3593832835285582  0.3027500260825491  1.0000
  H   H22       1.0  0.6343083482351731  0.8593832207789732  0.19725294251554001  1.0000
  H   H23       1.0  0.865683958259126  0.6406016049098825  0.6972542425992856  1.0000
  H   H24       1.0  0.3657033232435083  0.14062868087598454  0.8027523224008206  1.0000
  H   H25       1.0  0.4832167310361087  0.40546185536869234  0.3175908370760965  1.0000
  H   H26       1.0  0.9832232355811145  0.9054492091698308  0.1824068034478046  1.0000
  H   H27       1.0  0.5167769559710679  0.5945642189515112  0.6824069562307571  1.0000
  H   H28       1.0  0.016783683601509797  0.09452860772275067  0.8175875032261289  1.0000
  H   H29       1.0  0.6954957162313136  0.9310644927369368  0.0828576381014088  1.0000
  H   H30       1.0  0.1954737729863041  0.4310644653031445  0.4171464671453434  1.0000
  H   H31       1.0  0.3045298780700776  0.06892613078115771  0.9171461325651151  1.0000
  H   H32       1.0  0.8045023306376109  0.5689346048103375  0.5828558090774862  1.0000
  C   C1        1.0  0.8092934312496709  0.3750688843012853  0.3188464133381572  1.0000
  C   C2        1.0  0.3093134160496618  0.8750605155853678  0.1811618807085864  1.0000
  C   C3        1.0  0.19070630209738232  0.62493448034531  0.68115436862945  1.0000
  C   C4        1.0  0.6906882008343233  0.12493433234338623  0.8188438823055578  1.0000
  C   C5        1.0  0.8012201893451235  0.4723685572124693  0.1831564957107403  1.0000
  C   C6        1.0  0.30116318011202736  0.972378193430572  0.3168445576269292  1.0000
  C   C7        1.0  0.1988088723821164  0.5276249112341774  0.8168467768579929  1.0000
  C   C8        1.0  0.6988077706081697  0.0276279686574981  0.6831557261619494  1.0000
  C   C9        1.0  0.6191794235481396  0.4562356092503493  0.2212061599156314  1.0000
  C   C10       1.0  0.11921375097789881  0.956241613859831  0.2788004921481217  1.0000
  C   C11       1.0  0.3808270466716337  0.5437720250455345  0.7787946220639271  1.0000
  C   C12       1.0  0.880774440264098  0.04375605417472881  0.7211968030748039  1.0000
  C   C13       1.0  0.9860671448897875  0.4330250611351333  0.2128329975642487  1.0000
  C   C14       1.0  0.4860955160716074  0.9330295284518685  0.2871700722849654  1.0000
  C   C15       1.0  0.013918916709975804  0.5669683440114994  0.7871677843806213  1.0000
  C   C16       1.0  0.5139040676173465  0.06698377533022891  0.7128327020834604  1.0000
  C   C17       1.0  0.9896360268346384  0.38613593969648  0.2798139931720769  1.0000
  C   C18       1.0  0.489618470063462  0.8861312690920046  0.220182230204685  1.0000
  C   C19       1.0  0.010357911419603709  0.6138588969386876  0.7201897774100418  1.0000
  C   C20       1.0  0.510380123581932  0.11387493369284134  0.7798190498599527  1.0000
  C   C21       1.0  0.6241537098319582  0.4104844848497963  0.28822302115828086  1.0000
  C   C22       1.0  0.1241453285238165  0.9104714174522998  0.21176483438650712  1.0000
  C   C23       1.0  0.37584146452537937  0.589530232401245  0.7117717835463964  1.0000
  C   C24       1.0  0.8758625806337079  0.08951350045682462  0.7882279779720776  1.0000
  C   C25       1.0  0.8135272377686747  0.32128563229559154  0.3900697635032984  1.0000
  C   C26       1.0  0.31351363169034135  0.8212809780671364  0.1099297110626267  1.0000
  C   C27       1.0  0.18645119362519577  0.6787191208718326  0.6099345051315197  1.0000
  C   C28       1.0  0.6864994787375309  0.17870820719784314  0.8900680823359508  1.0000
  N   N1        1.0  0.6987931632586993  0.6864359836716505  0.9491325984438959  1.0000
  N   N2        1.0  0.19877608943345143  0.186442135524679  0.5508635575291122  1.0000
  N   N3        1.0  0.3012253463498382  0.3135588891762779  0.05086619116799801  1.0000
  N   N4        1.0  0.8012021438441438  0.8135611974735045  0.4491357300749712  1.0000
  N   N5        1.0  0.8389132137733243  0.6095794100195636  0.9690805782364155  1.0000
  N   N6        1.0  0.3388795185999315  0.10959431565900254  0.5309169585303835  1.0000
  N   N7        1.0  0.1611194650264096  0.3904069642233453  0.0309197057305255  1.0000
  N   N8        1.0  0.6610828118135927  0.8904160934686871  0.4690828271287089  1.0000
  N   N9        1.0  0.7981213356405449  0.5296663104295902  0.1160768647371384  1.0000
  N   N10       1.0  0.298118177938548  0.029658222258468907  0.3839172340776003  1.0000
  N   N11       1.0  0.201902771058954  0.4703356702283942  0.8839189362614094  1.0000
  N   N12       1.0  0.701862532698442  0.9703408546774458  0.6160790649185233  1.0000
  N   N13       1.0  0.5609507656114445  0.7614912091826513  0.9286471731271746  1.0000
  N   N14       1.0  0.0609105059126946  0.2615112601831626  0.5713530966948426  1.0000
  N   N15       1.0  0.4390759683229604  0.23849657621647688  0.0713531108231962  1.0000
  N   N16       1.0  0.9390520225713319  0.7385005691266147  0.42864967758223577  1.0000
  O   O1        1.0  0.8228342300416784  0.0252842000761007  0.0841037720404145  1.0000
  O   O2        1.0  0.32281862899694147  0.5252926121206798  0.41589843071036364  1.0000
  O   O3        1.0  0.1772057796591966  0.9747107044138021  0.9158975081413844  1.0000
  O   O4        1.0  0.6771719383473211  0.47472209830792184  0.58410235122102  1.0000
  O   O5        1.0  0.9753888218950523  0.2703431469074573  0.41644927611861965  1.0000
  O   O6        1.0  0.47541948132321477  0.7703346403813996  0.08355063208785651  1.0000
  O   O7        1.0  0.024586538019455876  0.7296616017502444  0.5835530000957334  1.0000
  O   O8        1.0  0.5246145835466579  0.2296616752550875  0.9164521423869446  1.0000
  O   O9        1.0  0.6457348498104524  0.31995352626257295  0.42499086013465626  1.0000
  O   O10       1.0  0.14575664623373544  0.8199394378597805  0.07501026531482323  1.0000
  O   O11       1.0  0.3542472468852367  0.6800554920701387  0.575007431266137  1.0000
  O   O12       1.0  0.8542708313986296  0.18004266899833962  0.9249895205408337  1.0000
