data_image0
_chemical_formula_structural       Zn4H28C32N20O8
_chemical_formula_sum              "Zn4 H28 C32 N20 O8"
_cell_length_a       7.899144992629553
_cell_length_b       10.059924111283198
_cell_length_c       19.096083807003367
_cell_angle_alpha    90.00001921070142
_cell_angle_beta     90.00006261242159
_cell_angle_gamma    95.72731087773319

_space_group_name_H-M_alt    "P 1"
_space_group_IT_number       1

loop_
  _space_group_symop_operation_xyz
  'x, y, z'

loop_
  _atom_site_type_symbol
  _atom_site_label
  _atom_site_symmetry_multiplicity
  _atom_site_fract_x
  _atom_site_fract_y
  _atom_site_fract_z
  _atom_site_occupancy
  Zn  Zn1       1.0  0.8045909868785301  0.40756527117903824  0.34022075939969193  1.0000
  Zn  Zn2       1.0  0.1954077684770255  0.09243405452813393  0.8402199715542905  1.0000
  Zn  Zn3       1.0  0.19540921515968523  0.5924339728567815  0.6597793536601201  1.0000
  Zn  Zn4       1.0  0.8045911686511787  0.9075651974578349  0.15977961783765685  1.0000
  H   H1        1.0  0.4347155745054749  0.4284164553150661  0.3185382219950127  1.0000
  H   H2        1.0  0.565283120847873  0.0715828518125221  0.8185370729685387  1.0000
  H   H3        1.0  0.5652847645731213  0.5715837877196747  0.6814624147325004  1.0000
  H   H4        1.0  0.4347170811896177  0.9284163922230774  0.18146251642368574  1.0000
  H   H5        1.0  0.7224074015408847  0.3232947555187238  0.4882013367135087  1.0000
  H   H6        1.0  0.27759316526775285  0.17670568803903558  0.9882006005867577  1.0000
  H   H7        1.0  0.2775918096688131  0.6767064944653  0.5117998236814144  1.0000
  H   H8        1.0  0.7224071738093941  0.8232945549952575  0.011798988805587399  1.0000
  H   H9        1.0  0.1784751731901721  0.327970381095163  0.5129706915035398  1.0000
  H   H10       1.0  0.8215253434301458  0.1720296472944938  0.012969874583660598  1.0000
  H   H11       1.0  0.8215237639387639  0.6720288708910188  0.48702942155598805  1.0000
  H   H12       1.0  0.1784763975952116  0.8279715867878961  0.9870291911415092  1.0000
  H   H13       1.0  0.4605850631725587  0.2897863486925232  0.565125424170226  1.0000
  H   H14       1.0  0.5394155977744788  0.21021372438766409  0.06512448723261598  1.0000
  H   H15       1.0  0.5394140109960331  0.7102139022923594  0.4348746888894226  1.0000
  H   H16       1.0  0.46058474130194327  0.7897865186464015  0.934874578492156  1.0000
  H   H17       1.0  0.9602662785105665  0.6456582457749606  0.13744573117074307  1.0000
  H   H18       1.0  0.03973151367825516  0.8543409213030413  0.6374459667314623  1.0000
  H   H19       1.0  0.03973406056730509  0.354341997259553  0.8625543818891827  1.0000
  H   H20       1.0  0.9602662955817819  0.1456593376324307  0.3625546699954753  1.0000
  H   H21       1.0  0.8647117968352873  0.48421153245395493  0.1629514486960417  1.0000
  H   H22       1.0  0.13528786991632558  0.015788632402674807  0.6629516677176781  1.0000
  H   H23       1.0  0.1352886792815156  0.5157897095790317  0.8370481406964243  1.0000
  H   H24       1.0  0.8647112042529911  0.984211618582428  0.337048969009544  1.0000
  H   H25       1.0  0.0539694416174186  0.5524604891653127  0.2049975899517236  1.0000
  H   H26       1.0  0.9460299394552861  0.9475397268451075  0.7049977253247874  1.0000
  H   H27       1.0  0.9460296325511733  0.4475397618195701  0.795002523107918  1.0000
  H   H28       1.0  0.0539692717536866  0.052461523138688904  0.2950029114025554  1.0000
  C   C1        1.0  0.4373347474194205  0.3970454060943495  0.3731687928056572  1.0000
  C   C2        1.0  0.5626655010618223  0.10295493889387329  0.8731681717806264  1.0000
  C   C3        1.0  0.5626657286988319  0.6029558359390847  0.6268318439219698  1.0000
  C   C4        1.0  0.43733723079350273  0.8970442892407675  0.12683089394459296  1.0000
  C   C5        1.0  0.12338864173626969  0.4043849091552118  0.37555926544155926  1.0000
  C   C6        1.0  0.8766099373298601  0.09561244883504827  0.8755572131492855  1.0000
  C   C7        1.0  0.87661015835301  0.5956133438322835  0.6244408476178476  1.0000
  C   C8        1.0  0.12339026470690577  0.904386795200331  0.12444185257536584  1.0000
  C   C9        1.0  0.5957836285196834  0.3372787722575907  0.46848627243943497  1.0000
  C   C10       1.0  0.4042168837326017  0.16272165440688718  0.9684861144037807  1.0000
  C   C11       1.0  0.40421684759784426  0.6627224697756162  0.5315138406206115  1.0000
  C   C12       1.0  0.5957859851638287  0.8372785727268949  0.031513998656713185  1.0000
  C   C13       1.0  0.8312471636792155  0.6396691675003581  0.23528827603370664  1.0000
  C   C14       1.0  0.1687523012158749  0.8603310744655134  0.735288046934883  1.0000
  C   C15       1.0  0.1687506455808219  0.360331091435114  0.7647123606932309  1.0000
  C   C16       1.0  0.8312480378627214  0.1396691685692204  0.26471258979263  1.0000
  C   C17       1.0  0.29428820514878856  0.3400836472623467  0.48160303052038234  1.0000
  C   C18       1.0  0.7057110784921791  0.15991679859209276  0.9816030074241763  1.0000
  C   C19       1.0  0.705709604109799  0.6599166116726707  0.5183965588714015  1.0000
  C   C20       1.0  0.2942905254942474  0.840083436491831  0.0183965819684531  1.0000
  C   C21       1.0  0.28629046245437456  0.3800702944765603  0.4115986264365076  1.0000
  C   C22       1.0  0.7137097553335181  0.11992908444292281  0.9115980762422634  1.0000
  C   C23       1.0  0.7137097395838339  0.6199289495592596  0.5884014866232972  1.0000
  C   C24       1.0  0.28629058374290384  0.880071158591143  0.08840098948250837  1.0000
  C   C25       1.0  0.4513889683884712  0.31789919781223114  0.5103016182591418  1.0000
  C   C26       1.0  0.5486115408448667  0.1821008282900678  0.0103001568471299  1.0000
  C   C27       1.0  0.548612498560466  0.6821000382736742  0.4896995421361153  1.0000
  C   C28       1.0  0.45138767036120697  0.8179004216928333  0.989698385209898  1.0000
  C   C29       1.0  0.9340607434870589  0.5775345349571309  0.18174171258296204  1.0000
  C   C30       1.0  0.06593717128057355  0.9224646700771896  0.6817414482128326  1.0000
  C   C31       1.0  0.06593833068153289  0.42246571602775157  0.8182584004766793  1.0000
  C   C32       1.0  0.9340606379787387  0.07753558885805488  0.31825866484653176  1.0000
  N   N1        1.0  0.5886959638217348  0.3764058199833825  0.4010321296004306  1.0000
  N   N2        1.0  0.41130436176442237  0.12359454888024146  0.901030920541167  1.0000
  N   N3        1.0  0.4113043752575862  0.6235944230515784  0.5989690307946559  1.0000
  N   N4        1.0  0.5886959773127244  0.8764056941540443  0.09896866885117817  1.0000
  N   N5        1.0  0.7749797846754093  0.7609928901634573  0.23116858119648495  1.0000
  N   N6        1.0  0.22501966882005317  0.7390073482725441  0.7311688797315836  1.0000
  N   N7        1.0  0.2250192894924581  0.2390073608211978  0.7688310081955761  1.0000
  N   N8        1.0  0.7749781404392593  0.26099291066270774  0.26883123332777353  1.0000
  N   N9        1.0  0.7768781765496157  0.5843457133703394  0.2963735585357909  1.0000
  N   N10       1.0  0.22312132034610238  0.9156535819398783  0.7963733635764496  1.0000
  N   N11       1.0  0.22312216252825579  0.4156545296641737  0.7036265545241349  1.0000
  N   N12       1.0  0.7768776167828335  0.08434567004630371  0.20362674948307805  1.0000
  N   N13       1.0  0.6865273646232665  0.6738001690333772  0.3294709081750256  1.0000
  N   N14       1.0  0.3134734887722103  0.8261991466873086  0.8294712617577388  1.0000
  N   N15       1.0  0.3134728374149418  0.32619907500244233  0.6705292048847794  1.0000
  N   N16       1.0  0.6865268503056613  0.173801096347205  0.1705288513021941  1.0000
  N   N17       1.0  0.685218081694245  0.7795625770137206  0.29050585985558536  1.0000
  N   N18       1.0  0.31478153600428266  0.7204377122674828  0.7905061954503195  1.0000
  N   N19       1.0  0.31478099247434693  0.22043767397116196  0.7094942532040632  1.0000
  N   N20       1.0  0.6852175381650341  0.27956253871762016  0.2094944412769024  1.0000
  O   O1        1.0  0.1265407454196108  0.44267470702964573  0.313190460700973  1.0000
  O   O2        1.0  0.8734562591090763  0.057321606470551976  0.8131910186050744  1.0000
  O   O3        1.0  0.8734565156803455  0.5573215559106047  0.686809128690335  1.0000
  O   O4        1.0  0.1265440799673456  0.9426786365635138  0.18680804711969048  1.0000
  O   O5        1.0  0.984059290731267  0.38064489648724725  0.41174907580210623  1.0000
  O   O6        1.0  0.015941064513640395  0.119355481560163  0.9117492594030236  1.0000
  O   O7        1.0  0.015941048346604685  0.6193553465472659  0.5882510372578266  1.0000
  O   O8        1.0  0.9840590004849189  0.8806427634769629  0.08825085365666747  1.0000
