data_image0
_chemical_formula_structural       Cu8H112C128N16O40
_chemical_formula_sum              "Cu8 H112 C128 N16 O40"
_cell_length_a       8.539877488058828
_cell_length_b       8.555359318013457
_cell_length_c       52.738553069390036
_cell_angle_alpha    90.00016655589445
_cell_angle_beta     90.00040875145079
_cell_angle_gamma    89.99988422327856

_space_group_name_H-M_alt    "P 1"
_space_group_IT_number       1

loop_
  _space_group_symop_operation_xyz
  'x, y, z'

loop_
  _atom_site_type_symbol
  _atom_site_label
  _atom_site_symmetry_multiplicity
  _atom_site_fract_x
  _atom_site_fract_y
  _atom_site_fract_z
  _atom_site_occupancy
  Cu  Cu1       1.0  0.1057971893274114  0.5874165288831107  0.26673049854414904  1.0000
  Cu  Cu2       1.0  0.8374943946371187  0.8145294429307484  0.5139897499073953  1.0000
  Cu  Cu3       1.0  0.8942044162702629  0.9125812952252161  0.7667303386580572  1.0000
  Cu  Cu4       1.0  0.16250545808844657  0.6854849047535652  0.013990590608273103  1.0000
  Cu  Cu5       1.0  0.6057991191774548  0.4125814558138216  0.23326964633798045  1.0000
  Cu  Cu6       1.0  0.33749355902145345  0.1854933722570564  0.9860092774851881  1.0000
  Cu  Cu7       1.0  0.39420202632619805  0.0874168595726061  0.7332697023965764  1.0000
  Cu  Cu8       1.0  0.6625046553718975  0.3144919261032441  0.4860073444857065  1.0000
  H   H1        1.0  0.18458275318959486  0.10009641158455199  0.2925493017996743  1.0000
  H   H2        1.0  0.3883091825194924  0.08342004293553627  0.2851157646376238  1.0000
  H   H3        1.0  0.1145479815467141  0.08071874868908678  0.2471092538966887  1.0000
  H   H4        1.0  0.4411062471881166  0.1035133820164518  0.23528413320066485  1.0000
  H   H5        1.0  0.3466484429344802  0.7464278400500248  0.5412323285487306  1.0000
  H   H6        1.0  0.3374024795127255  0.5409834710679887  0.5350009697991283  1.0000
  H   H7        1.0  0.3297372947350397  0.8051333388970646  0.49531791408759324  1.0000
  H   H8        1.0  0.3551195277576796  0.4754124234391455  0.4863242403865869  1.0000
  H   H9        1.0  0.2219135977603983  0.40788372989020866  0.31117656629361085  1.0000
  H   H10       1.0  0.1954821531380162  0.4267881181516628  0.3583585476861516  1.0000
  H   H11       1.0  0.8372869844523264  0.776729411960403  0.345879895506748  1.0000
  H   H12       1.0  0.8826695552758537  0.7457565550716081  0.2997182384195014  1.0000
  H   H13       1.0  0.08017673664890879  0.5434113663015481  0.394964935710334  1.0000
  H   H14       1.0  0.8283146489466587  0.7947173335269467  0.38584970559812604  1.0000
  H   H15       1.0  0.068163388492394  0.5621064562239013  0.4356300609730895  1.0000
  H   H16       1.0  0.028404992447669  0.6042208550319188  0.4810459696993733  1.0000
  H   H17       1.0  0.6834559259556485  0.9396951786087513  0.4683803617575465  1.0000
  H   H18       1.0  0.7077175763686866  0.9098876914452204  0.42188516063747983  1.0000
  H   H19       1.0  0.9754036892225032  0.4313154393316977  0.22214081441322264  1.0000
  H   H20       1.0  0.002348891492673  0.4437655154696785  0.17607869509983942  1.0000
  H   H21       1.0  0.3502026962769023  0.8083659615615345  0.18687393167139285  1.0000
  H   H22       1.0  0.31085305664566926  0.7790830133918902  0.23288881629353853  1.0000
  H   H23       1.0  0.2913895205404273  0.7362576258105591  0.14461921356776491  1.0000
  H   H24       1.0  0.03156384332974229  0.4919442876360235  0.1362975788956788  1.0000
  H   H25       1.0  0.32983881503595563  0.7746214915519899  0.10521145154397261  1.0000
  H   H26       1.0  0.3453344693838147  0.7994476011513214  0.058395809587878524  1.0000
  H   H27       1.0  0.9970781017947201  0.4697038273475798  0.047346506952678204  1.0000
  H   H28       1.0  0.9679909299506659  0.42692407054836673  0.09389876211398021  1.0000
  H   H29       1.0  0.8154280265172459  0.39990296298482503  0.7925499928652615  1.0000
  H   H30       1.0  0.6116989281451239  0.4165756922374797  0.7851158487107457  1.0000
  H   H31       1.0  0.8854572858446658  0.4192786451192916  0.7471096559021293  1.0000
  H   H32       1.0  0.5588961579541731  0.39648146279697016  0.7352850947707527  1.0000
  H   H33       1.0  0.6533526084761193  0.7535823189600778  0.04123301075378551  1.0000
  H   H34       1.0  0.6625924428313609  0.9590242388919846  0.0350015702423292  1.0000
  H   H35       1.0  0.6702638300346705  0.6948744138325439  0.9953194779693463  1.0000
  H   H36       1.0  0.6448798714784799  0.0245939200028502  0.9863236086157983  1.0000
  H   H37       1.0  0.7780804368786959  0.09211480865469208  0.8111763101468485  1.0000
  H   H38       1.0  0.8045139575260548  0.0732159388551636  0.8583585027888321  1.0000
  H   H39       1.0  0.1627169327816773  0.7232768395125361  0.8458805065176664  1.0000
  H   H40       1.0  0.11733467277429095  0.7542430273062664  0.7997182427399778  1.0000
  H   H41       1.0  0.9198223144736204  0.9565899179133338  0.8949648262700834  1.0000
  H   H42       1.0  0.17168165915169448  0.7052837878245057  0.8858497496306514  1.0000
  H   H43       1.0  0.93183510996311  0.9378897102911233  0.9356299565854019  1.0000
  H   H44       1.0  0.9715908204176598  0.8957761229607256  0.9810458913808947  1.0000
  H   H45       1.0  0.3165440135362942  0.5603004042210243  0.9683806943963162  1.0000
  H   H46       1.0  0.2922756334038112  0.5901117360640595  0.9218854793071858  1.0000
  H   H47       1.0  0.0246051634620343  0.06867917063173927  0.7221413821716427  1.0000
  H   H48       1.0  0.997653250515576  0.056232946906263195  0.6760786759555871  1.0000
  H   H49       1.0  0.6497953955853292  0.69163394227148  0.6868731949733657  1.0000
  H   H50       1.0  0.6891494018507414  0.7209153748999457  0.7328883285764861  1.0000
  H   H51       1.0  0.7086137379742538  0.7637380164559104  0.6446189582320516  1.0000
  H   H52       1.0  0.968434206345705  0.0080593082442277  0.6362980720160254  1.0000
  H   H53       1.0  0.6701568545966693  0.725379290874578  0.6052096166707487  1.0000
  H   H54       1.0  0.6546591403350702  0.7005593579403353  0.5583939450501205  1.0000
  H   H55       1.0  0.002914863028912899  0.030297010336902002  0.5473472210921956  1.0000
  H   H56       1.0  0.0320099380604475  0.0730764300423701  0.5938987716764289  1.0000
  H   H57       1.0  0.6845767056147879  0.899899076503047  0.20745169266592  1.0000
  H   H58       1.0  0.8883022573037636  0.9165680210964735  0.21488565508803256  1.0000
  H   H59       1.0  0.6145438941258305  0.9192733740806956  0.2528916595609303  1.0000
  H   H60       1.0  0.9411074101225906  0.8964780820827157  0.26471639952711  1.0000
  H   H61       1.0  0.8466500778755871  0.2535750860878991  0.9587668990435534  1.0000
  H   H62       1.0  0.8374051437297607  0.45901246057324835  0.964998626326626  1.0000
  H   H63       1.0  0.8297389751716365  0.19486770067811676  0.004680783292265301  1.0000
  H   H64       1.0  0.8551267913504289  0.5245862272293778  0.0136756240428824  1.0000
  H   H65       1.0  0.7219190634139777  0.5921105140257907  0.18882371290002456  1.0000
  H   H66       1.0  0.6954832390712723  0.5732155299440433  0.14164170093426523  1.0000
  H   H67       1.0  0.3372831788236255  0.22327862555253825  0.15412013790646745  1.0000
  H   H68       1.0  0.3826677181065463  0.2542361957553679  0.20028241632849134  1.0000
  H   H69       1.0  0.5801764479779193  0.4565925143649139  0.10503536915166484  1.0000
  H   H70       1.0  0.3283208308019566  0.2052825400585334  0.1141493693677162  1.0000
  H   H71       1.0  0.568166032283834  0.43789043551553414  0.064369471534846  1.0000
  H   H72       1.0  0.5284045521922351  0.39577845461641914  0.018953327204720007  1.0000
  H   H73       1.0  0.18345525701212037  0.060299142878058376  0.031619493719851705  1.0000
  H   H74       1.0  0.2077306026439132  0.09011125651957028  0.0781141540682526  1.0000
  H   H75       1.0  0.47539994501451577  0.5686771244466796  0.27785899952495907  1.0000
  H   H76       1.0  0.5023474933853506  0.5562315090231564  0.3239211405082259  1.0000
  H   H77       1.0  0.8502097581376942  0.1916326990378536  0.31312744398757536  1.0000
  H   H78       1.0  0.810853350638922  0.2209168954376892  0.26711232423198794  1.0000
  H   H79       1.0  0.7913912697685319  0.2637388156942251  0.3553811459861365  1.0000
  H   H80       1.0  0.5315689770401093  0.5080526779211281  0.3637019112794918  1.0000
  H   H81       1.0  0.8298353500414776  0.22537370355573927  0.394789710938845  1.0000
  H   H82       1.0  0.8453366275030233  0.2005463938452507  0.4416061292799541  1.0000
  H   H83       1.0  0.4970751004388489  0.5303027190074372  0.4526531424451435  1.0000
  H   H84       1.0  0.4679939905207675  0.5730743524626689  0.40610085364067333  1.0000
  H   H85       1.0  0.3154234626799877  0.6000988572974535  0.7074520428300277  1.0000
  H   H86       1.0  0.1116982380828162  0.5834300455288213  0.7148857617223003  1.0000
  H   H87       1.0  0.3854594445209045  0.5807277093377436  0.7528920815708418  1.0000
  H   H88       1.0  0.0588976197854834  0.6035197060352003  0.7647162649715684  1.0000
  H   H89       1.0  0.15334342494654146  0.24642375183601223  0.458767189130569  1.0000
  H   H90       1.0  0.1625921462245188  0.040981813260359  0.46499882994935865  1.0000
  H   H91       1.0  0.17026382210426758  0.30513237465716964  0.5046810625179604  1.0000
  H   H92       1.0  0.14487773146619526  0.9754164262548812  0.5136761440513951  1.0000
  H   H93       1.0  0.27808262716193605  0.9078905934966102  0.6888226485200095  1.0000
  H   H94       1.0  0.3045163754820308  0.9267777214004767  0.6416404864506974  1.0000
  H   H95       1.0  0.6627168260076033  0.2767159378966255  0.6541192667784445  1.0000
  H   H96       1.0  0.6173343178660673  0.24576153021256178  0.7002809092218883  1.0000
  H   H97       1.0  0.4198213971004492  0.0434011720561074  0.6050342963425878  1.0000
  H   H98       1.0  0.671680928224525  0.2947101403447334  0.614148137888691  1.0000
  H   H99       1.0  0.4318429041966496  0.06211187514662699  0.5643674733983772  1.0000
  H   H100      1.0  0.47159184718831415  0.10422070687090469  0.5189521534265751  1.0000
  H   H101      1.0  0.8165416996747865  0.43970141377758404  0.5316179295281955  1.0000
  H   H102      1.0  0.7922695708171615  0.4098831177373795  0.5781129269279861  1.0000
  H   H103      1.0  0.5246021502530666  0.9313208985058238  0.7778593690600673  1.0000
  H   H104      1.0  0.49764726082578653  0.943767336961237  0.8239218639846086  1.0000
  H   H105      1.0  0.1497925591677287  0.3083682120683306  0.8131267529918205  1.0000
  H   H106      1.0  0.18914577099025112  0.2790878689176708  0.7671110960649445  1.0000
  H   H107      1.0  0.2086105647720942  0.23626168153170105  0.8553808681521674  1.0000
  H   H108      1.0  0.46843221144236213  0.9919480477010794  0.8637024341308648  1.0000
  H   H109      1.0  0.17016236362864837  0.2746251601042927  0.8947903548516438  1.0000
  H   H110      1.0  0.15466548805984098  0.29944629315750143  0.9416063877762397  1.0000
  H   H111      1.0  0.5029206341091097  0.9696984271068986  0.9526533154400029  1.0000
  H   H112      1.0  0.5320043796277858  0.9269236241574674  0.9061014192749896  1.0000
  C   C1        1.0  0.25556163574167096  0.8725488804035563  0.27997902515686957  1.0000
  C   C2        1.0  0.2696422757799013  0.05014622865087399  0.27908499557194233  1.0000
  C   C3        1.0  0.23380738714690347  0.11575753235773331  0.2525169501246581  1.0000
  C   C4        1.0  0.2365941534774407  0.2952672406109683  0.2535534276251568  1.0000
  C   C5        1.0  0.12243308563016342  0.6654786935823863  0.5285537886685319  1.0000
  C   C6        1.0  0.3007049645921498  0.6567751939897305  0.5281847100734964  1.0000
  C   C7        1.0  0.3669933532107805  0.6883796398375067  0.5015232356458768  1.0000
  C   C8        1.0  0.5463542752032637  0.6887125978774121  0.5031350636140958  1.0000
  C   C9        1.0  0.14006710057856248  0.4893275769085646  0.31993350959999844  1.0000
  C   C10       1.0  0.12374541642135738  0.5004354843545754  0.3460828739728613  1.0000
  C   C11       1.0  0.0162205796261716  0.6069373508902558  0.35666124626608564  1.0000
  C   C12       1.0  0.9264650186393125  0.6949840124091438  0.3393861963151963  1.0000
  C   C13       1.0  0.9498125765565321  0.6784338977016802  0.3135248593064264  1.0000
  C   C14       1.0  0.0030488495454292996  0.6205057127680007  0.3841049223481079  1.0000
  C   C15       1.0  0.9059729884026736  0.7182915734740405  0.3967303874173781  1.0000
  C   C16       1.0  0.8917766508187981  0.7337721877520592  0.4241420184904713  1.0000
  C   C17       1.0  0.980954046274803  0.6473398819139999  0.4416254644412164  1.0000
  C   C18       1.0  0.959857098174517  0.6703222192244594  0.4674213872333156  1.0000
  C   C19       1.0  0.7683551757555803  0.8582700365884435  0.46033409576716633  1.0000
  C   C20       1.0  0.7827951083756375  0.8404213277491408  0.43426000571088963  1.0000
  C   C21       1.0  0.05614315790664649  0.5149878201657357  0.21365808273300502  1.0000
  C   C22       1.0  0.0722517057879841  0.5233460742160859  0.18756503837821015  1.0000
  C   C23       1.0  0.17798004411471166  0.6312501651344106  0.17686157010577835  1.0000
  C   C24       1.0  0.2651771241303607  0.7234006536048413  0.19377242102805783  1.0000
  C   C25       1.0  0.2439186241417417  0.7078176925108154  0.21974562426454725  1.0000
  C   C26       1.0  0.2009001303730216  0.6514617918390685  0.149734374428192  1.0000
  C   C27       1.0  0.12173121326218711  0.5769622044044594  0.13112155161276465  1.0000
  C   C28       1.0  0.14381170748063707  0.5993268686118967  0.104023366993566  1.0000
  C   C29       1.0  0.25277311691345966  0.7042036143418855  0.09334644592003373  1.0000
  C   C30       1.0  0.2623195025838569  0.719604244310098  0.067250934445461  1.0000
  C   C31       1.0  0.0679162938248581  0.5347763784692604  0.060950453769663716  1.0000
  C   C32       1.0  0.0523276709692979  0.5125110505130481  0.08691474681860002  1.0000
  C   C33       1.0  0.7444417237699524  0.6274456738460827  0.7799785571908588  1.0000
  C   C34       1.0  0.7303655695254179  0.4498517364824793  0.7790850430277132  1.0000
  C   C35       1.0  0.7662004601464432  0.3842376203568207  0.7525175768433388  1.0000
  C   C36       1.0  0.7634125684215292  0.2047279306148511  0.753553018150001  1.0000
  C   C37       1.0  0.8775697498875488  0.8345324077544802  0.028555147734870407  1.0000
  C   C38       1.0  0.6992919997882437  0.8432359007532921  0.028185487818660704  1.0000
  C   C39       1.0  0.6330024380531823  0.8116263030949041  0.0015237321527195003  1.0000
  C   C40       1.0  0.45364275795173364  0.8112875295581574  0.003134973269141001  1.0000
  C   C41       1.0  0.8599273193646795  0.010676962392175002  0.819933309607869  1.0000
  C   C42       1.0  0.8762467999842442  0.9995731084780175  0.8460840617621841  1.0000
  C   C43       1.0  0.9837779570939132  0.8930667555032981  0.8566611807596873  1.0000
  C   C44       1.0  0.0735327579759613  0.8050209541810246  0.8393863636023795  1.0000
  C   C45       1.0  0.0501840621640142  0.8215729445313826  0.8135257658731518  1.0000
  C   C46       1.0  0.9969497237478747  0.8794977151278616  0.8841056241185896  1.0000
  C   C47       1.0  0.09403082430997502  0.78171441771498  0.8967305673881542  1.0000
  C   C48       1.0  0.10822368411181318  0.7662307866475119  0.9241422075578927  1.0000
  C   C49       1.0  0.019041203060829997  0.8526587294493665  0.9416259704605567  1.0000
  C   C50       1.0  0.0401392861905521  0.8296698398986423  0.9674215275559208  1.0000
  C   C51       1.0  0.2316420677441329  0.6417277401934597  0.9603345583265865  1.0000
  C   C52       1.0  0.21720332980029866  0.6595794897215156  0.9342602703959388  1.0000
  C   C53       1.0  0.9438561125003346  0.985007886814543  0.713658583377253  1.0000
  C   C54       1.0  0.9277511003963993  0.9766503353873617  0.6875643787515529  1.0000
  C   C55       1.0  0.822017607209588  0.8687460532304597  0.6768611163788947  1.0000
  C   C56       1.0  0.7348247842109288  0.7765946980549998  0.6937720124769627  1.0000
  C   C57       1.0  0.7560844270209442  0.7921839675159533  0.719745058060184  1.0000
  C   C58       1.0  0.7991045241872996  0.8485374483970246  0.6497342638651065  1.0000
  C   C59       1.0  0.8782667674536312  0.9230320278422324  0.6311217574664882  1.0000
  C   C60       1.0  0.8561827389304213  0.9006738926004728  0.6040229678856833  1.0000
  C   C61       1.0  0.7472208596884684  0.7957969560913368  0.5933451127190852  1.0000
  C   C62       1.0  0.737676838743397  0.7803970287169831  0.5672499621495535  1.0000
  C   C63       1.0  0.9320832832369206  0.9652212754155226  0.560950552208766  1.0000
  C   C64       1.0  0.9476718775560328  0.9874858984344353  0.5869148738187706  1.0000
  C   C65       1.0  0.7555600469765905  0.12743945137270876  0.22002243063917604  1.0000
  C   C66       1.0  0.7696378905115465  0.9498467501598853  0.22091647651047455  1.0000
  C   C67       1.0  0.7338031327193234  0.8842355187274434  0.2474841012788929  1.0000
  C   C68       1.0  0.7365902168347418  0.704728142567319  0.2464474373879356  1.0000
  C   C69       1.0  0.6224280886905049  0.3345176716468358  0.9714448003421553  1.0000
  C   C70       1.0  0.8007023082365234  0.343224318245241  0.9718144643732745  1.0000
  C   C71       1.0  0.8669989598079438  0.3116174009680321  0.9984756362507884  1.0000
  C   C72       1.0  0.0463595174082911  0.31128859622892685  0.9968641958627132  1.0000
  C   C73       1.0  0.6400688328678825  0.5106750141041446  0.18006724376648722  1.0000
  C   C74       1.0  0.6237507044992228  0.49956947728239953  0.1539169124441244  1.0000
  C   C75       1.0  0.5162197629875677  0.3930654899198628  0.14333936384732482  1.0000
  C   C76       1.0  0.42646484620543385  0.3050203386634606  0.1606146987087484  1.0000
  C   C77       1.0  0.4498123375426387  0.3215668997006204  0.1864754938786461  1.0000
  C   C78       1.0  0.5030503657640324  0.37949715460337774  0.11589529330187533  1.0000
  C   C79       1.0  0.4059738528797538  0.2817151566317477  0.10326896698801143  1.0000
  C   C80       1.0  0.3917833663752218  0.26622872668984593  0.07585712988160512  1.0000
  C   C81       1.0  0.48096215953737687  0.3526561772246665  0.05837359746624322  1.0000
  C   C82       1.0  0.4598594390358953  0.3296692070434303  0.032578029496363604  1.0000
  C   C83       1.0  0.26835820892517864  0.14172645136279266  0.039664909841711414  1.0000
  C   C84       1.0  0.2828015946420591  0.15957863765101615  0.0657393958325088  1.0000
  C   C85       1.0  0.5561449343648306  0.4850055892400177  0.2863408670261336  1.0000
  C   C86       1.0  0.5722487924143279  0.47664847157376045  0.3124352573132897  1.0000
  C   C87       1.0  0.6779871879561341  0.36874416739429705  0.323138847886085  1.0000
  C   C88       1.0  0.7651801974839074  0.27659584076148036  0.30622714974865073  1.0000
  C   C89       1.0  0.7439193521715594  0.292181182465157  0.2802554388387933  1.0000
  C   C90       1.0  0.7008967989872587  0.348543014204715  0.3502673973736989  1.0000
  C   C91       1.0  0.6217250370906343  0.42303457931097915  0.3688793701535006  1.0000
  C   C92       1.0  0.6438126237554869  0.40066870168406143  0.39597549455606185  1.0000
  C   C93       1.0  0.7527817411736989  0.29578355417353197  0.40665311051013486  1.0000
  C   C94       1.0  0.7623140835274143  0.2804051132730692  0.43274939148243874  1.0000
  C   C95       1.0  0.567924829541134  0.4652193449012501  0.4390486992263762  1.0000
  C   C96       1.0  0.5523268223013175  0.4874917174464315  0.41308325045487504  1.0000
  C   C97       1.0  0.24444168662068924  0.37255862731642964  0.720022448325665  1.0000
  C   C98       1.0  0.23036287024149257  0.5501502553664254  0.7209168942780552  1.0000
  C   C99       1.0  0.2661987970196833  0.6157631303568178  0.7474845915270977  1.0000
  C   C100      1.0  0.26341166728828813  0.7952704879932995  0.7464478196933584  1.0000
  C   C101      1.0  0.37756948486535435  0.1654825616434223  0.47144379458894303  1.0000
  C   C102      1.0  0.1992894267237162  0.15677241509028048  0.47181438597832687  1.0000
  C   C103      1.0  0.1330044870556293  0.1883821464481343  0.4984760649707028  1.0000
  C   C104      1.0  0.9536450295360837  0.1887155978305159  0.4968651947336441  1.0000
  C   C105      1.0  0.3599301304613078  0.9893294435370805  0.6800661229600282  1.0000
  C   C106      1.0  0.37624109455171606  0.0004309268364224  0.6539163377497987  1.0000
  C   C107      1.0  0.4837785965088059  0.10693472519648138  0.6433387742914294  1.0000
  C   C108      1.0  0.5735366153527082  0.1949801851135788  0.6606134961544329  1.0000
  C   C109      1.0  0.5501890909350563  0.1784340861523575  0.6864748253370224  1.0000
  C   C110      1.0  0.49694912813193776  0.12050373900778061  0.6158945357820258  1.0000
  C   C111      1.0  0.5940297693763978  0.21828200480358356  0.603268747230729  1.0000
  C   C112      1.0  0.6082167078016169  0.2337667761084106  0.5758571234745348  1.0000
  C   C113      1.0  0.5190348033979006  0.1473413509021029  0.5583734470311867  1.0000
  C   C114      1.0  0.5401399017883932  0.17033487331497096  0.5325769662718188  1.0000
  C   C115      1.0  0.7316320759249351  0.3582684047694471  0.5396641570017736  1.0000
  C   C116      1.0  0.7172015472652475  0.34042019093295284  0.5657388074661187  1.0000
  C   C117      1.0  0.4438573753346589  0.014996012126843494  0.7863418943415326  1.0000
  C   C118      1.0  0.42774881055282066  0.023351258321604  0.8124357011069706  1.0000
  C   C119      1.0  0.3220167408516232  0.1312522471645252  0.8231388411791019  1.0000
  C   C120      1.0  0.2348194742836469  0.2234037782098639  0.8062278442237061  1.0000
  C   C121      1.0  0.25608268972945336  0.20782147901309136  0.7802548232349553  1.0000
  C   C122      1.0  0.2990977846538669  0.15146440479622922  0.8502660464162873  1.0000
  C   C123      1.0  0.3782621686579546  0.07696615910359128  0.8688782651519988  1.0000
  C   C124      1.0  0.3561839711238406  0.09933018316881707  0.8959766499640553  1.0000
  C   C125      1.0  0.24722352039412232  0.20420850831591508  0.906655327170043  1.0000
  C   C126      1.0  0.23768178745211094  0.219603779506059  0.9327504667003483  1.0000
  C   C127      1.0  0.4320818574215933  0.034774465268178296  0.9390499118890647  1.0000
  C   C128      1.0  0.4476716963036012  0.0125121485137569  0.9130846602384111  1.0000
  N   N1        1.0  0.056517449793538795  0.5782974806748695  0.303897585411903  1.0000
  N   N2        1.0  0.8566285471394295  0.774941038754214  0.4766040084458042  1.0000
  N   N3        1.0  0.13992447395071386  0.6066485505984005  0.2294507742280772  1.0000
  N   N4        1.0  0.17026990323986274  0.6381873917410414  0.05125668026387591  1.0000
  N   N5        1.0  0.9434775943438181  0.9217021763914559  0.8038980556802358  1.0000
  N   N6        1.0  0.1433694122424143  0.7250558598732154  0.9766044083101093  1.0000
  N   N7        1.0  0.8600790042727198  0.8933474385560556  0.7294513242309364  1.0000
  N   N8        1.0  0.8297257343492248  0.8618100889380641  0.5512562321734864  1.0000
  N   N9        1.0  0.5565188967933494  0.4216994345603736  0.1961025024684561  1.0000
  N   N10       1.0  0.35663069574720646  0.22505527115647786  0.02339547849640411  1.0000
  N   N11       1.0  0.6399233991690495  0.3933423521250319  0.2705499789690506  1.0000
  N   N12       1.0  0.6702732199744403  0.3618104629182852  0.4487439184229913  1.0000
  N   N13       1.0  0.4434852972206044  0.07829938558077737  0.6961012839162565  1.0000
  N   N14       1.0  0.6433658990797682  0.27494747627272176  0.5233940153052574  1.0000
  N   N15       1.0  0.36007938665648703  0.10665779821850661  0.7705488669691578  1.0000
  N   N16       1.0  0.3297256967221216  0.1381858581981348  0.948744303144153  1.0000
  O   O1        1.0  0.1279636105045512  0.8184529992547596  0.26948907929557464  1.0000
  O   O2        1.0  0.35864421160463417  0.789853331475207  0.28984812627052053  1.0000
  O   O3        1.0  0.3358799295789224  0.05462598969493369  0.23377529735758884  1.0000
  O   O4        1.0  0.12258219812077438  0.3564256256282903  0.26631557687007057  1.0000
  O   O5        1.0  0.3432452535385266  0.36965783379820033  0.24275666157500106  1.0000
  O   O6        1.0  0.0670735966592062  0.7885056229639388  0.5168964693361887  1.0000
  O   O7        1.0  0.0416043903482759  0.5634363980229721  0.5390005345501195  1.0000
  O   O8        1.0  0.3091362602489198  0.5807008321517912  0.48333875670678594  1.0000
  O   O9        1.0  0.605679579086967  0.8128056045569352  0.5132467054019757  1.0000
  O   O10       1.0  0.6238002994053247  0.5739913787325576  0.49550764410599873  1.0000
  O   O11       1.0  0.8720369454959422  0.6815448741444071  0.7694889741182397  1.0000
  O   O12       1.0  0.6413548982313272  0.7101390613944216  0.7898470093332011  1.0000
  O   O13       1.0  0.6641235801291713  0.44536882814918505  0.7337752660752273  1.0000
  O   O14       1.0  0.8774250853043596  0.14356860476249972  0.7663145118886947  1.0000
  O   O15       1.0  0.6567586513513318  0.1303394822374599  0.7427566623985487  1.0000
  O   O16       1.0  0.932927554920063  0.711511114364029  0.016896506950288902  1.0000
  O   O17       1.0  0.9583942209534086  0.9365760588478477  0.039003362669639316  1.0000
  O   O18       1.0  0.6908666793746575  0.9193055376732246  0.9833396921021632  1.0000
  O   O19       1.0  0.3943190699744079  0.6871993789873299  0.013247435823188903  1.0000
  O   O20       1.0  0.3761914658540134  0.9260081953699596  0.9955068913963958  1.0000
  O   O21       1.0  0.6279623737737836  0.1815402653111988  0.23051184968164762  1.0000
  O   O22       1.0  0.8586455341320587  0.21013245467099753  0.21015382799009796  1.0000
  O   O23       1.0  0.8358787180147329  0.9453633489426565  0.26622663057125356  1.0000
  O   O24       1.0  0.6225719688853316  0.6435723252429708  0.233686483566089  1.0000
  O   O25       1.0  0.8432454554642489  0.6303349965376198  0.25724318911418464  1.0000
  O   O26       1.0  0.5670717036770156  0.2114955293644059  0.9831033829460695  1.0000
  O   O27       1.0  0.5415975561722561  0.43655428593548606  0.9609966336624113  1.0000
  O   O28       1.0  0.8091380134223202  0.41930024896991813  0.016659348000359803  1.0000
  O   O29       1.0  0.1056857985765305  0.18719780761204421  0.986753191540551  1.0000
  O   O30       1.0  0.12380355137292298  0.42601358278560747  0.0044910046856543  1.0000
  O   O31       1.0  0.37204099233741766  0.3184580007967597  0.7305117997588371  1.0000
  O   O32       1.0  0.1413545942708438  0.28986544769318817  0.7101540665586301  1.0000
  O   O33       1.0  0.1641263783581977  0.5546391415990185  0.76622735307231  1.0000
  O   O34       1.0  0.37743052472009  0.8564249084474014  0.7336864578339688  1.0000
  O   O35       1.0  0.1567569036728287  0.8696649957742153  0.7572434832367279  1.0000
  O   O36       1.0  0.4329263828516972  0.28850841880822736  0.48310212017652543  1.0000
  O   O37       1.0  0.45839838668133126  0.06344459181317319  0.460995483532095  1.0000
  O   O38       1.0  0.1908746787332234  0.08070004038491867  0.516659734532901  1.0000
  O   O39       1.0  0.8943171324966455  0.31280386806990623  0.4867538012458896  1.0000
  O   O40       1.0  0.8761992375879545  0.07399584004080141  0.5044933184447659  1.0000
