data_image0
_chemical_formula_structural       Rb2H38C48N8O24
_chemical_formula_sum              "Rb2 H38 C48 N8 O24"
_cell_length_a       11.300834659838488
_cell_length_b       11.477700763398145
_cell_length_c       12.143
_cell_angle_alpha    96.74313813025837
_cell_angle_beta     110.6524325100973
_cell_angle_gamma    114.22603313804201

_space_group_name_H-M_alt    "P 1"
_space_group_IT_number       1

loop_
  _space_group_symop_operation_xyz
  'x, y, z'

loop_
  _atom_site_type_symbol
  _atom_site_label
  _atom_site_symmetry_multiplicity
  _atom_site_fract_x
  _atom_site_fract_y
  _atom_site_fract_z
  _atom_site_occupancy
  Rb  Rb1       1.0  0.9992167260679707  0.0716580925619326  0.16454535299963158  1.0000
  Rb  Rb2       1.0  0.0007829468843709993  0.9283415973215695  0.8354550816966437  1.0000
  H   H1        1.0  0.6668470081893644  0.308664796650703  0.5146671467758708  1.0000
  H   H2        1.0  0.33315213869434507  0.6913338892946612  0.4853330038228307  1.0000
  H   H3        1.0  0.41422942919785294  0.1903747814609034  0.34361735713766706  1.0000
  H   H4        1.0  0.5857702437544888  0.809624908422606  0.6563830775586084  1.0000
  H   H5        1.0  0.5707287993418575  0.088531280867528  0.09021116874451707  1.0000
  H   H6        1.0  0.429269401880596  0.9114674050778363  0.9097886714530858  1.0000
  H   H7        1.0  0.8205879456889491  0.2054047393429173  0.2597873852191341  1.0000
  H   H8        1.0  0.17941120119476753  0.7945939466024541  0.7402127653795673  1.0000
  H   H9        1.0  0.6679567387576952  0.5796527988752374  0.7590311466032488  1.0000
  H   H10       1.0  0.33204440592453466  0.4203478949464099  0.24096988259169894  1.0000
  H   H11       1.0  0.4885546293496786  0.41271495327404745  0.5549786875130491  1.0000
  H   H12       1.0  0.5114445175340379  0.5872837326713238  0.4450206395659321  1.0000
  H   H13       1.0  0.14095378347131768  0.390247821656807  0.6408767060615688  1.0000
  H   H14       1.0  0.8590458894810241  0.6097518682267022  0.35912372863470665  1.0000
  H   H15       1.0  0.3189316231466321  0.5541788725310823  0.8456127631670256  1.0000
  H   H16       1.0  0.6810680498057096  0.4458208173524199  0.15438684800952984  1.0000
  H   H17       1.0  0.2432375867251864  0.1944367151721167  0.8103766311905999  1.0000
  H   H18       1.0  0.7567630318884183  0.8055629747113925  0.18962329038705406  1.0000
  H   H19       1.0  0.1117291531163573  0.0630432993894274  0.5874167203675285  1.0000
  H   H20       1.0  0.8882714654972473  0.9369563904940817  0.4125832012101255  1.0000
  H   H21       1.0  0.5038119663616243  0.0779216626124253  0.5979255314085065  1.0000
  H   H22       1.0  0.49618812618335545  0.9220770233329459  0.40207410607157357  1.0000
  H   H23       1.0  0.6347537519665423  0.2064759413374517  0.8233358396655959  1.0000
  H   H24       1.0  0.3652459209857994  0.7935237485460576  0.17666377151095958  1.0000
  H   H25       1.0  0.7095487784500989  0.5058954716642248  0.9509338508281502  1.0000
  H   H26       1.0  0.2904508945022428  0.4941042182192845  0.04906576034840529  1.0000
  H   H27       1.0  0.7987575782007851  0.358405915695684  0.04057612438948142  1.0000
  H   H28       1.0  0.2012420947515565  0.6415937741878253  0.9594243103067939  1.0000
  H   H29       1.0  0.21583320016895874  0.7026271894225644  0.2761039897464102  1.0000
  H   H30       1.0  0.7841664727833828  0.2973725004609449  0.7238956214301381  1.0000
  H   H31       1.0  0.13020978502824226  0.8514168452813777  0.1828425695037339  1.0000
  H   H32       1.0  0.8697894683314614  0.1485838485402695  0.8171570153692826  1.0000
  H   H33       1.0  0.9602336330378449  0.3079861344686066  0.4688572804164578  1.0000
  H   H34       1.0  0.03976603991449678  0.6920135554149027  0.5311423307600975  1.0000
  H   H35       1.0  0.46427107623952685  0.2942974379405641  0.9929446310133443  1.0000
  H   H36       1.0  0.535729542374078  0.7057022519429452  0.00705446704458266  1.0000
  H   H37       1.0  0.7578719972872392  0.7263171176933554  0.97070794240107  1.0000
  H   H38       1.0  0.2421267300038394  0.2736825721901539  0.02929135837437968  1.0000
  C   C1        1.0  0.7575334782065681  0.2604878132266037  0.3981842973173997  1.0000
  C   C2        1.0  0.24246566867714853  0.7395108727187676  0.6018158532813017  1.0000
  C   C3        1.0  0.6430885193059979  0.2582570626812952  0.42169256209982825  1.0000
  C   C4        1.0  0.3569111536463438  0.7417426272022141  0.5783078725964472  1.0000
  C   C5        1.0  0.5038536155101028  0.19350606451707358  0.32718176211002253  1.0000
  C   C6        1.0  0.49614563784960103  0.8064946293045735  0.6728186462827209  1.0000
  C   C7        1.0  0.4783600220827324  0.1307257969201174  0.20836429350666208  1.0000
  C   C8        1.0  0.5216401769382344  0.8692748969015297  0.7916364252871799  1.0000
  C   C9        1.0  0.5918736848415805  0.1350196403414898  0.1832162752498832  1.0000
  C   C10       1.0  0.4081259881107613  0.8649800495420124  0.8167841594463922  1.0000
  C   C11       1.0  0.7308339390847252  0.1996381186713307  0.27784127356761706  1.0000
  C   C12       1.0  0.2691652077989914  0.8003605672740335  0.7221588770310845  1.0000
  C   C13       1.0  0.5069642475813367  0.5798525825649392  0.8188012291875779  1.0000
  C   C14       1.0  0.49303595143963  0.42014811125670803  0.18119866608654425  1.0000
  C   C15       1.0  0.5529746433113019  0.5377082634193115  0.7340322105823842  1.0000
  C   C16       1.0  0.44702502964103996  0.4622914264641977  0.265967400594171  1.0000
  C   C17       1.0  0.45339166851793783  0.4453318994786315  0.6193981663226892  1.0000
  C   C18       1.0  0.5466084240270348  0.5546667864667398  0.380603118196845  1.0000
  C   C19       1.0  0.3042681401970029  0.3931381595595766  0.5842466210531398  1.0000
  C   C20       1.0  0.695733004485227  0.6068625342620706  0.4157552316615281  1.0000
  C   C21       1.0  0.2559024574834581  0.4326320820177044  0.6665072326310266  1.0000
  C   C22       1.0  0.7440962698076204  0.5673676078658048  0.333492068144423  1.0000
  C   C23       1.0  0.3554281213167698  0.5235888774295532  0.7814862021119068  1.0000
  C   C24       1.0  0.6445715516355718  0.4764108124539561  0.21851340906464853  1.0000
  C   C25       1.0  0.4470640199705186  0.2062781655240258  0.8315852768441019  1.0000
  C   C26       1.0  0.5529365986430861  0.7937215243594835  0.1684146447335522  1.0000
  C   C27       1.0  0.2987628484135456  0.1658917420601398  0.764217671717226  1.0000
  C   C28       1.0  0.7012377702000592  0.8341079478233694  0.23578224986042773  1.0000
  C   C29       1.0  0.22579463106496428  0.0940690036433764  0.6396223860484368  1.0000
  C   C30       1.0  0.7742059875486406  0.905930686240133  0.36037753552921703  1.0000
  C   C31       1.0  0.30074256555590034  0.0630402875750136  0.580818053404613  1.0000
  C   C32       1.0  0.6992575269890792  0.9369583983703578  0.4191815840754741  1.0000
  C   C33       1.0  0.4484194571516796  0.103522085162119  0.6458567686918286  1.0000
  C   C34       1.0  0.5515806353933002  0.8964766007832524  0.35414204526853144  1.0000
  C   C35       1.0  0.520385198421863  0.1741842710899633  0.770250314943901  1.0000
  C   C36       1.0  0.47961552666773605  0.8258174266698219  0.22974904090806797  1.0000
  C   C37       1.0  0.9149084556570557  0.6889384928945219  0.06048874597357921  1.0000
  C   C38       1.0  0.08509069122666088  0.3110601930508423  0.9395105811054023  1.0000
  C   C39       1.0  0.8211137740685502  0.5490356974439479  0.020029106232335978  1.0000
  C   C40       1.0  0.17888589888379164  0.4509639924395615  0.9799705049442125  1.0000
  C   C41       1.0  0.8702307542382927  0.4661003677643336  0.07006519108572473  1.0000
  C   C42       1.0  0.1297689187140492  0.5338993221191757  0.9299344200908235  1.0000
  C   C43       1.0  0.012506390761792793  0.5224584430848083  0.16187283774063127  1.0000
  C   C44       1.0  0.987492862597911  0.477542250736839  0.8381267471323923  1.0000
  C   C45       1.0  0.10679378058240017  0.6611846230362417  0.20298784357319016  1.0000
  C   C46       1.0  0.8932049467086784  0.3388150668472676  0.7970114572022595  1.0000
  C   C47       1.0  0.05888039204913299  0.7434824519974583  0.1508499798505341  1.0000
  C   C48       1.0  0.9411188613105708  0.2565182418241889  0.8491487815027624  1.0000
  N   N1        1.0  0.33444387815634974  0.0617532388805557  0.11056289166841542  1.0000
  N   N2        1.0  0.6655557947959921  0.9382464510029536  0.8894367195081401  1.0000
  N   N3        1.0  0.20392842767961378  0.2980561823337382  0.4662375845224601  1.0000
  N   N4        1.0  0.7960727170026161  0.701944511487909  0.5337626211527677  1.0000
  N   N5        1.0  0.22693728711683286  0.9911831051450193  0.4507991686372178  1.0000
  N   N6        1.0  0.7730623858355089  0.0088165847384829  0.5492004425393374  1.0000
  N   N7        1.0  0.06292784657277649  0.4363476570708968  0.21388947216049556  1.0000
  N   N8        1.0  0.9370732981094535  0.5636530367507504  0.7861099099950052  1.0000
  O   O1        1.0  0.8908799160163952  0.3224689460647525  0.4935043636743259  1.0000
  O   O2        1.0  0.1091202830045717  0.6775317477568947  0.5064955315997963  1.0000
  O   O3        1.0  0.2329640707577312  0.0591148894507256  0.1326528052919684  1.0000
  O   O4        1.0  0.7670351826019726  0.9408858043709216  0.8673476031007752  1.0000
  O   O5        1.0  0.3121119579875328  0.0051582341592251  0.004949539444155005  1.0000
  O   O6        1.0  0.687887714964809  0.9948414557242841  0.9950500717323935  1.0000
  O   O7        1.0  0.6004842204834445  0.6679421306512197  0.9282147244994687  1.0000
  O   O8        1.0  0.3995159785375222  0.3320585631704276  0.07178517077465327  1.0000
  O   O9        1.0  0.2493712841605671  0.2573625537992612  0.39817473397638986  1.0000
  O   O10       1.0  0.7506293344530377  0.7426371360842481  0.6018260111209912  1.0000
  O   O11       1.0  0.0690202811165292  0.2530707182541647  0.4304069629989583  1.0000
  O   O12       1.0  0.9309799179044377  0.7469299755674825  0.5695929322751638  1.0000
  O   O13       1.0  0.5232391452246646  0.274885290080924  0.9515802475583752  1.0000
  O   O14       1.0  0.4767614733889402  0.7251143998025853  0.04841967401927854  1.0000
  O   O15       1.0  0.09631975551437215  0.9588974585263726  0.39147492345916385  1.0000
  O   O16       1.0  0.9036799174379695  0.0411022313571365  0.6085255112371115  1.0000
  O   O17       1.0  0.2967230201132978  0.9649010085988082  0.4012908563912346  1.0000
  O   O18       1.0  0.7032761267704188  0.0350976773465561  0.5987084706877467  1.0000
  O   O19       1.0  0.8711854575317303  0.7740302816971436  0.016818097087934775  1.0000
  O   O20       1.0  0.12881421542061128  0.22596940818636568  0.9831815140886206  1.0000
  O   O21       1.0  0.9797810798744919  0.3118944656445208  0.1692368501908703  1.0000
  O   O22       1.0  0.020220064807738018  0.6881062281771264  0.8307633554843576  1.0000
  O   O23       1.0  0.18740320204886973  0.48728446643966805  0.30020331455042987  1.0000
  O   O24       1.0  0.8125989947706103  0.5127182352582551  0.6997949887607645  1.0000
