data_image0
_chemical_formula_structural       Dy4P4H24C8O32
_chemical_formula_sum              "Dy4 P4 H24 C8 O32"
_cell_length_a       7.674249859003758
_cell_length_b       8.40041614442455
_cell_length_c       11.928988468369056
_cell_angle_alpha    93.04889118496918
_cell_angle_beta     89.99992233444132
_cell_angle_gamma    89.99992182574422

_space_group_name_H-M_alt    "P 1"
_space_group_IT_number       1

loop_
  _space_group_symop_operation_xyz
  'x, y, z'

loop_
  _atom_site_type_symbol
  _atom_site_label
  _atom_site_symmetry_multiplicity
  _atom_site_fract_x
  _atom_site_fract_y
  _atom_site_fract_z
  _atom_site_occupancy
  Dy  Dy1       1.0  0.7758345127002784  0.25264276258393187  0.0810761690989139  1.0000
  Dy  Dy2       1.0  0.2758348033615404  0.2473567575737335  0.4189239162129681  1.0000
  Dy  Dy3       1.0  0.22416891981880127  0.7473581826595609  0.9189220361334166  1.0000
  Dy  Dy4       1.0  0.7241673260960226  0.7526418274641248  0.5810783988004999  1.0000
  P   P1        1.0  0.980192696875477  0.8813547546031091  0.15993810288224353  1.0000
  P   P2        1.0  0.4801933454644141  0.618642668019696  0.3400621774059971  1.0000
  P   P3        1.0  0.019802917295471897  0.11863903807567773  0.8400598546914891  1.0000
  P   P4        1.0  0.5198048748134879  0.38135949330566654  0.6599402614403687  1.0000
  H   H1        1.0  0.6480523333568584  0.3339513526595682  0.317105200525333  1.0000
  H   H2        1.0  0.148053242140186  0.16604714384866537  0.18289496134634928  1.0000
  H   H3        1.0  0.35194458386665417  0.6660472227883434  0.682895437556688  1.0000
  H   H4        1.0  0.8519449781422421  0.8339526188966746  0.817104879545191  1.0000
  H   H5        1.0  0.820430167503005  0.22073957386570708  0.3267974253647949  1.0000
  H   H6        1.0  0.32043092789577793  0.27925988750444475  0.1732026188220104  1.0000
  H   H7        1.0  0.179565446662437  0.7792589967863749  0.6732023742509128  1.0000
  H   H8        1.0  0.6795646862687335  0.7207398752426076  0.8267972220707308  1.0000
  H   H9        1.0  0.9943728203242513  0.47238213772878634  0.22546855644532826  1.0000
  H   H10       1.0  0.4943711364668744  0.027618291238702908  0.2745322070815561  1.0000
  H   H11       1.0  0.005625399957288797  0.5276176298132429  0.7745321229131364  1.0000
  H   H12       1.0  0.5056244776967062  0.9723826636033265  0.7254676750882184  1.0000
  H   H13       1.0  0.9799597400048439  0.5614300915503282  0.11036154611603172  1.0000
  H   H14       1.0  0.4799611102872561  0.9385685234740752  0.38963877566373384  1.0000
  H   H15       1.0  0.020038480275715594  0.43857205538495964  0.8896383773295753  1.0000
  H   H16       1.0  0.5200371099961033  0.061430047176287424  0.6103610239507731  1.0000
  H   H17       1.0  0.8263587456697222  0.8354373792104968  0.21453620404899712  1.0000
  H   H18       1.0  0.32635813767676314  0.664563822486173  0.2854643419322542  1.0000
  H   H19       1.0  0.1736368685011769  0.16455760076657813  0.7854609563348518  1.0000
  H   H20       1.0  0.673637476480522  0.3354395405292723  0.7145398151261871  1.0000
  H   H21       1.0  0.11383954298115379  0.8670159606304966  0.240545921730849  1.0000
  H   H22       1.0  0.6138390552023832  0.6329807576314865  0.259455493588348  1.0000
  H   H23       1.0  0.8861586773067242  0.1329802114398363  0.7594512799288325  1.0000
  H   H24       1.0  0.3861578620157217  0.3670202211931439  0.7405485809154299  1.0000
  C   C1        1.0  0.5689388919340175  0.5308263127699961  0.9596358529854571  1.0000
  C   C2        1.0  0.0689357396518773  0.9691738923897835  0.5403630481640889  1.0000
  C   C3        1.0  0.4310710558778366  0.4691805785540028  0.04036004322827581  1.0000
  C   C4        1.0  0.9310716020443479  0.030819929061429722  0.4596399402057614  1.0000
  C   C5        1.0  0.485960714865861  0.9726564928449407  0.060397787696281624  1.0000
  C   C6        1.0  0.9859587022817419  0.5273456761658865  0.4396001369814542  1.0000
  C   C7        1.0  0.5140401115322888  0.027353965176608607  0.939596555418909  1.0000
  C   C8        1.0  0.014038214944704898  0.47264576110224993  0.5604027688391398  1.0000
  O   O1        1.0  0.7173703830998048  0.4685499749060187  0.9603950411492334  1.0000
  O   O2        1.0  0.2173678850512033  0.03144232597119161  0.5396030094745328  1.0000
  O   O3        1.0  0.2826382616688007  0.5314402126991029  0.039597761785877615  1.0000
  O   O4        1.0  0.7826368505188127  0.9685598497399613  0.46040194476958624  1.0000
  O   O5        1.0  0.5178029318352344  0.6415234112014403  0.897897778792789  1.0000
  O   O6        1.0  0.017799814620175897  0.8584792647438563  0.6021046059346276  1.0000
  O   O7        1.0  0.4822109251518965  0.35847874052023354  0.10210298311253042  1.0000
  O   O8        1.0  0.9822075270741379  0.14151812819559956  0.39789766779939845  1.0000
  O   O9        1.0  0.585612768916576  0.03420673990520132  0.1355554133589791  1.0000
  O   O10       1.0  0.08561024246450437  0.4658025629729111  0.3644443391206664  1.0000
  O   O11       1.0  0.4143880574743902  0.9658061310864459  0.8644440431118029  1.0000
  O   O12       1.0  0.9143866747637187  0.5341888647018396  0.6355568897660859  1.0000
  O   O13       1.0  0.36676085065296593  0.8721328839627847  0.07478552944952101  1.0000
  O   O14       1.0  0.8667574154169556  0.6278718455582112  0.4252159415733701  1.0000
  O   O15       1.0  0.633245187971859  0.12788474581194723  0.9252124151931441  1.0000
  O   O16       1.0  0.13324080487301157  0.3721160058307549  0.5747851634816854  1.0000
  O   O17       1.0  0.9684358360013546  0.057972499144952415  0.1349907619554145  1.0000
  O   O18       1.0  0.46843464685975517  0.44202677191807294  0.36500998421256275  1.0000
  O   O19       1.0  0.0315597781677255  0.9420236777237891  0.8650072781723922  1.0000
  O   O20       1.0  0.5315622703583499  0.5579742069065647  0.6349940902912081  1.0000
  O   O21       1.0  0.011928872460536899  0.7621143759987989  0.06092416016822001  1.0000
  O   O22       1.0  0.5119291531917796  0.7378848559973579  0.4390765932169174  1.0000
  O   O23       1.0  0.9880693478256147  0.23788061836663849  0.9390755156151869  1.0000
  O   O24       1.0  0.4880703701468433  0.2621172957337593  0.5609241686950099  1.0000
  O   O25       1.0  0.7387166599718141  0.2722562941779358  0.2746709716026245  1.0000
  O   O26       1.0  0.23871608437610797  0.22774565430331975  0.2253283920258369  1.0000
  O   O27       1.0  0.2612815603096336  0.7277458479606553  0.7253281133760582  1.0000
  O   O28       1.0  0.7612808328473618  0.772254108442873  0.7746714488663073  1.0000
  O   O29       1.0  0.9349429864284245  0.471039806733046  0.15144959976632322  1.0000
  O   O30       1.0  0.434942447804012  0.0289595036840424  0.34855033882058706  1.0000
  O   O31       1.0  0.0650552338539967  0.528959956012294  0.8485502411252172  1.0000
  O   O32       1.0  0.5650531663605064  0.9710402590630098  0.651449502072154  1.0000
