data_image0
_chemical_formula_structural       Ag10H24C44N4O20F24
_chemical_formula_sum              "Ag10 H24 C44 N4 O20 F24"
_cell_length_a       11.308740916055234
_cell_length_b       11.624900891852187
_cell_length_c       14.126475718984953
_cell_angle_alpha    96.22166531688916
_cell_angle_beta     105.28703598632003
_cell_angle_gamma    116.02529523660877

_space_group_name_H-M_alt    "P 1"
_space_group_IT_number       1

loop_
  _space_group_symop_operation_xyz
  'x, y, z'

loop_
  _atom_site_type_symbol
  _atom_site_label
  _atom_site_symmetry_multiplicity
  _atom_site_fract_x
  _atom_site_fract_y
  _atom_site_fract_z
  _atom_site_occupancy
  Ag  Ag1       1.0  0.8204822881471117  0.47728921282867276  0.5779121634692148  1.0000
  Ag  Ag2       1.0  0.17951574237710582  0.5227103412117201  0.42208334143703763  1.0000
  Ag  Ag3       1.0  0.5841377777608372  0.4432145769128154  0.4131099520936345  1.0000
  Ag  Ag4       1.0  0.41586195903906975  0.5567829899456951  0.586891403067746  1.0000
  Ag  Ag5       1.0  0.9444334620533112  0.3609182304678668  0.48382966858031307  1.0000
  Ag  Ag6       1.0  0.05556555427398265  0.6390832903031834  0.5161711780678148  1.0000
  Ag  Ag7       1.0  0.6498381181180263  0.22283581794370375  0.43158215612372436  1.0000
  Ag  Ag8       1.0  0.3501622321513338  0.7771647221006787  0.5684181800809186  1.0000
  Ag  Ag9       1.0  0.5680796384305182  0.032799944114650294  0.8012813124806899  1.0000
  Ag  Ag10      1.0  0.4319182736674134  0.9671976211900526  0.19871752885964614  1.0000
  H   H1        1.0  0.7403796190792491  0.6801145885343657  0.6525888841436116  1.0000
  H   H2        1.0  0.2596197068377179  0.3198839652519822  0.34741247140381404  1.0000
  H   H3        1.0  0.8854113718675264  0.742196478505775  0.632563982019974  1.0000
  H   H4        1.0  0.11458805534270056  0.25780405533743067  0.3674368642421086  1.0000
  H   H5        1.0  0.3803556379624594  0.971333574291826  0.3947243721733926  1.0000
  H   H6        1.0  0.6196422655689632  0.028663986673457494  0.6052758827413102  1.0000
  H   H7        1.0  0.4893440593195421  0.9237331012704498  0.39739201898175486  1.0000
  H   H8        1.0  0.5106552708806902  0.07626545468560406  0.6026086297784872  1.0000
  H   H9        1.0  0.8010912900992436  0.6812908813570289  0.27151662026383866  1.0000
  H   H10       1.0  0.1989104911221844  0.3187106558478447  0.7284834029991532  1.0000
  H   H11       1.0  0.75695765062283  0.69672990085688  0.09267524176777192  1.0000
  H   H12       1.0  0.2430414884140077  0.30327361081957344  0.9073215616590815  1.0000
  H   H13       1.0  0.6762659508001362  0.4973856814772687  0.953514375407636  1.0000
  H   H14       1.0  0.32373306981040856  0.5026158414634875  0.04648576445330827  1.0000
  H   H15       1.0  0.6722163616981192  0.26639017677014454  0.17392425355438956  1.0000
  H   H16       1.0  0.3277850043571177  0.7336123451928598  0.8260764768818307  1.0000
  H   H17       1.0  0.9259257423274858  0.6765281402932072  0.7793799788562483  1.0000
  H   H18       1.0  0.07407084011163786  0.3234704079078624  0.22061866614039627  1.0000
  H   H19       1.0  0.01464384057385361  0.7000736290455548  0.9628807236634105  1.0000
  H   H20       1.0  0.985362233503778  0.2999308996407705  0.0371183607746275  1.0000
  H   H21       1.0  0.9149752063326559  0.2880842634920028  0.8902681950260886  1.0000
  H   H22       1.0  0.08502656203899749  0.7119172672037377  0.10973394859846049  1.0000
  H   H23       1.0  0.8273972172496328  0.2824615327247599  0.7096975322111306  1.0000
  H   H24       1.0  0.17260311588670152  0.7175389986407906  0.2903056311422532  1.0000
  C   C1        1.0  0.7988176166258609  0.44382525366244585  0.4232814554566816  1.0000
  C   C2        1.0  0.20118262664033168  0.5561822134803476  0.5767173532779638  1.0000
  C   C3        1.0  0.7591349658901901  0.4624808966450756  0.3369444240416044  1.0000
  C   C4        1.0  0.24086874989298213  0.5375226265098758  0.663056190182708  1.0000
  C   C5        1.0  0.7374637453285686  0.47317751444246864  0.2347655279993077  1.0000
  C   C6        1.0  0.26253825132914693  0.5268279893852464  0.7652313563314268  1.0000
  C   C7        1.0  0.7622385614578704  0.5944137729607916  0.21050461388669822  1.0000
  C   C8        1.0  0.23776057329570216  0.40558973654594865  0.7894928963273459  1.0000
  C   C9        1.0  0.7387767968137453  0.6026667477119573  0.11018103339161915  1.0000
  C   C10       1.0  0.26122050038807737  0.3973367537318494  0.8898160833629307  1.0000
  C   C11       1.0  0.6940175495107113  0.4924371359802534  0.0323008671444924  1.0000
  C   C12       1.0  0.30598106878341713  0.5075653782277597  0.9676978595281301  1.0000
  C   C13       1.0  0.6739310825090356  0.3731062504234969  0.057316447672654605  1.0000
  C   C14       1.0  0.32606978850303386  0.6268952870893186  0.9426819652862195  1.0000
  C   C15       1.0  0.6922744820406734  0.3609074459618497  0.15687301648177512  1.0000
  C   C16       1.0  0.30772964890869037  0.6390950924349708  0.8431268905693019  1.0000
  C   C17       1.0  0.6191483087250589  0.17949782917960277  0.9176350058333612  1.0000
  C   C18       1.0  0.38084992152906944  0.8204967734798173  0.08236293083189852  1.0000
  C   C19       1.0  0.9252145319510632  0.592995023357602  0.8075720964933383  1.0000
  C   C20       1.0  0.07478674137743005  0.40700552288795666  0.19242772965385774  1.0000
  C   C21       1.0  0.9750666310516607  0.6047734760400585  0.9108934708058315  1.0000
  C   C22       1.0  0.024938418673578145  0.39522906638823213  0.089106632974989  1.0000
  C   C23       1.0  0.973700688740422  0.4955665616533621  0.945278974725106  1.0000
  C   C24       1.0  0.026306299829819607  0.5044379688947201  0.054721013229865924  1.0000
  C   C25       1.0  0.9197482588920776  0.37762837266360083  0.8708102806933982  1.0000
  C   C26       1.0  0.0802563713837116  0.6223751523531147  0.1291912370478485  1.0000
  C   C27       1.0  0.8710608530353877  0.37313194610383243  0.7687609992302172  1.0000
  C   C28       1.0  0.1289390777845154  0.6268695765289675  0.23124075093483748  1.0000
  C   C29       1.0  0.36240374453724666  0.21852844254282636  0.22198777493124316  1.0000
  C   C30       1.0  0.6375960892726623  0.7814711022028289  0.7780137777319711  1.0000
  C   C31       1.0  0.24920296880176093  0.15264243275743178  0.11302273714439791  1.0000
  C   C32       1.0  0.750795535349333  0.8473580948845976  0.8869786191751247  1.0000
  C   C33       1.0  0.4828563557469394  0.29269206169082196  0.5763943790301697  1.0000
  C   C34       1.0  0.51714093431503  0.7073025260885825  0.4236068948412779  1.0000
  C   C35       1.0  0.39772991826354337  0.25919464491937555  0.6490630841164845  1.0000
  C   C36       1.0  0.6022653402266724  0.7407959790227918  0.35093740129179457  1.0000
  C   C37       1.0  0.8755214451925325  0.13389334633680505  0.5863352213283335  1.0000
  C   C38       1.0  0.1244773856812741  0.8661042229993611  0.41366381674174596  1.0000
  C   C39       1.0  0.907531408426493  0.04633434080927399  0.6536973560213896  1.0000
  C   C40       1.0  0.09246457339295223  0.9536612407150499  0.346300187570435  1.0000
  C   C41       1.0  0.8074873375514925  0.13795036832243565  0.2766270927207374  1.0000
  C   C42       1.0  0.1925171785812693  0.8620511701282961  0.7233770546674096  1.0000
  C   C43       1.0  0.79759234977233  0.05275803818851437  0.17819757018330762  1.0000
  C   C44       1.0  0.20241228050345927  0.9472454868282013  0.8218039475579318  1.0000
  N   N1        1.0  0.63973047286742  0.26632545582984324  0.9818845562284084  1.0000
  N   N2        1.0  0.36027100304758614  0.7336790505294316  0.018114251348102114  1.0000
  N   N3        1.0  0.874204497776226  0.47933516643711715  0.7370311763797589  1.0000
  N   N4        1.0  0.125795445893452  0.5206663627048157  0.2629684534237455  1.0000
  O   O1        1.0  0.787516151780636  0.6701604972769527  0.6053911853921505  1.0000
  O   O2        1.0  0.21248369059578912  0.3298390518081219  0.39460895369669663  1.0000
  O   O3        1.0  0.3690596437766871  0.3197283230498157  0.27124680665027523  1.0000
  O   O4        1.0  0.6309392712573468  0.6802712176643695  0.7287545492832024  1.0000
  O   O5        1.0  0.43983866264664334  0.16757104020143024  0.2476008233186208  1.0000
  O   O6        1.0  0.560161179729782  0.8324285088836444  0.7523993157702265  1.0000
  O   O7        1.0  0.4607848100722975  0.9872074022679624  0.37141503617659316  1.0000
  O   O8        1.0  0.5392150237376114  0.012792142477699997  0.6285865164866282  1.0000
  O   O9        1.0  0.5047687080646027  0.3995114374931955  0.5516971350104001  1.0000
  O   O10       1.0  0.49522950933975096  0.6004831586570987  0.4483029220164172  1.0000
  O   O11       1.0  0.5210332584652306  0.2113054331179568  0.5508162071052638  1.0000
  O   O12       1.0  0.47896555527554335  0.7886921275393702  0.4491856581135637  1.0000
  O   O13       1.0  0.9816885582142587  0.22192876822554541  0.5746999949930471  1.0000
  O   O14       1.0  0.018309345317156556  0.7780687927397307  0.4253002599216559  1.0000
  O   O15       1.0  0.7499961707337162  0.11081411917849238  0.5555604241532848  1.0000
  O   O16       1.0  0.25000358319922333  0.8891834563588498  0.4444381038593478  1.0000
  O   O17       1.0  0.9294501974336384  0.2167292862597137  0.3385136097729316  1.0000
  O   O18       1.0  0.07055566120770602  0.7832712758037699  0.6614886135973492  1.0000
  O   O19       1.0  0.6920545480024954  0.12132543647683038  0.2817546836627969  1.0000
  O   O20       1.0  0.30794895662764765  0.8786741222249856  0.7182483627065823  1.0000
  F   F1        1.0  0.1751152559331146  0.018300776635129492  0.09430923350548431  1.0000
  F   F2        1.0  0.8248832525012372  0.9816997531766056  0.9056914160268548  1.0000
  F   F3        1.0  0.3141949137918303  0.18044725560304894  0.042740539416534794  1.0000
  F   F4        1.0  0.6858039969589456  0.8195522829414299  0.9572615233041263  1.0000
  F   F5        1.0  0.15491210178848994  0.1974997562435802  0.0949117531150563  1.0000
  F   F6        1.0  0.8450873254217369  0.8025007775996259  0.9050890931470263  1.0000
  F   F7        1.0  0.2722375290280752  0.2543783635835196  0.6082273992206526  1.0000
  F   F8        1.0  0.7277573314289824  0.7456132537956177  0.3917709662121213  1.0000
  F   F9        1.0  0.3714317667227646  0.14083050723863266  0.6694749365165862  1.0000
  F   F10       1.0  0.6285668572812639  0.8591630998141112  0.3305258269113694  1.0000
  F   F11       1.0  0.4700785660442577  0.3538547098236363  0.7400529165458353  1.0000
  F   F12       1.0  0.5299158792466014  0.646137892313632  0.2599461560601668  1.0000
  F   F13       1.0  0.7901868084989303  0.9322571285573532  0.6433529113169104  1.0000
  F   F14       1.0  0.20980765820821284  0.06773548442846078  0.3566426273531675  1.0000
  F   F15       1.0  0.0009947073334330985  0.013256273944286096  0.6340013090460275  1.0000
  F   F16       1.0  0.9990037169406916  0.9867422844894304  0.36599702262291345  1.0000
  F   F17       1.0  0.9635806345023069  0.11529873560550637  0.7542684013511548  1.0000
  F   F18       1.0  0.03641442854126341  0.8846968418873471  0.24572894551091912  1.0000
  F   F19       1.0  0.724046786446024  0.9207548875487387  0.16930837079426203  1.0000
  F   F20       1.0  0.2759578481130234  0.07924863963768299  0.8306924401597939  1.0000
  F   F21       1.0  0.9252715158928806  0.07908664917594169  0.17332308081639516  1.0000
  F   F22       1.0  0.07473118838767316  0.920914894230101  0.8266764323891566  1.0000
  F   F23       1.0  0.7298505087895181  0.07848157463893558  0.09431314617062019  1.0000
  F   F24       1.0  0.2701522753680122  0.9215219379754201  0.9056893916855063  1.0000
