data_image0
_chemical_formula_structural       Cu2H24C28N16Cl4
_chemical_formula_sum              "Cu2 H24 C28 N16 Cl4"
_cell_length_a       8.831365433182375
_cell_length_b       9.615204584948554
_cell_length_c       10.229083658339183
_cell_angle_alpha    91.80435046302546
_cell_angle_beta     105.32299985215074
_cell_angle_gamma    100.78507888045469

_space_group_name_H-M_alt    "P 1"
_space_group_IT_number       1

loop_
  _space_group_symop_operation_xyz
  'x, y, z'

loop_
  _atom_site_type_symbol
  _atom_site_label
  _atom_site_symmetry_multiplicity
  _atom_site_fract_x
  _atom_site_fract_y
  _atom_site_fract_z
  _atom_site_occupancy
  Cu  Cu1       1.0  0.6809603974776338  0.6267396677618323  0.1323291924411906  1.0000
  Cu  Cu2       1.0  0.3190338280787087  0.3732619214196832  0.8676697260692665  1.0000
  H   H1        1.0  0.5868290763708545  0.30229722432708434  0.14546524103292316  1.0000
  H   H2        1.0  0.4131660647548827  0.6977033138610481  0.85453188731821  1.0000
  H   H3        1.0  0.7336893069828105  0.09813421391912412  0.16670519618224938  1.0000
  H   H4        1.0  0.26630817973595805  0.9018662960403672  0.8332934371805935  1.0000
  H   H5        1.0  0.028552045463804604  0.151710260115081  0.19798094709893382  1.0000
  H   H6        1.0  0.9714471259931585  0.8482923248714584  0.8020220576520816  1.0000
  H   H7        1.0  0.1675096452621148  0.4046264254659135  0.19032701893761586  1.0000
  H   H8        1.0  0.8324876950560592  0.5953782615073918  0.8096795661320473  1.0000
  H   H9        1.0  0.2796331691298733  0.6865736112616362  0.18205624168039955  1.0000
  H   H10       1.0  0.7203636684593704  0.3134289301651235  0.8179521014831792  1.0000
  H   H11       1.0  0.19308193912895177  0.04210700096283661  0.07338255419242763  1.0000
  H   H12       1.0  0.8069178898327537  0.9578935012790026  0.9266156289180574  1.0000
  H   H13       1.0  0.3475122518708956  0.9422712232071007  0.10749388028069262  1.0000
  H   H14       1.0  0.6524847270938068  0.05772717197231  0.892503578279943  1.0000
  H   H15       1.0  0.5671524800491666  0.07038875315389959  0.2813161790047759  1.0000
  H   H16       1.0  0.4328437314217766  0.9296065057495895  0.7186760956404117  1.0000
  H   H17       1.0  0.6731357819920519  0.22213303170357077  0.5038815267809796  1.0000
  H   H18       1.0  0.3268690460323  0.7778589677539713  0.4961125616276477  1.0000
  H   H19       1.0  0.4766643098213023  0.2766770527381368  0.6271791011768073  1.0000
  H   H20       1.0  0.5233443870582732  0.7233212628310286  0.3728200166501666  1.0000
  H   H21       1.0  0.029557388816634497  0.14883266387844427  0.4721259470277489  1.0000
  H   H22       1.0  0.9704485546545879  0.8511688456928185  0.5278746307490394  1.0000
  H   H23       1.0  0.1507269307395589  0.10776327901997008  0.6295525909498424  1.0000
  H   H24       1.0  0.8492777458590625  0.8922329282178512  0.37044651626948183  1.0000
  C   C1        1.0  0.7148230959311732  0.3186121618122542  0.15553313920312925  1.0000
  C   C2        1.0  0.285172970814223  0.6813872638495654  0.8444680647809123  1.0000
  C   C3        1.0  0.7974859056710953  0.2074217237651794  0.16948554342954483  1.0000
  C   C4        1.0  0.20250948849415104  0.7925798769407423  0.8305116835066715  1.0000
  C   C5        1.0  0.9618172197920671  0.23713044555051976  0.18333788638082646  1.0000
  C   C6        1.0  0.03817960942195242  0.7628721471536865  0.816665568622547  1.0000
  C   C7        1.0  0.03926239915190171  0.37678950490614943  0.18098013653126094  1.0000
  C   C8        1.0  0.9607323358335547  0.6232141887999632  0.8190209344134447  1.0000
  C   C9        1.0  0.9484086092794969  0.48245438918170447  0.16423128985177027  1.0000
  C   C10       1.0  0.0515865435715526  0.5175460772180074  0.8357726819236436  1.0000
  C   C11       1.0  0.011481813189121214  0.6309155915734762  0.15444853034242814  1.0000
  C   C12       1.0  0.9885124240925406  0.36908592581962557  0.8455572315923094  1.0000
  C   C13       1.0  0.16165972051232563  0.7127694401873371  0.16557458196952274  1.0000
  C   C14       1.0  0.8383366026226753  0.2872310274812904  0.8344286758636914  1.0000
  C   C15       1.0  0.25255782382679126  0.9735833902936406  0.14543780882555526  1.0000
  C   C16       1.0  0.7474436848479725  0.0264192177417115  0.8545618127769715  1.0000
  C   C17       1.0  0.32196933356508584  0.0501675996731521  0.28633606694346986  1.0000
  C   C18       1.0  0.6780298278415983  0.9498350468463242  0.7136610720152989  1.0000
  C   C19       1.0  0.4871037277933468  0.0986950102649757  0.33758986799583124  1.0000
  C   C20       1.0  0.5128950806350902  0.9013012931831528  0.6624030326141084  1.0000
  C   C21       1.0  0.5450355565874644  0.18126462730516826  0.4615762154124  1.0000
  C   C22       1.0  0.45496894848489683  0.8187359107787913  0.5384161790331491  1.0000
  C   C23       1.0  0.43704058833658616  0.2109902925761347  0.5307976365770202  1.0000
  C   C24       1.0  0.5629660109643381  0.7890091445059115  0.4691971419271966  1.0000
  C   C25       1.0  0.2738713911334685  0.15307269099643148  0.47417459629926395  1.0000
  C   C26       1.0  0.7261327111487006  0.8469309820945342  0.52582369600394  1.0000
  C   C27       1.0  0.1491456273156899  0.1759860398142976  0.5451839178199692  1.0000
  C   C28       1.0  0.8508590543080743  0.8240101366570587  0.45481812229547824  1.0000
  N   N1        1.0  0.7886504984659197  0.4531272721915798  0.15300508769792034  1.0000
  N   N2        1.0  0.2113458229940406  0.5468732057325383  0.8469971925032528  1.0000
  N   N3        1.0  0.9041384882422887  0.7189992670515295  0.12540893705868683  1.0000
  N   N4        1.0  0.095858339296683  0.2810033359081601  0.8745935403126526  1.0000
  N   N5        1.0  0.9771627692324429  0.8493377712407266  0.11811457777843523  1.0000
  N   N6        1.0  0.022832628282891707  0.1506638089542136  0.8818846044218565  1.0000
  N   N7        1.0  0.13371902909946703  0.845069913623604  0.14243272188411996  1.0000
  N   N8        1.0  0.866276366740827  0.154931676826827  0.8575654826841375  1.0000
  N   N9        1.0  0.21740638781768237  0.074602797764733  0.35423194417249  1.0000
  N   N10       1.0  0.7825964509419735  0.9253955524818097  0.6457668328373318  1.0000
  N   N11       1.0  0.1785865692462423  0.3211540127344464  0.6098800521702474  1.0000
  N   N12       1.0  0.8214186268317646  0.6788442374950419  0.3901270732755719  1.0000
  N   N13       1.0  0.17849947704524988  0.42130307820592344  0.5381946471408413  1.0000
  N   N14       1.0  0.8215104734311112  0.5786855554440321  0.46181317317824994  1.0000
  N   N15       1.0  0.18261714124248843  0.526028164167883  0.48661388374406317  1.0000
  N   N16       1.0  0.8173980813120209  0.4739679724462604  0.5133866190517582  1.0000
  Cl  Cl1       1.0  0.5932291984346207  0.8332556553054644  0.11165663441281741  1.0000
  Cl  Cl2       1.0  0.4067652717860141  0.16674704767127924  0.8883374945225245  1.0000
  Cl  Cl3       1.0  0.4497986000311442  0.5040459333550517  0.16589847888432274  1.0000
  Cl  Cl4       1.0  0.5501948563563984  0.49595252980603294  0.8340942780786453  1.0000
