data_image0
_chemical_formula_structural       Cd2H12C20N24
_chemical_formula_sum              "Cd2 H12 C20 N24"
_cell_length_a       6.512670861348711
_cell_length_b       6.512680827369516
_cell_length_c       17.050618233167132
_cell_angle_alpha    101.00755066869678
_cell_angle_beta     101.00742472986468
_cell_angle_gamma    89.98809729344819

_space_group_name_H-M_alt    "P 1"
_space_group_IT_number       1

loop_
  _space_group_symop_operation_xyz
  'x, y, z'

loop_
  _atom_site_type_symbol
  _atom_site_label
  _atom_site_symmetry_multiplicity
  _atom_site_fract_x
  _atom_site_fract_y
  _atom_site_fract_z
  _atom_site_occupancy
  Cd  Cd1       1.0  0.12501497201233747  0.8749857106330337  0.24999993638626716  1.0000
  Cd  Cd2       1.0  0.874984631661235  0.12501629761075608  0.7500002150297364  1.0000
  H   H1        1.0  0.24033107313324112  0.8215897364139976  0.48069131163618556  1.0000
  H   H2        1.0  0.1589288352507197  0.2402752323699815  0.9806987847234936  1.0000
  H   H3        1.0  0.8215889601748148  0.24033103298937422  0.9806910060045058  1.0000
  H   H4        1.0  0.8410736653593958  0.7597205181511767  0.0193022958754128  1.0000
  H   H5        1.0  0.24027562394955035  0.15893090689012  0.48069831177950567  1.0000
  H   H6        1.0  0.7597239780351118  0.8410710996628835  0.519301252901677  1.0000
  H   H7        1.0  0.7596685305403312  0.17841227182979214  0.5193088397798179  1.0000
  H   H8        1.0  0.17841377031291472  0.7596709738680403  0.01930878564227359  1.0000
  H   H9        1.0  0.28020269232636963  0.5302101882176941  0.5605792588171356  1.0000
  H   H10       1.0  0.5302083256475641  0.2802036737297939  0.0605790504559636  1.0000
  H   H11       1.0  0.4697943494819016  0.7197967711570286  0.939421796847377  1.0000
  H   H12       1.0  0.7197952883595847  0.4697902545217401  0.4394206613029823  1.0000
  C   C1        1.0  0.121263177291425  0.3713547377036546  0.24280336184870066  1.0000
  C   C2        1.0  0.37135289270126043  0.1212629411468811  0.742803120181236  1.0000
  C   C3        1.0  0.6286467109723192  0.8787390670969089  0.2571970312347673  1.0000
  C   C4        1.0  0.8787364263821477  0.628647270540135  0.7571967895673027  1.0000
  C   C5        1.0  0.16575069322032482  0.4157975375390917  0.3317436256375288  1.0000
  C   C6        1.0  0.4157967486822401  0.16575113178082992  0.8317435095483604  1.0000
  C   C7        1.0  0.5842043605067816  0.8342493112630076  0.168256637537354  1.0000
  C   C8        1.0  0.8342489104532477  0.5842044707046979  0.6682565257784745  1.0000
  C   C9        1.0  0.22501039612097878  0.6579573301941438  0.45013981207738146  1.0000
  C   C10       1.0  0.29203967639383427  0.22502292551457262  0.9501499743530176  1.0000
  C   C11       1.0  0.6579553263693259  0.22501016107715088  0.9501388865024866  1.0000
  C   C12       1.0  0.707962765480197  0.7749712596544284  0.04985098843280872  1.0000
  C   C13       1.0  0.22502382966755624  0.29204178932223357  0.45015019783490123  1.0000
  C   C14       1.0  0.7749757740060161  0.7079602189215561  0.5498499535811021  1.0000
  C   C15       1.0  0.7749891488165019  0.34204311269749604  0.5498602215255417  1.0000
  C   C16       1.0  0.34204421519033457  0.7749902784329166  0.04985997363078098  1.0000
  C   C17       1.0  0.2470956674344933  0.4970743959677151  0.49425587594139847  1.0000
  C   C18       1.0  0.49707385722918224  0.2470952935028521  0.9942557190889333  1.0000
  C   C19       1.0  0.5029286416920158  0.7529004553275128  0.0057447747751452815  1.0000
  C   C20       1.0  0.7529038775029875  0.5029260469239247  0.5057441576615176  1.0000
  N   N1        1.0  0.09791829359142672  0.5167879650030969  0.19597963791125753  1.0000
  N   N2        1.0  0.17914061879687895  0.0979057827379677  0.6959678406878924  1.0000
  N   N3        1.0  0.516787645586888  0.0979181538644838  0.6959794345474111  1.0000
  N   N4        1.0  0.8208589261406088  0.9020946601536721  0.304032192915031  1.0000
  N   N5        1.0  0.09790587448103592  0.17914287006761498  0.1959680219577535  1.0000
  N   N6        1.0  0.9020937291925365  0.8208591381761748  0.8040321294582498  1.0000
  N   N7        1.0  0.9020812513460613  0.48321247788854294  0.8040203956916587  1.0000
  N   N8        1.0  0.48321189935059294  0.9020822890271486  0.3040205990555052  1.0000
  N   N9        1.0  0.05926110398957011  0.4107642308011137  0.11847497014993989  1.0000
  N   N10       1.0  0.20772845643873697  0.05925331466927019  0.6184674050400006  1.0000
  N   N11       1.0  0.41076462723744106  0.05926193921015249  0.6184743346235495  1.0000
  N   N12       1.0  0.792271088498744  0.9407471282223696  0.3815326285629155  1.0000
  N   N13       1.0  0.0592529032712008  0.2077295786845212  0.11846808601629992  1.0000
  N   N14       1.0  0.9407467020912892  0.7922724312500475  0.8815326521345243  1.0000
  N   N15       1.0  0.9407368783852947  0.5892362136291067  0.8815255367050057  1.0000
  N   N16       1.0  0.589234917700047  0.940738503681487  0.3815256989793668  1.0000
  N   N17       1.0  0.18420171166462038  0.6184306495499569  0.36853834011571257  1.0000
  N   N18       1.0  0.24996874434838656  0.184192727778921  0.86854946984856  1.0000
  N   N19       1.0  0.618429715111951  0.1842015865452566  0.8685374994860526  1.0000
  N   N20       1.0  0.750032250746287  0.8158045879421819  0.13145161508062841  1.0000
  N   N21       1.0  0.18419213466491163  0.249970392440936  0.3685495504147128  1.0000
  N   N22       1.0  0.815807469008668  0.7500316158028466  0.6314506010012906  1.0000
  N   N23       1.0  0.815797892008952  0.381571358693833  0.6314618113002908  1.0000
  N   N24       1.0  0.38157139238815324  0.8157988548078022  0.13146206086484113  1.0000
