data_image0
_chemical_formula_structural       Sr2H16C28S4O18
_chemical_formula_sum              "Sr2 H16 C28 S4 O18"
_cell_length_a       5.289766179920973
_cell_length_b       10.321943475405572
_cell_length_c       14.558442117095895
_cell_angle_alpha    104.03375687711808
_cell_angle_beta     100.13202840936484
_cell_angle_gamma    96.88999193457738

_space_group_name_H-M_alt    "P 1"
_space_group_IT_number       1

loop_
  _space_group_symop_operation_xyz
  'x, y, z'

loop_
  _atom_site_type_symbol
  _atom_site_label
  _atom_site_symmetry_multiplicity
  _atom_site_fract_x
  _atom_site_fract_y
  _atom_site_fract_z
  _atom_site_occupancy
  Sr  Sr1       1.0  0.15743244109943083  0.7388252818945064  0.9769389182509868  1.0000
  Sr  Sr2       1.0  0.8425575130910302  0.26116996513531643  0.0230615162058001  1.0000
  H   H1        1.0  0.8317633068722119  0.30793148229803796  0.757011760565213  1.0000
  H   H2        1.0  0.1682390913035192  0.6920668779213842  0.2429872423080042  1.0000
  H   H3        1.0  0.9063935965080034  0.2917304519307109  0.5905751431670581  1.0000
  H   H4        1.0  0.09359481767909017  0.7082596882409149  0.4094188368966911  1.0000
  H   H5        1.0  0.2868823904660402  0.5804100903076943  0.7177488261535458  1.0000
  H   H6        1.0  0.7130895706995871  0.4195829038746979  0.28223840750483475  1.0000
  H   H7        1.0  0.9257733037191755  0.7950891500069376  0.7327786259243466  1.0000
  H   H8        1.0  0.0742260069160992  0.2049052072045612  0.2672284351860839  1.0000
  H   H9        1.0  0.9495794328895215  0.7988480890363905  0.5649932217958664  1.0000
  H   H10       1.0  0.050432522992736  0.20115647391949662  0.43501567747659914  1.0000
  H   H11       1.0  0.334654004591492  0.0508635027122892  0.7281523066451995  1.0000
  H   H12       1.0  0.6653662496772126  0.9491431390735058  0.271856096889337  1.0000
  H   H13       1.0  0.7578091227144483  0.7575374547006533  0.11437528108680786  1.0000
  H   H14       1.0  0.24218486170932607  0.24246488573938765  0.8856245452473103  1.0000
  H   H15       1.0  0.8381653709426617  0.9032038990136616  0.10774416478496816  1.0000
  H   H16       1.0  0.1618517095201568  0.0967986184378589  0.8922557855465314  1.0000
  C   C1        1.0  0.5566733900390375  0.4460580388112875  0.7469588856269381  1.0000
  C   C2        1.0  0.44330792397700947  0.5539340604975039  0.2530342867084059  1.0000
  C   C3        1.0  0.7303637609971007  0.36388352487202275  0.7118967743243658  1.0000
  C   C4        1.0  0.2696140083250143  0.6361095615882493  0.2880970261117852  1.0000
  C   C5        1.0  0.7714961195774919  0.3548438833195108  0.6188652029220094  1.0000
  C   C6        1.0  0.22848265388710587  0.6451461586635574  0.38112540025555564  1.0000
  C   C7        1.0  0.6386685047283721  0.4263753672234501  0.561016874530516  1.0000
  C   C8        1.0  0.3613072498341765  0.5736045469827218  0.43897251546448496  1.0000
  C   C9        1.0  0.46073900339666823  0.506109900205324  0.596522464340211  1.0000
  C   C10       1.0  0.5392324722295712  0.4938750134153693  0.40346474934001714  1.0000
  C   C11       1.0  0.42057573395187114  0.5162500767482713  0.690212014394305  1.0000
  C   C12       1.0  0.579407602726711  0.4837359538271714  0.3097775153305733  1.0000
  C   C13       1.0  0.6868506582177148  0.41859029161772565  0.46279193679378483  1.0000
  C   C14       1.0  0.31312384709375607  0.5814047649456597  0.5371985539990404  1.0000
  C   C15       1.0  0.6242675434173179  0.919755671015864  0.740037371198042  1.0000
  C   C16       1.0  0.37574542739059774  0.08024586262861531  0.2599703947458636  1.0000
  C   C17       1.0  0.7991615832385435  0.8496630862302013  0.6946258430512272  1.0000
  C   C18       1.0  0.2008450144519074  0.15033638417786932  0.30538254362650724  1.0000
  C   C19       1.0  0.8151466032881345  0.8532014302529589  0.6009648203357115  1.0000
  C   C20       1.0  0.18486656159269899  0.1468071858357902  0.3990448394004531  1.0000
  C   C21       1.0  0.6585826864953503  0.9254348585423247  0.5520331271345924  1.0000
  C   C22       1.0  0.3414318850513638  0.07458489817882712  0.4479798748341893  1.0000
  C   C23       1.0  0.48396800707384807  0.9963661462865119  0.5983601428348492  1.0000
  C   C24       1.0  0.5160482956689378  0.003646543583869299  0.4016510903375803  1.0000
  C   C25       1.0  0.4677186740577781  0.9936270090601056  0.6929345898542607  1.0000
  C   C26       1.0  0.5323050347000943  0.0063847400115903995  0.3070783291391734  1.0000
  C   C27       1.0  0.6825791966738065  0.9253324464243561  0.4517849945003149  1.0000
  C   C28       1.0  0.3174574380143298  0.07469049134336812  0.5482258249110217  1.0000
  S   S1        1.0  0.5247841254323403  0.47179166721174687  0.869224330252564  1.0000
  S   S2        1.0  0.4752063793415148  0.5282055305555389  0.13076616478591768  1.0000
  S   S3        1.0  0.6060486249639112  0.9139965054974443  0.8602420883234103  1.0000
  S   S4        1.0  0.3939554393638787  0.0860009176954364  0.1397651051498983  1.0000
  O   O1        1.0  0.9098807063353788  0.8211658206951287  0.11168113459953587  1.0000
  O   O2        1.0  0.0901220084675671  0.17883357302856956  0.8883208102963138  1.0000
  O   O3        1.0  0.269219688991825  0.5103462775428724  0.8749659834255753  1.0000
  O   O4        1.0  0.7307702328491033  0.4896489239895702  0.1250282592411125  1.0000
  O   O5        1.0  0.5504400722361851  0.3412984747857451  0.8923608274881687  1.0000
  O   O6        1.0  0.44955581229582714  0.6587038458609484  0.10763430800510312  1.0000
  O   O7        1.0  0.7419048507969989  0.5793261992742843  0.9260510344058516  1.0000
  O   O8        1.0  0.2580738073020825  0.42066990175931107  0.0739398964946929  1.0000
  O   O9        1.0  0.8477562522639417  0.35273673211808193  0.43069900001442113  1.0000
  O   O10       1.0  0.15224307309384952  0.6472514244954725  0.5692884700260734  1.0000
  O   O11       1.0  0.39016672230243904  0.804070500415321  0.8507832965223372  1.0000
  O   O12       1.0  0.6098285936742157  0.19592984421758794  0.149218338505861  1.0000
  O   O13       1.0  0.8609875094452876  0.8876172131483387  0.9029064692786832  1.0000
  O   O14       1.0  0.1390091596505982  0.11238116600901556  0.09710110230365392  1.0000
  O   O15       1.0  0.5509795557809767  0.047088255091637214  0.9092347348196199  1.0000
  O   O16       1.0  0.44901325558814875  0.9529100827681916  0.09077121081757153  1.0000
  O   O17       1.0  0.8360600112013756  0.8622989810144402  0.4115945605142811  1.0000
  O   O18       1.0  0.1640049839184528  0.13773531569469102  0.588421351072192  1.0000
