data_image0
_chemical_formula_structural       Zn3H60C66S6N36O18F18
_chemical_formula_sum              "Zn3 H60 C66 S6 N36 O18 F18"
_cell_length_a       12.39084942601498
_cell_length_b       15.786181275226493
_cell_length_c       15.786161534637323
_cell_angle_alpha    120.00023099363031
_cell_angle_beta     89.99983272569503
_cell_angle_gamma    90.00013576147181

_space_group_name_H-M_alt    "P 1"
_space_group_IT_number       1

loop_
  _space_group_symop_operation_xyz
  'x, y, z'

loop_
  _atom_site_type_symbol
  _atom_site_label
  _atom_site_symmetry_multiplicity
  _atom_site_fract_x
  _atom_site_fract_y
  _atom_site_fract_z
  _atom_site_occupancy
  Zn  Zn1       1.0  0.8333343776162963  0.5783632678289834  8.291593686977683e-07  1.0000
  Zn  Zn2       1.0  0.4999994725005835  0.42163665154085095  0.4216370413769327  1.0000
  Zn  Zn3       1.0  0.16666627392571343  5.156832045542071e-07  0.5783627815053691  1.0000
  H   H1        1.0  0.8324696575577236  0.5581903721839936  0.1844246395745515  1.0000
  H   H2        1.0  0.024362845570799208  0.42053256667463773  0.9351732695557617  1.0000
  H   H3        1.0  0.22833558388551722  0.1898739529001857  0.944200634410926  1.0000
  H   H4        1.0  0.15423744488853694  0.2254648210333343  0.0544897600751781  1.0000
  H   H5        1.0  0.23534422292289042  0.3122689674522618  0.04344316500306893  1.0000
  H   H6        1.0  0.2007121532575056  0.13088968925340788  0.7992841128973112  1.0000
  H   H7        1.0  0.9332610192166159  0.05003759754962529  0.6163926119046721  1.0000
  H   H8        1.0  0.699379376315818  0.06443583889143395  0.7246846774538939  1.0000
  H   H9        1.0  0.768867123726551  0.05651230789491274  0.6218917843114795  1.0000
  H   H10       1.0  0.6548305769052547  0.1348816820863519  0.6716311975318803  1.0000
  H   H11       1.0  0.4991321675392087  0.6262336712213781  0.44181198612562866  1.0000
  H   H12       1.0  0.6910289997139574  0.5146406023912391  0.5794674249025605  1.0000
  H   H13       1.0  0.8950020353203743  0.7543263878992478  0.8101239510108373  1.0000
  H   H14       1.0  0.820905598820467  0.829025390131811  0.7745338923957875  1.0000
  H   H15       1.0  0.9020114322133566  0.7311741376091873  0.68773045950622  1.0000
  H   H16       1.0  0.8673814140067293  0.6683927645308927  0.8691062365563698  1.0000
  H   H17       1.0  0.599928098323851  0.5663574611316377  0.9499625142220652  1.0000
  H   H18       1.0  0.36604599573506397  0.6602508961613581  0.9355654823368342  1.0000
  H   H19       1.0  0.4355350208717041  0.5653811570846016  0.9434880316720752  1.0000
  H   H20       1.0  0.3214977435029668  0.5367505439772415  0.8651195469727639  1.0000
  H   H21       1.0  0.16579949922336823  0.8155767933220943  0.37376641242178016  1.0000
  H   H22       1.0  0.35769057472457183  0.06483100972526759  0.4853616841540643  1.0000
  H   H23       1.0  0.5616697576218712  0.05579686760184899  0.24567436287661343  1.0000
  H   H24       1.0  0.48757058607317566  0.9455081731475873  0.17097551841794711  1.0000
  H   H25       1.0  0.5686786620598596  0.9565546637935399  0.26882605637900536  1.0000
  H   H26       1.0  0.5340462058467068  0.20071391189865304  0.33160567666861607  1.0000
  H   H27       1.0  0.2665940870904535  0.38360620123389566  0.4336447886521598  1.0000
  H   H28       1.0  0.032712634489307404  0.2753135568832832  0.3397497601386307  1.0000
  H   H29       1.0  0.10220179605496332  0.378105757401535  0.434617282337392  1.0000
  H   H30       1.0  0.9881635276583369  0.3283690143830854  0.4632503852925042  1.0000
  H   H31       1.0  0.1675293225724133  0.1844256342516176  0.5581905996138589  1.0000
  H   H32       1.0  0.975637534703509  0.9351721825484417  0.4205319554745303  1.0000
  H   H33       1.0  0.7716664878263444  0.9442010615008414  0.18987393939265462  1.0000
  H   H34       1.0  0.8457641178348112  0.05448966901575859  0.22546503957951813  1.0000
  H   H35       1.0  0.7646565063191206  0.04344266426186043  0.31226737660801973  1.0000
  H   H36       1.0  0.7992867614154664  0.7992838909878373  0.1308917824558548  1.0000
  H   H37       1.0  0.06674121568804742  0.6163944079412219  0.050038562762523456  1.0000
  H   H38       1.0  0.30061958758761886  0.7246869350883217  0.06443590516082756  1.0000
  H   H39       1.0  0.23113349290795784  0.6218936033126283  0.05651184314074692  1.0000
  H   H40       1.0  0.3451708020723743  0.6716314147531577  0.13487899098787887  1.0000
  H   H41       1.0  0.5008634708359382  0.4418085651957356  0.626231217527277  1.0000
  H   H42       1.0  0.30897066480577  0.579469028609644  0.5146402692294458  1.0000
  H   H43       1.0  0.1049966580139809  0.8101237275046742  0.7543268143907796  1.0000
  H   H44       1.0  0.17909469496062513  0.7745331247774843  0.829025305143091  1.0000
  H   H45       1.0  0.09798650486344941  0.6877300580169106  0.7311749961302141  1.0000
  H   H46       1.0  0.1326180957817087  0.8691049300722539  0.6683913540900406  1.0000
  H   H47       1.0  0.400071418855525  0.9499608721640769  0.5663556974437327  1.0000
  H   H48       1.0  0.6339518796055261  0.9355637430374771  0.6602505644958186  1.0000
  H   H49       1.0  0.5644653059532844  0.9434872295458803  0.5653809585735062  1.0000
  H   H50       1.0  0.6785010065645383  0.8651180707399179  0.5367510450009831  1.0000
  H   H51       1.0  0.8341977109220624  0.37376811396647724  0.8155759060078723  1.0000
  H   H52       1.0  0.6423108936914873  0.48536136501569865  0.06483268861892812  1.0000
  H   H53       1.0  0.43833260463664203  0.24567225794677233  0.05579728461777481  1.0000
  H   H54       1.0  0.5124322988187799  0.17097297925457144  0.9455088360182701  1.0000
  H   H55       1.0  0.43132418483070023  0.26882276502048097  0.9565546653379259  1.0000
  H   H56       1.0  0.46595607585395993  0.3316045363412101  0.2007147546872048  1.0000
  H   H57       1.0  0.7334048669944623  0.43364851052836434  0.3836084866826326  1.0000
  H   H58       1.0  0.9672863901529002  0.3397492804795021  0.2753122035397979  1.0000
  H   H59       1.0  0.8977995807502597  0.4346170279660555  0.3781055257432442  1.0000
  H   H60       1.0  0.011837049463331103  0.4632487931423697  0.32836815879878156  1.0000
  C   C1        1.0  0.91972905782594  0.4293899559014137  0.16295006503168719  1.0000
  C   C2        1.0  0.8887402110313334  0.50002638115933  0.13914962755272606  1.0000
  C   C3        1.0  0.9940172344165391  0.4236592962809738  0.0012472954197022647  1.0000
  C   C4        1.0  0.024674336260162005  0.35406334698799913  0.027099015749790612  1.0000
  C   C5        1.0  0.18233169423627527  0.248898153436798  0.0033306935299393173  1.0000
  C   C6        1.0  0.0520153215290549  0.21398140088945178  0.8690115437153949  1.0000
  C   C7        1.0  0.1149609977861061  0.14107456049354983  0.7925693955833283  1.0000
  C   C8        1.0  0.9655735094344635  0.09685131383181295  0.68916374197795  1.0000
  C   C9        1.0  0.903929599628782  0.16997442134757523  0.7661257126570576  1.0000
  C   C10       1.0  0.7259878491219711  0.10579528307867737  0.6895331128493681  1.0000
  C   C11       1.0  0.0484697829779606  0.433444205119308  0.7093793229245052  1.0000
  C   C12       1.0  0.5863940658262976  0.733560508547967  0.5706116132464133  1.0000
  C   C13       1.0  0.555405057276424  0.6391219315920439  0.49997479920602234  1.0000
  C   C14       1.0  0.6606817054858355  0.5775882281529333  0.5763406497724191  1.0000
  C   C15       1.0  0.6913406351935265  0.6730361116298482  0.6459364814718641  1.0000
  C   C16       1.0  0.8489996490768522  0.754432525634428  0.7511001647265304  1.0000
  C   C17       1.0  0.7186822993601681  0.655030346779874  0.7860180562024227  1.0000
  C   C18       1.0  0.7816294171287482  0.6514943081223449  0.8589227132649527  1.0000
  C   C19       1.0  0.6322407789853557  0.59231352120225  0.9031475139113782  1.0000
  C   C20       1.0  0.5705970432594257  0.5961510382065995  0.8300249950683708  1.0000
  C   C21       1.0  0.39265510956006017  0.5837396776879588  0.894206069753878  1.0000
  C   C22       1.0  0.7151343561239544  0.27593921124441323  0.5665581197011847  1.0000
  C   C23       1.0  0.2530617062616258  0.8370514962826477  0.2664413893120923  1.0000
  C   C24       1.0  0.2220709554667337  0.8608532379268325  0.36087909118068495  1.0000
  C   C25       1.0  0.3273447034077108  0.99875627320678  0.42241445583113085  1.0000
  C   C26       1.0  0.3580061777386448  0.972901639986496  0.32696619558629453  1.0000
  C   C27       1.0  0.5156638368387334  0.9966674776859746  0.24556723672164074  1.0000
  C   C28       1.0  0.38534924849822266  0.13098784041340386  0.3449709987678204  1.0000
  C   C29       1.0  0.44829500133761263  0.20742927482361748  0.3485060518249696  1.0000
  C   C30       1.0  0.2989057732992039  0.31083520416048316  0.4076873037236198  1.0000
  C   C31       1.0  0.23726340142294333  0.23387276081436428  0.40384848393268413  1.0000
  C   C32       1.0  0.05932169783401521  0.3104661006885721  0.4162599332066393  1.0000
  C   C33       1.0  0.3817969710376516  0.2906200916883889  0.7240605076324941  1.0000
  C   C34       1.0  0.08027158883903951  0.16294939347680068  0.42938912316103034  1.0000
  C   C35       1.0  0.11125961224214363  0.1391490410074708  0.5000256725122085  1.0000
  C   C36       1.0  0.0059834706773714  0.0012469207801259013  0.4236586207407811  1.0000
  C   C37       1.0  0.9753255770519047  0.027098753452364097  0.3540627472886513  1.0000
  C   C38       1.0  0.8176698781614391  0.003329720206593756  0.24889819804527494  1.0000
  C   C39       1.0  0.9479843468632511  0.8690115760253434  0.21398314436806484  1.0000
  C   C40       1.0  0.8850387227228538  0.7925697896410995  0.14107727255832714  1.0000
  C   C41       1.0  0.0344270696432716  0.6891651039646618  0.09685267624747236  1.0000
  C   C42       1.0  0.09607012002702932  0.766126347042629  0.1699751814015897  1.0000
  C   C43       1.0  0.2740127267084135  0.6895344758156696  0.10579519131992035  1.0000
  C   C44       1.0  0.9515347068238074  0.709379364869946  0.4334430823014301  1.0000
  C   C45       1.0  0.4136047183373819  0.5706103709285058  0.7335596990369098  1.0000
  C   C46       1.0  0.44459136335042604  0.49997385033031355  0.6391220092418736  1.0000
  C   C47       1.0  0.33931632406213214  0.5763396660504015  0.5775868204053723  1.0000
  C   C48       1.0  0.3086581438040669  0.6459347430139388  0.673035549791436  1.0000
  C   C49       1.0  0.15099987186652442  0.7510997519999307  0.7544319822774526  1.0000
  C   C50       1.0  0.2813156299911341  0.786015813421848  0.6550286510232867  1.0000
  C   C51       1.0  0.21837010211213945  0.8589204713197347  0.6514912081581913  1.0000
  C   C52       1.0  0.3677587454730968  0.9031459854759165  0.5923118537311468  1.0000
  C   C53       1.0  0.4294016983259895  0.8300237347137768  0.5961517753909433  1.0000
  C   C54       1.0  0.6073444210078166  0.8942049807185768  0.5837398979272521  1.0000
  C   C55       1.0  0.28486620324481743  0.5665588252855683  0.27593923292624106  1.0000
  C   C56       1.0  0.7469387620294798  0.26644132701401463  0.8370502364071799  1.0000
  C   C57       1.0  0.7779278574682069  0.360878877870043  0.860851925706193  1.0000
  C   C58       1.0  0.6726556540211066  0.42241420235226446  0.9987565501632147  1.0000
  C   C59       1.0  0.641994222019811  0.3269657272216691  0.9729023322981832  1.0000
  C   C60       1.0  0.4843381971261493  0.24556699212060817  0.996668345667054  1.0000
  C   C61       1.0  0.6146514387783101  0.344971712095699  0.1309890269050556  1.0000
  C   C62       1.0  0.5517056580288013  0.3485052174839112  0.2074297118444619  1.0000
  C   C63       1.0  0.7010932152368526  0.4076890239140028  0.31083686846297814  1.0000
  C   C64       1.0  0.7627372294023615  0.4038487548347476  0.23387437132578276  1.0000
  C   C65       1.0  0.9406789019343123  0.41625963456043275  0.3104657529960165  1.0000
  C   C66       1.0  0.6181994930091578  0.7240637180723583  0.29062203044948387  1.0000
  S   S1        1.0  0.04529960664599741  0.5319035151866061  0.8405446146646441  1.0000
  S   S2        1.0  0.7119645067585054  0.3086399101375008  0.46809440815846415  1.0000
  S   S3        1.0  0.37862836693445  0.159457518079293  0.6913614962114352  1.0000
  S   S4        1.0  0.9547039959739366  0.8405450540439362  0.5319044443405689  1.0000
  S   S5        1.0  0.2880360755594324  0.4680953036739978  0.30864006687447443  1.0000
  S   S6        1.0  0.6213697683854847  0.6913600203710716  0.15945755967029382  1.0000
  N   N1        1.0  0.9893215350900206  0.357667469026687  0.10876570477545766  1.0000
  N   N2        1.0  0.9258144896108863  0.4960146245169454  0.05744037711999543  1.0000
  N   N3        1.0  0.0913135956650493  0.27526634326645183  0.9623777086334117  1.0000
  N   N4        1.0  0.9483728031443877  0.22689594999648222  0.8539807879742726  1.0000
  N   N5        1.0  0.06960341274857032  0.08573780345178494  0.7044243553682108  1.0000
  N   N6        1.0  0.7961807760133299  0.1862716513643504  0.755399213442658  1.0000
  N   N7        1.0  0.6559880580503618  0.7510993723253705  0.6423335002913362  1.0000
  N   N8        1.0  0.5924782587857749  0.5614251416048077  0.5039866738552875  1.0000
  N   N9        1.0  0.7579800093749682  0.6871119072732982  0.7247334858089618  1.0000
  N   N10       1.0  0.6150404762256871  0.6270849266585544  0.773103585095619  1.0000
  N   N11       1.0  0.736270792784538  0.6186874897785302  0.9142608523116921  1.0000
  N   N12       1.0  0.46284655063372787  0.5691297457531448  0.8137285367349635  1.0000
  N   N13       1.0  0.322655919280841  0.8912352189167478  0.24890367249678766  1.0000
  N   N14       1.0  0.2591418392397031  0.9425622033108992  0.4385760000044599  1.0000
  N   N15       1.0  0.4246467153755377  0.037622027216777126  0.3128899304080904  1.0000
  N   N16       1.0  0.28170580020074715  0.14601840647703312  0.37291496497228144  1.0000
  N   N17       1.0  0.4029366009819172  0.2955738825275843  0.3813119796497517  1.0000
  N   N18       1.0  0.12951288529050237  0.24459949699321018  0.43087017477201783  1.0000
  N   N19       1.0  0.010679155512711704  0.10876446053624277  0.35766595853812083  1.0000
  N   N20       1.0  0.0741853635750402  0.057440207214867194  0.4960149924428948  1.0000
  N   N21       1.0  0.9086868258089638  0.9623771178980505  0.27526612982168785  1.0000
  N   N22       1.0  0.051626865986264606  0.8539812445779731  0.22689811600333343  1.0000
  N   N23       1.0  0.9303979719282652  0.704424295146481  0.08573847858003347  1.0000
  N   N24       1.0  0.20382055579405298  0.7554001982965987  0.18627203507053033  1.0000
  N   N25       1.0  0.3440090808714516  0.6423312819971371  0.7510969298605944  1.0000
  N   N26       1.0  0.40751738050686737  0.503984037043665  0.5614242012945924  1.0000
  N   N27       1.0  0.24201873721418116  0.7247320223577987  0.687110966477107  1.0000
  N   N28       1.0  0.38495827443286157  0.7731016613951666  0.6270827844227966  1.0000
  N   N29       1.0  0.2637271044964251  0.9142590066580427  0.6186862678354005  1.0000
  N   N30       1.0  0.5371513990230882  0.8137292327504825  0.5691309402381678  1.0000
  N   N31       1.0  0.6773445362219164  0.24890371467587613  0.8912340940979108  1.0000
  N   N32       1.0  0.7408561110189639  0.4385760090017429  0.9425619778790094  1.0000
  N   N33       1.0  0.575354822724421  0.3128890038774017  0.037622200630607866  1.0000
  N   N34       1.0  0.718293257986936  0.3729169642445882  0.14601945185111728  1.0000
  N   N35       1.0  0.5970640161771146  0.3813134104559099  0.2955759541623238  1.0000
  N   N36       1.0  0.8704869253170957  0.4308710943268608  0.2446003247328079  1.0000
  O   O1        1.0  0.1380389002249984  0.5113521754603028  0.8837766832593987  1.0000
  O   O2        1.0  0.940673967746719  0.5109426318809084  0.871886449331214  1.0000
  O   O3        1.0  0.046709659263243004  0.6224695721184118  0.8379633494296217  1.0000
  O   O4        1.0  0.8047047765065118  0.3724284458849142  0.48864317795265333  1.0000
  O   O5        1.0  0.6073373370474827  0.3609416714781943  0.4890582985279793  1.0000
  O   O6        1.0  0.7133768670211326  0.21549205821570178  0.37753146600176996  1.0000
  O   O7        1.0  0.4713702460401735  0.11622250558688299  0.6275707520758901  1.0000
  O   O8        1.0  0.274002014207511  0.1281150405066355  0.639058340276577  1.0000
  O   O9        1.0  0.38004375876010243  0.1620386816218938  0.7845050662777169  1.0000
  O   O10       1.0  0.8619622733439273  0.8837772696708656  0.511350344724825  1.0000
  O   O11       1.0  0.05932882420598419  0.8718873051015593  0.5109425231642605  1.0000
  O   O12       1.0  0.9532922985600438  0.8379629678763011  0.6224690222977288  1.0000
  O   O13       1.0  0.19529577637988643  0.48864539943190977  0.3724299989622537  1.0000
  O   O14       1.0  0.39266402674797973  0.4890577923500743  0.3609419505817614  1.0000
  O   O15       1.0  0.2866221653103125  0.37753270328516214  0.21549313488777952  1.0000
  O   O16       1.0  0.5286295407259589  0.6275717508949229  0.11622273814079884  1.0000
  O   O17       1.0  0.7259969573464036  0.6390574156493827  0.12811702643733733  1.0000
  O   O18       1.0  0.6199567643009375  0.7845061678298889  0.162038454630931  1.0000
  F   F1        1.0  0.9649381326764656  0.4428073719852605  0.6593508378709175  1.0000
  F   F2        1.0  0.1419678979090833  0.43768332939341553  0.6665479599436994  1.0000
  F   F3        1.0  0.0420818844827551  0.3434868357450256  0.701089706317731  1.0000
  F   F4        1.0  0.6316016734457933  0.2165445509831797  0.5571911908534162  1.0000
  F   F5        1.0  0.8086307080686765  0.22887195235520613  0.5623258835065174  1.0000
  F   F6        1.0  0.7087384634041741  0.3576085552021198  0.6565142824713632  1.0000
  F   F7        1.0  0.29826836084455277  0.3406503814486825  0.7834580673019645  1.0000
  F   F8        1.0  0.47529578437710285  0.3334539177405276  0.7711220945984253  1.0000
  F   F9        1.0  0.375400479141014  0.29890430715411054  0.6423901781167062  1.0000
  F   F10       1.0  0.0350663713150468  0.6593503689983891  0.4428064358784525  1.0000
  F   F11       1.0  0.8580390265066669  0.6665454137078797  0.437677391797017  1.0000
  F   F12       1.0  0.957926674842831  0.7010933155214686  0.34348700381197966  1.0000
  F   F13       1.0  0.36839890991988267  0.557192192152165  0.21654407953851523  1.0000
  F   F14       1.0  0.19136906215260305  0.56232523257286  0.22887203763750824  1.0000
  F   F15       1.0  0.29126203607391693  0.6565152690549  0.35760826963401376  1.0000
  F   F16       1.0  0.701729679103025  0.7834570893928756  0.34065261194417934  1.0000
  F   F17       1.0  0.5247014553558104  0.7711288620882614  0.3334536368647534  1.0000
  F   F18       1.0  0.6245911682309355  0.6423931630521764  0.29890669064284486  1.0000
