data_image0
_chemical_formula_structural       H24Pb2C28N4O8
_chemical_formula_sum              "H24 Pb2 C28 N4 O8"
_cell_length_a       6.751606998405785
_cell_length_b       7.941444780011406
_cell_length_c       13.838130400059319
_cell_angle_alpha    74.893292091459
_cell_angle_beta     88.08072471184289
_cell_angle_gamma    69.27613572992647

_space_group_name_H-M_alt    "P 1"
_space_group_IT_number       1

loop_
  _space_group_symop_operation_xyz
  'x, y, z'

loop_
  _atom_site_type_symbol
  _atom_site_label
  _atom_site_symmetry_multiplicity
  _atom_site_fract_x
  _atom_site_fract_y
  _atom_site_fract_z
  _atom_site_occupancy
  H   H1        1.0  0.5843349136052681  0.6781352326185653  0.3569391065552451  1.0000
  H   H2        1.0  0.4156494553553501  0.321872630321792  0.6430526040127944  1.0000
  H   H3        1.0  0.6264210948748145  0.5630599289675967  0.48086216592066217  1.0000
  H   H4        1.0  0.3735700226316183  0.4369533733837371  0.5191308227912401  1.0000
  H   H5        1.0  0.017290521553462727  0.23749005039601187  0.9630785615831883  1.0000
  H   H6        1.0  0.9827216716851627  0.7624923487830271  0.036922126448750765  1.0000
  H   H7        1.0  0.02652566495864762  0.14044557778946395  0.869394933574817  1.0000
  H   H8        1.0  0.973478365859393  0.8595424883757228  0.1306043526773095  1.0000
  H   H9        1.0  0.6793529615589264  0.5184882695331152  0.22692312051266578  1.0000
  H   H10       1.0  0.32062303437723483  0.48151827647451007  0.7730696382489837  1.0000
  H   H11       1.0  0.7406441205847116  0.21793783930370833  0.5386185905194338  1.0000
  H   H12       1.0  0.25935595433958275  0.7820752996906604  0.46137716612197716  1.0000
  H   H13       1.0  0.7938017854734553  0.9286035838934549  0.4892334336135137  1.0000
  H   H14       1.0  0.20619660400735282  0.07140255372174657  0.5107662449719186  1.0000
  H   H15       1.0  0.7807199805202673  0.9319102516110714  0.30866762846157053  1.0000
  H   H16       1.0  0.21927745755044736  0.06809453907087709  0.6913308133564513  1.0000
  H   H17       1.0  0.8498502162600658  0.5714823427140203  0.9439604101620631  1.0000
  H   H18       1.0  0.15014267536217576  0.4285001478722775  0.056045638780865714  1.0000
  H   H19       1.0  0.9147306788079775  0.32613202332260727  0.6963078581350854  1.0000
  H   H20       1.0  0.08527658003080778  0.673862894107877  0.3036932840481227  1.0000
  H   H21       1.0  0.8118542311014566  0.6415911506134503  0.5776619961854692  1.0000
  H   H22       1.0  0.18814231652304864  0.3584121423185137  0.4223417337262773  1.0000
  H   H23       1.0  0.7100308482295646  0.9254048092934749  0.642856423633596  1.0000
  H   H24       1.0  0.2899802501184113  0.07459541208294239  0.3571532905420937  1.0000
  Pb  Pb1       1.0  0.5731861186241147  0.23656288178320037  0.9471295565152928  1.0000
  Pb  Pb2       1.0  0.42682029718670134  0.7634529699436707  0.052865707718268616  1.0000
  C   C1        1.0  0.7207864168662256  0.2325733891002456  0.14865028035683278  1.0000
  C   C2        1.0  0.27921173491564133  0.7674258316257294  0.8513489482637269  1.0000
  C   C3        1.0  0.7300538767332585  0.22613990424505903  0.2569759859034732  1.0000
  C   C4        1.0  0.2699349980313529  0.7738678099871591  0.7430200085676048  1.0000
  C   C5        1.0  0.6979908812337502  0.3900429810411549  0.28458087106574226  1.0000
  C   C6        1.0  0.3020031453083547  0.6099591821010859  0.7154129442652178  1.0000
  C   C7        1.0  0.6956087942955804  0.39266396446442525  0.3856552182397763  1.0000
  C   C8        1.0  0.3043819358728614  0.6073465609362  0.6143381748741203  1.0000
  C   C9        1.0  0.7337987210627476  0.22237968749639236  0.4592377002728014  1.0000
  C   C10       1.0  0.2662069200720937  0.7776306103290547  0.5407583727647634  1.0000
  C   C11       1.0  0.7654801734316196  0.05846297560658798  0.4312052158018033  1.0000
  C   C12       1.0  0.23451373734025804  0.9415432436870996  0.5687930788188637  1.0000
  C   C13       1.0  0.762488609612362  0.058146376247016476  0.3308234414233198  1.0000
  C   C14       1.0  0.2375149722885298  0.9418541097337179  0.669178407929408  1.0000
  C   C15       1.0  0.7112912225653646  0.9337705045784898  0.8372847856101302  1.0000
  C   C16       1.0  0.28871365744007  0.06622293115656666  0.16272166666826138  1.0000
  C   C17       1.0  0.773586876608185  0.765998571951698  0.7970742139240201  1.0000
  C   C18       1.0  0.22642096662399064  0.2339948651890821  0.20293074438230718  1.0000
  C   C19       1.0  0.8402705369675161  0.5875673961837717  0.8635094117859337  1.0000
  C   C20       1.0  0.1597361781195091  0.41241762631779  0.1365003846492527  1.0000
  C   C21       1.0  0.8908842188404053  0.42887899469062757  0.8278707157777134  1.0000
  C   C22       1.0  0.1091280353630496  0.5711145283458092  0.17212837664767017  1.0000
  C   C23       1.0  0.8771435576997392  0.4494568257603218  0.7243389574825158  1.0000
  C   C24       1.0  0.12286247077214092  0.5505449743417044  0.2756648316207233  1.0000
  C   C25       1.0  0.8153159016657696  0.6276192567029639  0.6581397852672238  1.0000
  C   C26       1.0  0.18469437458986698  0.3723755280739311  0.3418656628204815  1.0000
  C   C27       1.0  0.7615926920829993  0.7857703216119132  0.6936374404033785  1.0000
  C   C28       1.0  0.23841928993646636  0.2142201395977707  0.30637438116169585  1.0000
  N   N1        1.0  0.6656806351173046  0.5583719006322809  0.4099854089009085  1.0000
  N   N2        1.0  0.33431158343827155  0.44163860871378774  0.59000796221153  1.0000
  N   N3        1.0  0.9394457737078599  0.25096326100227623  0.8973529355208425  1.0000
  N   N4        1.0  0.060566500816897045  0.7490302117619263  0.10264833185824779  1.0000
  O   O1        1.0  0.7443414263367103  0.08137128649006796  0.12389996871704771  1.0000
  O   O2        1.0  0.25563794048451893  0.9186267129276116  0.876101187091926  1.0000
  O   O3        1.0  0.6825123984692  0.3874079728877503  0.0821042556832623  1.0000
  O   O4        1.0  0.3175037568235552  0.6125869320024933  0.917893129568327  1.0000
  O   O5        1.0  0.6464454031551696  0.09660010759925088  0.778883207633953  1.0000
  O   O6        1.0  0.35355903532215666  0.903390685244403  0.22111784916988597  1.0000
  O   O7        1.0  0.7263888995487664  0.9030427264794624  0.9346979675489919  1.0000
  O   O8        1.0  0.2735927574306417  0.09696074375543866  0.06530525739279368  1.0000
