data_image0
_chemical_formula_structural       Zn2H6C18Br8N2O8
_chemical_formula_sum              "Zn2 H6 C18 Br8 N2 O8"
_cell_length_a       9.773369617272072
_cell_length_b       11.164335337840987
_cell_length_c       10.824006104066997
_cell_angle_alpha    95.25924949296775
_cell_angle_beta     110.23747232561858
_cell_angle_gamma    88.54904289255727

_space_group_name_H-M_alt    "P 1"
_space_group_IT_number       1

loop_
  _space_group_symop_operation_xyz
  'x, y, z'

loop_
  _atom_site_type_symbol
  _atom_site_label
  _atom_site_symmetry_multiplicity
  _atom_site_fract_x
  _atom_site_fract_y
  _atom_site_fract_z
  _atom_site_occupancy
  Zn  Zn1       1.0  0.6498283312012488  0.48005919190619306  0.5467322266593015  1.0000
  Zn  Zn2       1.0  0.3488339987445883  0.5161423328531356  0.4596162097083224  1.0000
  H   H1        1.0  0.567976206852407  0.302632561096175  0.09043774823246761  1.0000
  H   H2        1.0  0.4313921698833453  0.6953760314614853  0.9163774985610829  1.0000
  H   H3        1.0  0.657649415915337  0.6546675213391565  0.15870032793061745  1.0000
  H   H4        1.0  0.34317903586597964  0.34327524805353704  0.8487515360060415  1.0000
  H   H5        1.0  0.8594877732337809  0.5783891647044967  0.4541256415685525  1.0000
  H   H6        1.0  0.138287580546482  0.4143978813403919  0.5465547874911325  1.0000
  C   C1        1.0  0.4469145667800801  0.2690217154693713  0.4864169675826845  1.0000
  C   C2        1.0  0.5158283743561611  0.49936535868457804  0.8831913549689149  1.0000
  C   C3        1.0  0.5874512816161541  0.5859068229489209  0.08884494474289545  1.0000
  C   C4        1.0  0.4125999933513356  0.4124168006574039  0.9186895889158894  1.0000
  C   C5        1.0  0.4319811230497236  0.13543403783309324  0.4891404198684129  1.0000
  C   C6        1.0  0.564601901942133  0.862668544134905  0.5420261766880685  1.0000
  C   C7        1.0  0.49733834732838017  0.07274169526960608  0.5939063054036069  1.0000
  C   C8        1.0  0.4893944013243612  0.9426530785759367  0.5935614079467515  1.0000
  C   C9        1.0  0.0707435665226654  0.4879933329183927  0.49713562412112133  1.0000
  C   C10       1.0  0.9277375774831709  0.5066182766726754  0.5067499154991566  1.0000
  C   C11       1.0  0.5485695706141627  0.7278834151981216  0.5301440106716768  1.0000
  C   C12       1.0  0.5187751774081661  0.5017598736536755  0.7469800606674398  1.0000
  C   C13       1.0  0.482795810991142  0.4964946390762677  0.261110323327415  1.0000
  C   C14       1.0  0.6399182525507783  0.47615827351002354  0.016641744361834302  1.0000
  C   C15       1.0  0.3599786421001098  0.5219007766689715  0.9910232815700867  1.0000
  C   C16       1.0  0.5374597880230282  0.3897700046015513  0.05057242495900738  1.0000
  C   C17       1.0  0.462307758694898  0.6084913659382494  0.9567872019957523  1.0000
  C   C18       1.0  0.4846899422105578  0.5000908491607207  0.1246935245135461  1.0000
  Br  Br1       1.0  0.8404095446024796  0.44157322560904794  0.04022467316401907  1.0000
  Br  Br2       1.0  0.1595783367298722  0.5543022864827165  0.9690752268574558  1.0000
  Br  Br3       1.0  0.3598153657075684  0.8883024624917795  0.6756434807328093  1.0000
  Br  Br4       1.0  0.6098092393286336  0.15696772588848523  0.7591606816683412  1.0000
  Br  Br5       1.0  0.7028888948770698  0.9163101127178876  0.47137101507453155  1.0000
  Br  Br6       1.0  0.31190318057604566  0.05766796577439239  0.3256876357598486  1.0000
  Br  Br7       1.0  0.9617504117671913  0.3172995754846326  0.6635903981831676  1.0000
  Br  Br8       1.0  0.03621888133052661  0.6803856022038347  0.3445264059739018  1.0000
  N   N1        1.0  0.13157775677005648  0.5494357490800964  0.43469913546549327  1.0000
  N   N2        1.0  0.8664377287571978  0.4463011024353776  0.5696408550979157  1.0000
  O   O1        1.0  0.5705837573689791  0.3048519709706881  0.49099468061278645  1.0000
  O   O2        1.0  0.42058358896689185  0.688559103824069  0.46660013301657705  1.0000
  O   O3        1.0  0.3349015382614127  0.3321989642114503  0.478273774689555  1.0000
  O   O4        1.0  0.6624834893096291  0.667581930703605  0.5812477828946642  1.0000
  O   O5        1.0  0.6347499804532575  0.46936501600474406  0.7255804907318437  1.0000
  O   O6        1.0  0.3617047588686119  0.48236287918231824  0.2772916979114514  1.0000
  O   O7        1.0  0.4008572342337544  0.5359489213501761  0.6624827732138032  1.0000
  O   O8        1.0  0.6080552764172467  0.5064231828168034  0.35167072056759713  1.0000
