data_image0
_chemical_formula_structural       Al2H10C22S2O11F2
_chemical_formula_sum              "Al2 H10 C22 S2 O11 F2"
_cell_length_a       6.6284880209384225
_cell_length_b       12.854841786364856
_cell_length_c       15.388587454563934
_cell_angle_alpha    61.664649186710996
_cell_angle_beta     75.3677718036926
_cell_angle_gamma    70.46921484307387

_space_group_name_H-M_alt    "P 1"
_space_group_IT_number       1

loop_
  _space_group_symop_operation_xyz
  'x, y, z'

loop_
  _atom_site_type_symbol
  _atom_site_label
  _atom_site_symmetry_multiplicity
  _atom_site_fract_x
  _atom_site_fract_y
  _atom_site_fract_z
  _atom_site_occupancy
  Al  Al1       1.0  0.5022487630315312  0.4908214866337559  0.5032463792636435  1.0000
  Al  Al2       1.0  0.9995001532401986  0.49919806050085924  0.49952852155230704  1.0000
  H   H1        1.0  0.23241548720234553  0.39569783597065844  0.629393576287086  1.0000
  H   H2        1.0  0.6858337296732697  0.6484916815143862  0.4211778256035998  1.0000
  H   H3        1.0  0.917546529983646  0.5201658168129555  0.7551907682973679  1.0000
  H   H4        1.0  0.06820259924896284  0.6080479442344071  0.19998816871790126  1.0000
  H   H5        1.0  0.724491331439488  0.40732861246522845  0.25438947963716174  1.0000
  H   H6        1.0  0.7957316750196669  0.4037148674338411  0.08922390061766097  1.0000
  H   H7        1.0  0.2872715802141101  0.46604842959605725  0.7953803505844662  1.0000
  H   H8        1.0  0.2117094904130852  0.4758980903850444  0.9576069660050951  1.0000
  H   H9        1.0  0.6226279051570246  0.1357292098641025  0.5526672344427441  1.0000
  H   H10       1.0  0.5243488137531854  0.8992434043851746  0.44432569632608226  1.0000
  C   C1        1.0  0.8785717314381003  0.2890226753970495  0.5240773425032188  1.0000
  C   C2        1.0  0.6572784779111629  0.48010627224580577  0.6690910950766594  1.0000
  C   C3        1.0  0.13373034823210628  0.7043762179127526  0.4742565199229319  1.0000
  C   C4        1.0  0.3464207077623697  0.5086200771315605  0.33727242257803874  1.0000
  C   C5        1.0  0.6082284521131668  0.48940496374130044  0.7656044482553386  1.0000
  C   C6        1.0  0.3928934059034148  0.507952241038332  0.23758827308029845  1.0000
  C   C7        1.0  0.7629364036714394  0.5093584912357445  0.7994371799209434  1.0000
  C   C8        1.0  0.7143672391185734  0.5181007443075671  0.8890390141952839  1.0000
  C   C9        1.0  0.22868095040149686  0.5642943486789491  0.17572482792241567  1.0000
  C   C10       1.0  0.2743346528903458  0.5647479673922221  0.0826543392702419  1.0000
  C   C11       1.0  0.5980565194611885  0.4512214414766832  0.20550826065560554  1.0000
  C   C12       1.0  0.6374630151926014  0.45030238376783416  0.11278883827410627  1.0000
  C   C13       1.0  0.4083360885670542  0.4796541653653251  0.8226699763718275  1.0000
  C   C14       1.0  0.36612796276136084  0.4859474029340449  0.9134326168477573  1.0000
  C   C15       1.0  0.5187152231744604  0.5048487622195948  0.9500816690753099  1.0000
  C   C16       1.0  0.4768613231472969  0.5077038074530479  0.04786786511209579  1.0000
  C   C17       1.0  0.23106157170929692  0.8860050959011191  0.46637790275866564  1.0000
  C   C18       1.0  0.7940463590654261  0.10645716999826503  0.5313831011188626  1.0000
  C   C19       1.0  0.08625455081077854  0.8199268479619664  0.48047165936577585  1.0000
  C   C20       1.0  0.9367775816567275  0.17241729969406097  0.5166977960451861  1.0000
  C   C21       1.0  0.9011136715626124  0.002315287355180814  0.5135546164952701  1.0000
  C   C22       1.0  0.12369244268079163  0.9907988938599036  0.48512700090680033  1.0000
  S   S1        1.0  0.8231205637717806  0.8837237395416652  0.5193268200375556  1.0000
  S   S2        1.0  0.2012862435297721  0.10903689612908353  0.4804354290555466  1.0000
  O   O1        1.0  0.6798238551868966  0.3290739131930779  0.5486433709026528  1.0000
  O   O2        1.0  0.8550312921732373  0.4604041410932782  0.6334142596600714  1.0000
  O   O3        1.0  0.9747823600987148  0.6596252175764548  0.48995008320581956  1.0000
  O   O4        1.0  0.5063398227669185  0.4797233576404949  0.38284609739104525  1.0000
  O   O5        1.0  0.3309299742742412  0.6556790157746945  0.4544114441308409  1.0000
  O   O6        1.0  0.1490003809084399  0.53897487524533  0.36954031035923424  1.0000
  O   O7        1.0  0.027572853044645698  0.3410897562089231  0.5050399076020613  1.0000
  O   O8        1.0  0.49838159032942997  0.4921381319551801  0.6296612165631076  1.0000
  O   O9        1.0  0.25551832151833764  0.43283512649060196  0.5574536018201997  1.0000
  O   O10       1.0  0.7377784245808814  0.5600457633243252  0.4485543505492873  1.0000
  O   O11       1.0  0.4434437594820436  0.8524046602914623  0.4376173565179471  1.0000
  F   F1        1.0  0.865202315878442  0.5432470540199503  0.9176130895985325  1.0000
  F   F2        1.0  0.1135887127069068  0.6255368709454103  0.022229371135175292  1.0000
