data_image0
_chemical_formula_structural       Zn6H42C42N18O18
_chemical_formula_sum              "Zn6 H42 C42 N18 O18"
_cell_length_a       10.119611074993927
_cell_length_b       16.515445916968048
_cell_length_c       16.51577859639342
_cell_angle_alpha    115.93774357928139
_cell_angle_beta     101.80212277801364
_cell_angle_gamma    101.77908048565261

_space_group_name_H-M_alt    "P 1"
_space_group_IT_number       1

loop_
  _space_group_symop_operation_xyz
  'x, y, z'

loop_
  _atom_site_type_symbol
  _atom_site_label
  _atom_site_symmetry_multiplicity
  _atom_site_fract_x
  _atom_site_fract_y
  _atom_site_fract_z
  _atom_site_occupancy
  Zn  Zn1       1.0  0.5208466205233363  0.6947271005722583  0.3165723300925264  1.0000
  Zn  Zn2       1.0  0.2045477196017487  0.6833627468490348  0.3783243703893788  1.0000
  Zn  Zn3       1.0  0.8261339926125398  0.6218404670228279  0.3053261900071717  1.0000
  Zn  Zn4       1.0  0.7108430911412854  0.37778055695375207  0.6811499872402748  1.0000
  Zn  Zn5       1.0  0.02973859257070896  0.3188805049654562  0.6965591289498716  1.0000
  Zn  Zn6       1.0  0.333109995694123  0.30337682749092926  0.6221726978997636  1.0000
  H   H1        1.0  0.6372323298246699  0.3435155075401113  0.3711616653847542  1.0000
  H   H2        1.0  0.2657851087569582  0.6288486688090841  0.972440452435812  1.0000
  H   H3        1.0  0.2939137052543401  0.0277492229648288  0.6565162966431969  1.0000
  H   H4        1.0  0.7996946964625521  0.6646291136896847  0.025066437206788802  1.0000
  H   H5        1.0  0.7748812496806251  0.9749756078878064  0.6395318929962952  1.0000
  H   H6        1.0  0.1350627934543809  0.3603461163837308  0.3350987529662105  1.0000
  H   H7        1.0  0.36825179825402893  0.21077951337371562  0.349408423917687  1.0000
  H   H8        1.0  0.018669357037431722  0.6507447494199639  0.8614518941587617  1.0000
  H   H9        1.0  0.1577073055227487  0.1386565151993722  0.7893106547251775  1.0000
  H   H10       1.0  0.7863126263817506  0.5599472503225371  0.8798226182463366  1.0000
  H   H11       1.0  0.9065806391604879  0.1201285883660645  0.6799345671961061  1.0000
  H   H12       1.0  0.22634539277201068  0.3197145648777706  0.43994615398122505  1.0000
  H   H13       1.0  0.723895081290756  0.4445676043091212  0.3261105879936678  1.0000
  H   H14       1.0  0.39758806666874585  0.6741778944877765  0.1185354036512365  1.0000
  H   H15       1.0  0.2796407821063979  0.8816079481389207  0.5554847825082729  1.0000
  H   H16       1.0  0.8651508003632811  0.7897293086028011  0.16773375713060532  1.0000
  H   H17       1.0  0.698062634431004  0.8324837581977818  0.6223879617860532  1.0000
  H   H18       1.0  0.0748530572038959  0.3777305274098808  0.20984220147748536  1.0000
  H   H19       1.0  0.32774112253668614  0.466085787152174  0.8227457579294394  1.0000
  H   H20       1.0  0.5050026076198577  0.17714116444471265  0.6431485776916259  1.0000
  H   H21       1.0  0.8619449622437543  0.3571114097400354  0.5339471531116544  1.0000
  H   H22       1.0  0.34085793619315297  0.5224227200204793  0.33942188682530616  1.0000
  H   H23       1.0  0.0011957189464339095  0.6600701351798219  0.1830562996786611  1.0000
  H   H24       1.0  0.8186806660062514  0.816905534331049  0.4775253547199085  1.0000
  H   H25       1.0  0.5316958316190465  0.1355704082186051  0.27254349845879483  1.0000
  H   H26       1.0  0.2591578487160575  0.7274936924112011  0.8632121700725364  1.0000
  H   H27       1.0  0.3964233960259236  0.136969818059427  0.8644316688062047  1.0000
  H   H28       1.0  0.5283253293547644  0.11676517488882608  0.37065161452633777  1.0000
  H   H29       1.0  0.1576532645041694  0.6294381085607339  0.7462864221303246  1.0000
  H   H30       1.0  0.4118642714722824  0.25389513240479994  0.8833079937984889  1.0000
  H   H31       1.0  0.6772693514708692  0.2053467330765528  0.38246167470440884  1.0000
  H   H32       1.0  0.29462480408501074  0.6175298886458833  0.823110319150565  1.0000
  H   H33       1.0  0.47210004431644154  0.17710711731636758  0.7946502957412063  1.0000
  H   H34       1.0  0.7115010959273462  0.8638605446551465  0.10791055267549855  1.0000
  H   H35       1.0  0.6039010297562369  0.8922121489441038  0.7561249179508279  1.0000
  H   H36       1.0  0.8468918169161909  0.24395146649949606  0.13604469290682175  1.0000
  H   H37       1.0  0.7198955574355494  0.8909590303685064  0.2264277850274255  1.0000
  H   H38       1.0  0.4938393793408835  0.7736664464788916  0.6647107288673196  1.0000
  H   H39       1.0  0.8282116113602312  0.33538466504430176  0.10892874932615364  1.0000
  H   H40       1.0  0.5639790687356835  0.8049250222009403  0.1279200179369794  1.0000
  H   H41       1.0  0.436377663121533  0.8720951695159371  0.6769888028703049  1.0000
  H   H42       1.0  0.7586705012529222  0.32312598413074783  0.1951459734107672  1.0000
  C   C1        1.0  0.4845698080002662  0.2446954544313513  0.3843891802305634  1.0000
  C   C2        1.0  0.09988689542618792  0.615663111816424  0.8603618299049385  1.0000
  C   C3        1.0  0.2400741948568381  0.1397632438469074  0.7553831214438914  1.0000
  C   C4        1.0  0.5143517810464786  0.2869663237047532  0.4924423640648071  1.0000
  C   C5        1.0  0.02147231743796845  0.5076491641177512  0.7944405008178778  1.0000
  C   C6        1.0  0.22756088039332675  0.2056578426402638  0.7132287807466324  1.0000
  C   C7        1.0  0.6709560023102056  0.5242253452870925  0.8502347270563316  1.0000
  C   C8        1.0  0.820782618019784  0.14969483816064874  0.6737702417364629  1.0000
  C   C9        1.0  0.14677867948446277  0.32596130770265563  0.475699304859276  1.0000
  C   C10       1.0  0.578680803048023  0.6234408583554797  0.9844679647189095  1.0000
  C   C11       1.0  0.5943984163933463  0.0154887222464026  0.6389214965246451  1.0000
  C   C12       1.0  0.9554030185684468  0.3610553080249517  0.3764496027100391  1.0000
  C   C13       1.0  0.6394755608351517  0.4761160332644819  0.326617204544874  1.0000
  C   C14       1.0  0.3127044349993469  0.6735102280679613  0.14958686218663075  1.0000
  C   C15       1.0  0.1636497762825399  0.8505210710379385  0.5239509681785605  1.0000
  C   C16       1.0  0.4432969386676007  0.36818656086195733  0.34865279112680975  1.0000
  C   C17       1.0  0.09430889713986094  0.6512154381756902  0.019577863011264244  1.0000
  C   C18       1.0  0.07531935140045923  0.9805223873030613  0.631798620685707  1.0000
  C   C19       1.0  0.7477386552031221  0.7566064520958095  0.14175265048731941  1.0000
  C   C20       1.0  0.6064918692110411  0.8583010341307682  0.615045053912638  1.0000
  C   C21       1.0  0.9908122757322032  0.3850034749620192  0.24315552909867208  1.0000
  C   C22       1.0  0.5646119854346309  0.5464853338033037  0.8902768926716289  1.0000
  C   C23       1.0  0.6744008093185059  0.10963185901900371  0.6560080425496506  1.0000
  C   C24       1.0  0.0182859405626061  0.34389393362859977  0.4534705814563934  1.0000
  C   C25       1.0  0.43610261237638065  0.4758853396398592  0.8204264831500152  1.0000
  C   C26       1.0  0.6156929597818744  0.1794622955074914  0.655264871265764  1.0000
  C   C27       1.0  0.9604011390126175  0.3448075835427601  0.524104933415259  1.0000
  C   C28       1.0  0.5054533117278978  0.4484042281175746  0.33609577516352107  1.0000
  C   C29       1.0  0.16907083021332156  0.6637512171998166  0.1123658783605136  1.0000
  C   C30       1.0  0.0573115335074802  0.8877065106928865  0.5516093950364079  1.0000
  C   C31       1.0  0.4436531151796501  0.5162997554497863  0.3330189257494212  1.0000
  C   C32       1.0  0.11042585122432762  0.6666680763149342  0.1833085954627833  1.0000
  C   C33       1.0  0.927644373762341  0.8166795801780252  0.4837038327769178  1.0000
  C   C34       1.0  0.5604738609900011  0.17104238010917067  0.3505357385135354  1.0000
  C   C35       1.0  0.20983475430722356  0.6495159953801632  0.8206832216138904  1.0000
  C   C36       1.0  0.38968686252883333  0.1795070957317932  0.8289957621914894  1.0000
  C   C37       1.0  0.6808315916229473  0.8337411853296215  0.15154049465954228  1.0000
  C   C38       1.0  0.5296624788112608  0.8485339906414778  0.6823397483789079  1.0000
  C   C39       1.0  0.8465105373008941  0.3177474303776436  0.1661620841987529  1.0000
  C   C40       1.0  0.7214102627244331  0.7131846874605544  0.2055148912601866  1.0000
  C   C41       1.0  0.5164702298281226  0.7943416913892418  0.5078298636273287  1.0000
  C   C42       1.0  0.008030853825246622  0.49220451257891534  0.2865730006885271  1.0000
  N   N1        1.0  0.5306435762593721  0.3193988223024603  0.3622225996626581  1.0000
  N   N2        1.0  0.1680810684965621  0.637737682685639  0.9572429733702278  1.0000
  N   N3        1.0  0.21141895449225956  0.042915725937206196  0.6806000334330233  1.0000
  N   N4        1.0  0.7138350629166297  0.6810301678180081  0.04360365595903913  1.0000
  N   N5        1.0  0.6705159046685267  0.9564185238324328  0.6374416705880251  1.0000
  N   N6        1.0  0.03275782071929705  0.3624480017489161  0.31873917964247056  1.0000
  N   N7        1.0  0.5351316416547645  0.5796067343003485  0.3223979066082235  1.0000
  N   N8        1.0  0.2127521156181443  0.6774617914399385  0.25726618519482247  1.0000
  N   N9        1.0  0.9558514801309953  0.7427422191553602  0.42044101771810444  1.0000
  N   N10       1.0  0.6096976174009043  0.44631849706688337  0.7632878690191444  1.0000
  N   N11       1.0  0.8464417623292846  0.23664098779369874  0.6828356280617738  1.0000
  N   N12       1.0  0.16340351257350955  0.3169773068352626  0.5536284749368858  1.0000
  N   N13       1.0  0.655352834115952  0.5542409976227844  0.3183186366389775  1.0000
  N   N14       1.0  0.3370909543219653  0.681837358280724  0.23603562452539958  1.0000
  N   N15       1.0  0.10145659829478867  0.7640570795480955  0.4458577528725343  1.0000
  N   N16       1.0  0.46462139866223123  0.41620708219547703  0.7444915763720557  1.0000
  N   N17       1.0  0.720128277177153  0.25541612305445227  0.6715175359837245  1.0000
  N   N18       1.0  0.04853619973323477  0.3284902499627762  0.5837910906201954  1.0000
  O   O1        1.0  0.6515022858435842  0.7450419723734143  0.2609544446377825  1.0000
  O   O2        1.0  0.3911043564476555  0.7388202092286843  0.48420013283230623  1.0000
  O   O3        1.0  0.9063441718462643  0.5158645568204747  0.25467618509665607  1.0000
  O   O4        1.0  0.7794630081827734  0.6500759753684091  0.19978780295286205  1.0000
  O   O5        1.0  0.58024271629656  0.8001072155755294  0.4504728123140963  1.0000
  O   O6        1.0  0.12919429356202256  0.5495350803210142  0.34976177630441885  1.0000
  O   O7        1.0  0.6360863828100207  0.3502708140235597  0.5474452938736432  1.0000
  O   O8        1.0  0.08816696429497028  0.45259014907187367  0.8026514733672269  1.0000
  O   O9        1.0  0.2861370538438592  0.19744339570898006  0.6500230722092153  1.0000
  O   O10       1.0  0.41756157163731433  0.25342673116440295  0.5187781458394339  1.0000
  O   O11       1.0  0.8983962586180851  0.4814283537240768  0.7345563322196041  1.0000
  O   O12       1.0  0.16414980658954897  0.2654558107511491  0.7467002898354875  1.0000
  O   O13       1.0  0.3160450146475781  0.3453781114017571  0.34678907646856766  1.0000
  O   O14       1.0  0.9688636320066237  0.6529910090115649  0.998555278304458  1.0000
  O   O15       1.0  0.9708557203696202  0.0014799565279374999  0.6545466946713103  1.0000
  O   O16       1.0  0.4701994158790868  0.6340052788704966  0.007694481534237205  1.0000
  O   O17       1.0  0.4627299732837002  0.9922840020024921  0.6263817865385803  1.0000
  O   O18       1.0  0.8363834585640291  0.37378426775497076  0.3659566471186365  1.0000
