data_image0
_chemical_formula_structural       Cd4H36C42N4O22
_chemical_formula_sum              "Cd4 H36 C42 N4 O22"
_cell_length_a       8.292629977019228
_cell_length_b       10.480523489979731
_cell_length_c       13.116252066307215
_cell_angle_alpha    100.17291941206095
_cell_angle_beta     94.29579203619683
_cell_angle_gamma    98.44116366361946

_space_group_name_H-M_alt    "P 1"
_space_group_IT_number       1

loop_
  _space_group_symop_operation_xyz
  'x, y, z'

loop_
  _atom_site_type_symbol
  _atom_site_label
  _atom_site_symmetry_multiplicity
  _atom_site_fract_x
  _atom_site_fract_y
  _atom_site_fract_z
  _atom_site_occupancy
  Cd  Cd1       1.0  0.520659109424642  0.5527433534983786  0.7929208805106144  1.0000
  Cd  Cd2       1.0  0.4793417917925281  0.447258092733989  0.2070793357673537  1.0000
  Cd  Cd3       1.0  0.8641194573248046  0.245739161411997  0.11075063834326221  1.0000
  Cd  Cd4       1.0  0.13588104612259846  0.7542603136625913  0.889250033806519  1.0000
  H   H1        1.0  0.16453701509191632  0.19125541032937582  0.214784824970657  1.0000
  H   H2        1.0  0.8354624809931863  0.8087450486805922  0.7852159473154003  1.0000
  H   H3        1.0  0.07420249198049331  0.052344398399995405  0.1404371293891415  1.0000
  H   H4        1.0  0.9257968024879872  0.9476550780932198  0.8595634899424168  1.0000
  H   H5        1.0  0.7258071934118534  0.9478471899179939  0.004306381245434908  1.0000
  H   H6        1.0  0.274193293645112  0.052152303529446414  0.9956920055619207  1.0000
  H   H7        1.0  0.31726596177446  0.5450269420199588  0.5594337543381228  1.0000
  H   H8        1.0  0.6827321182516284  0.45497254201617215  0.44056605039440205  1.0000
  H   H9        1.0  0.8759055394041367  0.3495835638722724  0.6530366932068931  1.0000
  H   H10       1.0  0.1240935479842449  0.6504149362284793  0.34696301138935587  1.0000
  H   H11       1.0  0.42936874442978024  0.28554245787866245  0.6403659415448928  1.0000
  H   H12       1.0  0.5706321677143508  0.7144589761051492  0.3596357982946897  1.0000
  H   H13       1.0  0.0509702090564517  0.19326881366605161  0.3619518373102864  1.0000
  H   H14       1.0  0.9490286767153009  0.8067287039179548  0.6380477143314636  1.0000
  H   H15       1.0  0.5920594707887049  0.1874019351340266  0.2604835480661833  1.0000
  H   H16       1.0  0.4079434342261053  0.8125975554761525  0.7395149443776177  1.0000
  H   H17       1.0  0.3270985561530679  0.7924591096540111  0.16269450191546037  1.0000
  H   H18       1.0  0.6729039463493153  0.20754431244179727  0.8373045495281133  1.0000
  H   H19       1.0  0.2283647331516221  0.0725482142877638  0.6081656445637478  1.0000
  H   H20       1.0  0.7716359719124031  0.92745224330357  0.3918351805405322  1.0000
  H   H21       1.0  0.03243166828004719  0.0366602942446264  0.740014042610241  1.0000
  H   H22       1.0  0.9675682201113464  0.9633421420474094  0.2599855120231922  1.0000
  H   H23       1.0  0.2352334839791794  0.4234391871375323  0.9127140959843487  1.0000
  H   H24       1.0  0.7647649992801535  0.5765622619321036  0.08728601465717391  1.0000
  H   H25       1.0  0.3693160214452718  0.012734034304962404  0.2854948163241886  1.0000
  H   H26       1.0  0.630687297729736  0.9872674090901513  0.7145055055902247  1.0000
  H   H27       1.0  0.588551142096982  0.0841704255094697  0.4996118598480663  1.0000
  H   H28       1.0  0.4114489471902162  0.9158270967801841  0.5003869828311025  1.0000
  H   H29       1.0  0.6440674945897983  0.2586077374686511  0.5457763481118079  1.0000
  H   H30       1.0  0.35593118956533226  0.7413887975985958  0.4542230505754432  1.0000
  H   H31       1.0  0.7197540051612705  0.1461460480306158  0.6186944729680235  1.0000
  H   H32       1.0  0.28024346455146093  0.8538504945795468  0.381304111120194  1.0000
  H   H33       1.0  0.7348231526675023  0.4164458717451537  0.9068434987038003  1.0000
  H   H34       1.0  0.26517734531642384  0.5835536094537161  0.09315641166516997  1.0000
  H   H35       1.0  0.839612817508339  0.4778544970285523  0.8232715831064823  1.0000
  H   H36       1.0  0.1603876804755799  0.5221449841703176  0.17672832726248797  1.0000
  C   C1        1.0  0.49358148536816765  0.7312224123812285  0.9918372215184091  1.0000
  C   C2        1.0  0.5064179943265046  0.26877806500159096  0.008161265425222577  1.0000
  C   C3        1.0  0.6455465546397577  0.9578215292414285  0.06635883456961268  1.0000
  C   C4        1.0  0.35445514685960694  0.042177956663096  0.9336403668367766  1.0000
  C   C5        1.0  0.21549711679308817  0.463973106087771  0.5451377880914023  1.0000
  C   C6        1.0  0.7845007561528873  0.5360254015558965  0.4548611019058129  1.0000
  C   C7        1.0  0.1012716989932727  0.4535463962553549  0.6172372370322989  1.0000
  C   C8        1.0  0.8987261848796636  0.5464520991397422  0.3827631765265309  1.0000
  C   C9        1.0  0.5229067395797954  0.8541354040475608  0.07408550080945275  1.0000
  C   C10       1.0  0.4770927565053071  0.14586505496240676  0.9259152714765975  1.0000
  C   C11       1.0  0.008186087818664596  0.21327177020778978  0.9206513832741265  1.0000
  C   C12       1.0  0.9918136044195833  0.7867296774432121  0.07934878018561162  1.0000
  C   C13       1.0  0.9663759984984424  0.35176618540450016  0.5971958761167784  1.0000
  C   C14       1.0  0.0336230888899323  0.6482323146962514  0.40280382847947044  1.0000
  C   C15       1.0  0.1214530160991814  0.5531277866417453  0.7152679950176051  1.0000
  C   C16       1.0  0.8785460658257235  0.44687071958328767  0.2847309477978328  1.0000
  C   C17       1.0  0.3392078996728287  0.2647730947983931  0.6940522173971359  1.0000
  C   C18       1.0  0.6607917980289031  0.73522834672832  0.3059487078434131  1.0000
  C   C19       1.0  0.11787107408548542  0.22796738439123485  0.8360700719541327  1.0000
  C   C20       1.0  0.8821298162047314  0.7720340740897099  0.1639286207622135  1.0000
  C   C21       1.0  0.0678520173696313  0.2653352410568601  0.43434095001821055  1.0000
  C   C22       1.0  0.9321458610398281  0.7346632604625184  0.5656587017598156  1.0000
  C   C23       1.0  0.31183832308003195  0.3906779032886121  0.3718565289408176  1.0000
  C   C24       1.0  0.688160965924972  0.609321579328885  0.62814332860993  1.0000
  C   C25       1.0  0.9505119306984683  0.25801726777719125  0.5054784142036937  1.0000
  C   C26       1.0  0.04948857274893473  0.7419822072973973  0.49452225794608756  1.0000
  C   C27       1.0  0.569912960370118  0.0914965101928118  0.20943058983644386  1.0000
  C   C28       1.0  0.43009014626130687  0.9085039629341195  0.7905680555618559  1.0000
  C   C29       1.0  0.42213046732581455  0.8723115346361681  0.1545391606942417  1.0000
  C   C30       1.0  0.5778712341735498  0.12768795126835641  0.8454600407121406  1.0000
  C   C31       1.0  0.22805516836808692  0.1482781066143701  0.6766356726538802  1.0000
  C   C32       1.0  0.7719445184066842  0.8517233471609131  0.3233637290250543  1.0000
  C   C33       1.0  0.19820981232790302  0.3702252411520135  0.4530675674145996  1.0000
  C   C34       1.0  0.801789471213624  0.6297742475897722  0.5469315283553371  1.0000
  C   C35       1.0  0.11692438615511953  0.12889789767365298  0.7492639306841512  1.0000
  C   C36       1.0  0.8830742987208354  0.8711045339127353  0.25073633291187036  1.0000
  C   C37       1.0  0.23129474045281032  0.34347554570216227  0.8466359424768726  1.0000
  C   C38       1.0  0.7687049517854377  0.6565259019488466  0.15336422098287272  1.0000
  C   C39       1.0  0.44658021222424077  0.9927879589436018  0.22289750788407053  1.0000
  C   C40       1.0  0.5534237118006402  0.007216432001762002  0.7771032728938394  1.0000
  C   C41       1.0  0.6861918691248832  0.162917855995218  0.5398199599734212  1.0000
  C   C42       1.0  0.3138064179813043  0.8370826044333838  0.46018075949440623  1.0000
  N   N1        1.0  0.3407628212274432  0.3603342331800334  0.7779443635776743  1.0000
  N   N2        1.0  0.6592366748576595  0.6396662258299344  0.2220564087083758  1.0000
  N   N3        1.0  0.6678226338947086  0.0742618255824681  0.1321069021606505  1.0000
  N   N4        1.0  0.33217926375780144  0.9257386489630902  0.8678916904194266  1.0000
  O   O1        1.0  0.8205679053662962  0.15688112843402988  0.47773896902480567  1.0000
  O   O2        1.0  0.17943259261762284  0.8431183527648404  0.5222609413441647  1.0000
  O   O3        1.0  0.0580160019215725  0.13833639679224063  0.1817619121621377  1.0000
  O   O4        1.0  0.9419836957801593  0.8616650447344727  0.8182390130784185  1.0000
  O   O5        1.0  0.35876453250246243  0.6523511403935984  0.9843229533176582  1.0000
  O   O6        1.0  0.6412361616346018  0.3476493294463054  0.015676348225000022  1.0000
  O   O7        1.0  0.25873662332764275  0.6307339658613105  0.7419763129285997  1.0000
  O   O8        1.0  0.7412626602138844  0.3692655228804753  0.2580227828413371  1.0000
  O   O9        1.0  0.0026895178694629923  0.562252358285491  0.7711779257366659  1.0000
  O   O10       1.0  0.997311992940233  0.43774613285371805  0.2288226462768392  1.0000
  O   O11       1.0  0.9274438933442257  0.101695094757325  0.9247851793301791  1.0000
  O   O12       1.0  0.07255821685186699  0.8983063500564157  0.07521508976601149  1.0000
  O   O13       1.0  0.004162356042989788  0.3175127560509807  0.9868929673736916  1.0000
  O   O14       1.0  0.9958395525364735  0.6824877062460075  0.013107148768000263  1.0000
  O   O15       1.0  0.6040587474270255  0.7167184571919806  0.9303267554882453  1.0000
  O   O16       1.0  0.3959407268041631  0.28328202631512056  0.0696709696745756  1.0000
  O   O17       1.0  0.3945539273164372  0.5045740393483912  0.3777748420720997  1.0000
  O   O18       1.0  0.6054429382672452  0.4954254522306556  0.6222241480613916  1.0000
  O   O19       1.0  0.3209261948610163  0.295477508146142  0.2969616566769986  1.0000
  O   O20       1.0  0.6790741015062808  0.7045209905359825  0.7030381007374729  1.0000
  O   O21       1.0  0.730993376380866  0.43301994527043774  0.8350866297020687  1.0000
  O   O22       1.0  0.26900610877727626  0.5669805259881002  0.1649126190223669  1.0000
