data_image0
_chemical_formula_structural       Nd4H44C16S6N4O40
_chemical_formula_sum              "Nd4 H44 C16 S6 N4 O40"
_cell_length_a       6.628086448851585
_cell_length_b       12.62029548328833
_cell_length_c       13.527650947235815
_cell_angle_alpha    79.37726045484503
_cell_angle_beta     75.8900607626267
_cell_angle_gamma    74.78491505478793

_space_group_name_H-M_alt    "P 1"
_space_group_IT_number       1

loop_
  _space_group_symop_operation_xyz
  'x, y, z'

loop_
  _atom_site_type_symbol
  _atom_site_label
  _atom_site_symmetry_multiplicity
  _atom_site_fract_x
  _atom_site_fract_y
  _atom_site_fract_z
  _atom_site_occupancy
  Nd  Nd1       1.0  0.09931297911269607  0.5493832165757766  0.1316082066112614  1.0000
  Nd  Nd2       1.0  0.7802656078221875  0.9506855651301365  0.3684002847336387  1.0000
  Nd  Nd3       1.0  0.9006870797060532  0.450616819940585  0.8683920512872874  1.0000
  Nd  Nd4       1.0  0.21973382074486378  0.0493144713862179  0.6315990468365555  1.0000
  H   H1        1.0  0.31593603038564316  0.9760698158322683  0.9101832521822573  1.0000
  H   H2        1.0  0.2024707622296093  0.5239575641077607  0.5897223597887944  1.0000
  H   H3        1.0  0.6840647576156013  0.023928564613456205  0.0898172034246514  1.0000
  H   H4        1.0  0.7975317690171269  0.47604164437328234  0.4102774457072513  1.0000
  H   H5        1.0  0.2003614293021203  0.910336232129616  0.0325594469064683  1.0000
  H   H6        1.0  0.14335255154146173  0.5897689831302841  0.4672942568518792  1.0000
  H   H7        1.0  0.7996392501583148  0.0896621483161084  0.96744267382131  1.0000
  H   H8        1.0  0.8566496151140226  0.4102310533860774  0.5327054497899865  1.0000
  H   H9        1.0  0.6953904343450572  0.6392921194165879  0.2790512016248314  1.0000
  H   H10       1.0  0.6137984388562291  0.860518315270177  0.2209987326989307  1.0000
  H   H11       1.0  0.30460952554289394  0.3607095731704106  0.720949784893712  1.0000
  H   H12       1.0  0.3862002509183001  0.13948172124617741  0.7790013376637859  1.0000
  H   H13       1.0  0.8615533642148564  0.6823698287892201  0.3186879739278581  1.0000
  H   H14       1.0  0.862607611994925  0.8175871681487905  0.18148352926215236  1.0000
  H   H15       1.0  0.138448802440628  0.3176302077271346  0.6813117327140078  1.0000
  H   H16       1.0  0.137389600194574  0.182412868367571  0.8185180186855945  1.0000
  H   H17       1.0  0.11577055485652478  0.3281553646515505  0.27979314125853694  1.0000
  H   H18       1.0  0.7236905870461641  0.17206905117775056  0.2201664281232496  1.0000
  H   H19       1.0  0.8842308730064444  0.671844671864811  0.7202073041758439  1.0000
  H   H20       1.0  0.2763094813826046  0.827932641409241  0.7798328932744241  1.0000
  H   H21       1.0  0.32945342384436327  0.36364992658387524  0.2620453660649034  1.0000
  H   H22       1.0  0.9550582475944935  0.1363534038155763  0.2379685102975131  1.0000
  H   H23       1.0  0.6705458961818636  0.6363501099324793  0.7379556306261604  1.0000
  H   H24       1.0  0.04494218542552635  0.8636474607361039  0.7620309099543405  1.0000
  H   H25       1.0  0.63050941884287  0.7916075600531729  0.8739097277740768  1.0000
  H   H26       1.0  0.2967111585485681  0.708477782359097  0.6260367765385836  1.0000
  H   H27       1.0  0.3694944910580987  0.20839330449850732  0.126089328756926  1.0000
  H   H28       1.0  0.7032892648614322  0.29152142612193904  0.37396358021413784  1.0000
  H   H29       1.0  0.4271963706852306  0.7470874131569474  0.9748915199891712  1.0000
  H   H30       1.0  0.14969361331519357  0.7530169740676342  0.5249467206760556  1.0000
  H   H31       1.0  0.5728070078948378  0.2529117953240956  0.025105881593489712  1.0000
  H   H32       1.0  0.8503050668493161  0.24698140637809027  0.475054286187536  1.0000
  H   H33       1.0  0.13842864490690937  0.11614768599089592  0.032783134427859295  1.0000
  H   H34       1.0  0.28712600417691203  0.3840137991542534  0.4669573381049545  1.0000
  H   H35       1.0  0.8615704094588708  0.8838515224901473  0.9672170347890302  1.0000
  H   H36       1.0  0.7128751580256036  0.6159854093267896  0.5330422798552519  1.0000
  H   H37       1.0  0.28893973168409565  0.03688566126621141  0.12515442811175603  1.0000
  H   H38       1.0  0.4505899528740686  0.4632576071019444  0.37476085174325385  1.0000
  H   H39       1.0  0.7110606917259042  0.9631135472148246  0.8748459286409727  1.0000
  H   H40       1.0  0.5494139570269073  0.5367432574497286  0.6252382047877489  1.0000
  H   H41       1.0  0.5239213311151903  0.8579563739969416  0.08204796638145952  1.0000
  H   H42       1.0  0.46386303953910624  0.6420055911529802  0.4179750473293069  1.0000
  H   H43       1.0  0.4760780878418419  0.1420420064487828  0.9179523016896098  1.0000
  H   H44       1.0  0.5361391271163786  0.3579944453633814  0.5820246593125589  1.0000
  C   C1        1.0  0.32243058897099536  0.9562069046291484  0.9919608260559869  1.0000
  C   C2        1.0  0.27070668585867713  0.543854424758898  0.5079702950671816  1.0000
  C   C3        1.0  0.6775694602377341  0.0437914758165689  0.00804036834342978  1.0000
  C   C4        1.0  0.7292983178160379  0.4561439556868195  0.49202905802635394  1.0000
  C   C5        1.0  0.7418391974805161  0.6880344183982103  0.005385241765566175  1.0000
  C   C6        1.0  0.43559869278963953  0.8119532158465574  0.4945597795056358  1.0000
  C   C7        1.0  0.2581586275138008  0.3119589938356029  0.994610061460463  1.0000
  C   C8        1.0  0.5643859593983294  0.1880542729876638  0.5054454876946223  1.0000
  C   C9        1.0  0.5759640055427724  0.776286422568127  0.9576020338213098  1.0000
  C   C10       1.0  0.3103226972599559  0.723745925583799  0.5423481580492151  1.0000
  C   C11       1.0  0.42403927410649805  0.22371444198354604  0.0423960963813457  1.0000
  C   C12       1.0  0.6896769969675418  0.27625493896787395  0.4576520009951537  1.0000
  C   C13       1.0  0.2897852112249666  0.05868534707763472  0.0426610016825393  1.0000
  C   C14       1.0  0.3909742403073296  0.4413891943591467  0.4572289208717351  1.0000
  C   C15       1.0  0.7102144733925116  0.9413138614034084  0.9573400938627046  1.0000
  C   C16       1.0  0.6090303987761416  0.5586100141218964  0.5427703333676277  1.0000
  S   S1        1.0  0.33910551230843555  0.5899917246307638  0.8566829466296608  1.0000
  S   S2        1.0  0.7858192382583342  0.9099520237421572  0.6433087347202004  1.0000
  S   S3        1.0  0.6608947539819212  0.41000665581495355  0.1433149175280164  1.0000
  S   S4        1.0  0.2141782492016304  0.0900504968801528  0.3566927042008459  1.0000
  S   S5        1.0  0.2656679515541998  0.7499871928398392  0.2500742085176242  1.0000
  S   S6        1.0  0.7343311124216002  0.2500136717118338  0.7499250241983901  1.0000
  N   N1        1.0  0.5343546487085508  0.8813491997597894  0.0025285543020529904  1.0000
  N   N2        1.0  0.41838064641675715  0.6186500269794308  0.497504298420921  1.0000
  N   N3        1.0  0.4656436668647149  0.11865000872125363  0.9974723537073514  1.0000
  N   N4        1.0  0.5816201511945066  0.3813500095369237  0.5024952206851054  1.0000
  O   O1        1.0  0.2319747290011235  0.6343860101586857  0.9557558392199113  1.0000
  O   O2        1.0  0.8219530807878714  0.865515508413033  0.5442358970854713  1.0000
  O   O3        1.0  0.7680234876413368  0.3656148543929875  0.04424579740949499  1.0000
  O   O4        1.0  0.17804424955246378  0.1344861841739586  0.45576304924053096  1.0000
  O   O5        1.0  0.40948190075031504  0.6814399451273445  0.779459714791308  1.0000
  O   O6        1.0  0.8703446691840494  0.8185112555634433  0.7206271047890453  1.0000
  O   O7        1.0  0.5905180495276171  0.3185600913890099  0.22054220822811027  1.0000
  O   O8        1.0  0.12965713288018318  0.1814896089882367  0.2793725029986405  1.0000
  O   O9        1.0  0.19192784806241284  0.5461894843550681  0.8165320915579173  1.0000
  O   O10       1.0  0.5549138495502389  0.9539008262691127  0.6833330730526086  1.0000
  O   O11       1.0  0.808072210756336  0.4538105521612935  0.18346816634063148  1.0000
  O   O12       1.0  0.44508620926851  0.0460992102472488  0.3166671848459401  1.0000
  O   O13       1.0  0.528877479757895  0.49970606572036064  0.8710823359306518  1.0000
  O   O14       1.0  0.8997773902386258  0.00020535275881170003  0.628912114710225  1.0000
  O   O15       1.0  0.4711173685444336  0.5002947988313124  0.12891799929872857  1.0000
  O   O16       1.0  0.10021993049168276  0.9997946837575427  0.37108776811665223  1.0000
  O   O17       1.0  0.18961142621132868  0.7200619964549588  0.16540306362435328  1.0000
  O   O18       1.0  0.07545592697131556  0.7799653834850631  0.33470943248946844  1.0000
  O   O19       1.0  0.8103872635631999  0.2799380400613956  0.8345970067383561  1.0000
  O   O20       1.0  0.9245412948282024  0.22003630910192845  0.6652911789574035  1.0000
  O   O21       1.0  0.36657686510270104  0.8456683298809582  0.2088342122496982  1.0000
  O   O22       1.0  0.42100123194685324  0.6542265644082194  0.29133736137715965  1.0000
  O   O23       1.0  0.6334253015527834  0.1543317066354035  0.7911654943921675  1.0000
  O   O24       1.0  0.5789990925323496  0.3457743001434537  0.7086637239955563  1.0000
  O   O25       1.0  0.8047720832922071  0.7087203967072072  0.07967116278292963  1.0000
  O   O26       1.0  0.5932882158824596  0.791258129149064  0.4203795991260293  1.0000
  O   O27       1.0  0.19523159991711483  0.2912788117738287  0.9203321604906874  1.0000
  O   O28       1.0  0.40671405931384197  0.20874190736729054  0.5796184423949668  1.0000
  O   O29       1.0  0.8064655350660246  0.5974216855372846  0.9687371863126231  1.0000
  O   O30       1.0  0.37296735407301196  0.9025998981555148  0.5312095563420414  1.0000
  O   O31       1.0  0.1935276473996836  0.4025841472262997  0.03126514724090868  1.0000
  O   O32       1.0  0.6270291504559112  0.09739434211361703  0.4687897170640625  1.0000
  O   O33       1.0  0.8447208118010396  0.6201562232224873  0.2898954213658342  1.0000
  O   O34       1.0  0.7546734808975588  0.8798073979980643  0.21012662160682544  1.0000
  O   O35       1.0  0.15528135485444503  0.3798438132938671  0.7101042852760315  1.0000
  O   O36       1.0  0.2453252088769701  0.1201926385182901  0.7898734487558912  1.0000
  O   O37       1.0  0.1712790075358015  0.3947542452612893  0.2755106883471612  1.0000
  O   O38       1.0  0.8412257894556774  0.1053467933056638  0.22451772732624423  1.0000
  O   O39       1.0  0.828719682238727  0.6052457912550722  0.7244893820155482  1.0000
  O   O40       1.0  0.15877390477182018  0.8946540712460163  0.7754824317181246  1.0000
