data_image0
_chemical_formula_structural       Zn2H42C44Br2N18O8
_chemical_formula_sum              "Zn2 H42 C44 Br2 N18 O8"
_cell_length_a       16.473944625851892
_cell_length_b       17.92267488786108
_cell_length_c       17.763876453435934
_cell_angle_alpha    90.76465713589992
_cell_angle_beta     97.55685735719945
_cell_angle_gamma    90.76442470496731

_space_group_name_H-M_alt    "P 1"
_space_group_IT_number       1

loop_
  _space_group_symop_operation_xyz
  'x, y, z'

loop_
  _atom_site_type_symbol
  _atom_site_label
  _atom_site_symmetry_multiplicity
  _atom_site_fract_x
  _atom_site_fract_y
  _atom_site_fract_z
  _atom_site_occupancy
  Zn  Zn1       1.0  0.5913107309906495  0.4975385436208697  0.5090599541669505  1.0000
  Zn  Zn2       1.0  0.41114792752831875  0.503147620371351  0.4912759268220412  1.0000
  H   H1        1.0  0.008712903472151399  0.41848152002860667  0.4940473290956647  1.0000
  H   H2        1.0  0.9922274997885978  0.5877947169972304  0.5020211599185772  1.0000
  H   H3        1.0  0.5723146716480515  0.5519132578701756  0.9945451984263513  1.0000
  H   H4        1.0  0.4259503556622236  0.4455766853073514  0.0037376077909741104  1.0000
  H   H5        1.0  0.6143756080239272  0.2660058716333893  0.4785152024258892  1.0000
  H   H6        1.0  0.6164986023004744  0.12665104104398486  0.472379722899298  1.0000
  H   H7        1.0  0.3715615204253027  0.11982758837565653  0.5336868350448469  1.0000
  H   H8        1.0  0.6255686293396748  0.886850445410836  0.47167897748511933  1.0000
  H   H9        1.0  0.38625073468583787  0.7310331774312785  0.5149858688253914  1.0000
  H   H10       1.0  0.37471026889655695  0.8690587001723955  0.51554125362847  1.0000
  H   H11       1.0  0.33427630627286214  0.3886721300208933  0.411605083930688  1.0000
  H   H12       1.0  0.2396378496740184  0.3719814705909101  0.3607600098642579  1.0000
  H   H13       1.0  0.0503452193013345  0.38802231520325137  0.3986217736943091  1.0000
  H   H14       1.0  0.13320448048813197  0.33401645694103627  0.4078705413368837  1.0000
  H   H15       1.0  0.35274865207556866  0.613320514808123  0.5606967109744403  1.0000
  H   H16       1.0  0.29354813081297954  0.6044030914004355  0.6303210852985188  1.0000
  H   H17       1.0  0.08086586556427021  0.579263988796754  0.6057862675725476  1.0000
  H   H18       1.0  0.16804097811433394  0.6322825034999937  0.6123527182516285  1.0000
  H   H19       1.0  0.8592314414894205  0.35389637241470956  0.42185213392323834  1.0000
  H   H20       1.0  0.8597160137593678  0.4198278771684159  0.3579714340196604  1.0000
  H   H21       1.0  0.6480300546199658  0.40277604230480796  0.4206057868947752  1.0000
  H   H22       1.0  0.7314441397899714  0.37751228368614426  0.38251748231284216  1.0000
  H   H23       1.0  0.9331580393399009  0.6465130926909312  0.5784211209505801  1.0000
  H   H24       1.0  0.8560315060494972  0.6457138395389562  0.6327273927908409  1.0000
  H   H25       1.0  0.6667842940735511  0.580049152402239  0.6141423425315937  1.0000
  H   H26       1.0  0.7300783717251207  0.6506281863256973  0.5978872200706888  1.0000
  H   H27       1.0  0.6560047950603122  0.4831162032470644  0.6955482045975432  1.0000
  H   H28       1.0  0.6977351936688765  0.44774919254529516  0.7795103621580993  1.0000
  H   H29       1.0  0.669723768398974  0.46898653482198677  0.9504260712557838  1.0000
  H   H30       1.0  0.7114053196866835  0.5094607699339448  0.8784233126197735  1.0000
  H   H31       1.0  0.36029335623459247  0.4866501896944015  0.6661618497982077  1.0000
  H   H32       1.0  0.31544424983859193  0.5230127218579811  0.7400359807498235  1.0000
  H   H33       1.0  0.3634286036220332  0.5199154040628358  0.9255252580800574  1.0000
  H   H34       1.0  0.31208332359725693  0.4891350728489881  0.8413222656509944  1.0000
  H   H35       1.0  0.6452350528927654  0.5327014706336044  0.08020773907288972  1.0000
  H   H36       1.0  0.6862853744147088  0.4955916840255626  0.16318211493253904  1.0000
  H   H37       1.0  0.6424419649087981  0.5145609675652735  0.3324874757763041  1.0000
  H   H38       1.0  0.6762569706740678  0.5603443294066821  0.260407940618542  1.0000
  H   H39       1.0  0.3352448030182131  0.5110976802600858  0.046211923859360106  1.0000
  H   H40       1.0  0.29387483998079494  0.5206142100282773  0.12693403000886863  1.0000
  H   H41       1.0  0.3449782165053891  0.49518727612746716  0.3076611596769538  1.0000
  H   H42       1.0  0.3012445770882337  0.45641620941319155  0.22411164396461203  1.0000
  C   C1        1.0  0.5061384737320935  0.4968483761034292  0.6486079945195229  1.0000
  C   C2        1.0  0.5109244301643017  0.6458298381956808  0.4988801310494112  1.0000
  C   C3        1.0  0.4972240527216628  0.5011132776188701  0.352623167782177  1.0000
  C   C4        1.0  0.4957001334511304  0.3550570226907723  0.5021622058960845  1.0000
  C   C5        1.0  0.24803054081824893  0.5504234569411467  0.5315604106980559  1.0000
  C   C6        1.0  0.16331552040798408  0.5464067583987886  0.5352457822440542  1.0000
  C   C7        1.0  0.11644319363514201  0.4895558414991044  0.4931775202329264  1.0000
  C   C8        1.0  0.15550041798403672  0.4415950234958998  0.4463869195735057  1.0000
  C   C9        1.0  0.23994196587057812  0.45131455866518877  0.44245644732456674  1.0000
  C   C10       1.0  0.0294218057516034  0.4766952837313951  0.4969674810628462  1.0000
  C   C11       1.0  0.9722873917301557  0.5293113774964271  0.5008252594135955  1.0000
  C   C12       1.0  0.8460013363660791  0.5628098189799856  0.5517742503902952  1.0000
  C   C13       1.0  0.885218436117249  0.5153790637598022  0.5042841033785521  1.0000
  C   C14       1.0  0.8391290145030155  0.457577315048013  0.46333986767040614  1.0000
  C   C15       1.0  0.755357335313917  0.4496573651913351  0.4705120621824578  1.0000
  C   C16       1.0  0.7620193776691552  0.550857577371886  0.5567286778231022  1.0000
  C   C17       1.0  0.508779003160278  0.4933592911101669  0.7319338925164516  1.0000
  C   C18       1.0  0.434685863040535  0.49155891258932616  0.7659990454541656  1.0000
  C   C19       1.0  0.43760091110912913  0.49295049161270293  0.8457554994838361  1.0000
  C   C20       1.0  0.5135088546601667  0.5005466910699569  0.8926897552329579  1.0000
  C   C21       1.0  0.5866967983527546  0.4994395151931814  0.8592081413086989  1.0000
  C   C22       1.0  0.5854504084405718  0.49312113377397526  0.7800402320540912  1.0000
  C   C23       1.0  0.5216534344226815  0.5134726560615164  0.9746627692056791  1.0000
  C   C24       1.0  0.47557438504282606  0.48454126627635213  0.0254248879980352  1.0000
  C   C25       1.0  0.4138406205263011  0.496021541351901  0.1429644713876002  1.0000
  C   C26       1.0  0.4857327480599238  0.4959662110502451  0.10764324896923941  1.0000
  C   C27       1.0  0.5627446201647006  0.5023053581917409  0.15389146432009684  1.0000
  C   C28       1.0  0.5666876190493895  0.5066041058763984  0.2336687220902293  1.0000
  C   C29       1.0  0.49390412030117403  0.5018234558203287  0.2690928256485989  1.0000
  C   C30       1.0  0.4166395421305253  0.49715110036476073  0.2225219571657462  1.0000
  C   C31       1.0  0.4915368400676599  0.2715211017544021  0.5051230052638332  1.0000
  C   C32       1.0  0.5610570256073899  0.23284811673315883  0.4889062395711434  1.0000
  C   C33       1.0  0.5624658572109454  0.15560811779862857  0.486017234166745  1.0000
  C   C34       1.0  0.4934882240501183  0.11364880747068898  0.5011661887065344  1.0000
  C   C35       1.0  0.42430920468397915  0.1515910071267683  0.5199533026425912  1.0000
  C   C36       1.0  0.4236034137509249  0.22925358135838544  0.5213821716670424  1.0000
  C   C37       1.0  0.49411402357390716  0.034764612890327784  0.4984215061355642  1.0000
  C   C38       1.0  0.49598757871781635  0.9667017796681066  0.4960459027837914  1.0000
  C   C39       1.0  0.4998311599899736  0.8879576862429204  0.49443683408243544  1.0000
  C   C40       1.0  0.5728711988011029  0.8528539735056953  0.4815706982410291  1.0000
  C   C41       1.0  0.578350963929104  0.7753760806546169  0.4818016767429469  1.0000
  C   C42       1.0  0.5114577315276849  0.729633492969647  0.4948390613141457  1.0000
  C   C43       1.0  0.4385648181243909  0.7660321543141393  0.5060434863083503  1.0000
  C   C44       1.0  0.4319066524274221  0.8429203747087471  0.5061710467694953  1.0000
  Br  Br1       1.0  0.32850029605600645  0.27421171713380227  0.5519295876192845  1.0000
  Br  Br2       1.0  0.6824570830888277  0.738763482430052  0.46261189952480203  1.0000
  N   N1        1.0  0.2849878665183923  0.5035003456016013  0.48619151100511004  1.0000
  N   N2        1.0  0.7179444768012005  0.4959538308554556  0.5161650262194329  1.0000
  N   N3        1.0  0.27754671685543303  0.4088281642170982  0.3922078819911051  1.0000
  N   N4        1.0  0.11214294972970863  0.38682618900607224  0.39879931752950176  1.0000
  N   N5        1.0  0.2941279726675532  0.60667642848788  0.5730942370142955  1.0000
  N   N6        1.0  0.1275510100796922  0.599000300934719  0.5790596959818402  1.0000
  N   N7        1.0  0.8762097117888318  0.40795929025369293  0.4140263893584404  1.0000
  N   N8        1.0  0.7093571038223203  0.39305220409598723  0.4310719103467875  1.0000
  N   N9        1.0  0.8902291791437448  0.6154623118920738  0.6003447100855795  1.0000
  N   N10       1.0  0.7253659003565147  0.5947790238209906  0.6070085566017553  1.0000
  N   N11       1.0  0.6615607507140311  0.487863604557141  0.7531503399028878  1.0000
  N   N12       1.0  0.661939171157819  0.5053645227713447  0.9067467481052989  1.0000
  N   N13       1.0  0.35707013611089183  0.4868994754735212  0.7232776522789452  1.0000
  N   N14       1.0  0.3645785659622547  0.488082270096818  0.8779162868188097  1.0000
  N   N15       1.0  0.6367118576257553  0.4975537014764342  0.12274036198399331  1.0000
  N   N16       1.0  0.6458621280120413  0.5139926618461104  0.2755168099486269  1.0000
  N   N17       1.0  0.33569585337532004  0.49266251238387326  0.10007091537107732  1.0000
  N   N18       1.0  0.3411262383204346  0.4956148111114447  0.24996950445986957  1.0000
  O   O1        1.0  0.5720848456818004  0.5146676243077977  0.6203976559383904  1.0000
  O   O2        1.0  0.4384956696158824  0.4831436865592379  0.6056359801272323  1.0000
  O   O3        1.0  0.444278487927825  0.6150114652474984  0.513113283335919  1.0000
  O   O4        1.0  0.57507693605298  0.611082969612127  0.4888493310537641  1.0000
  O   O5        1.0  0.43352824454362354  0.5194619260338696  0.3824433573801543  1.0000
  O   O6        1.0  0.5640959529161691  0.48130415466852844  0.3932109597966972  1.0000
  O   O7        1.0  0.5647489847104552  0.3854101782347358  0.5248663334262035  1.0000
  O   O8        1.0  0.43139465848874897  0.3890446038480704  0.47480359478423406  1.0000
