data_image0
_chemical_formula_structural       CoH18C20I8O12
_chemical_formula_sum              "Co1 H18 C20 I8 O12"
_cell_length_a       9.630832225423404
_cell_length_b       10.691611459755256
_cell_length_c       10.010571493228815
_cell_angle_alpha    103.44164796721459
_cell_angle_beta     98.10487952237797
_cell_angle_gamma    113.45750956979242

_space_group_name_H-M_alt    "P 1"
_space_group_IT_number       1

loop_
  _space_group_symop_operation_xyz
  'x, y, z'

loop_
  _atom_site_type_symbol
  _atom_site_label
  _atom_site_symmetry_multiplicity
  _atom_site_fract_x
  _atom_site_fract_y
  _atom_site_fract_z
  _atom_site_occupancy
  Co  Co1       1.0  0.49999941878864723  0.5000017888703142  0.5000010669477463  1.0000
  H   H1        1.0  0.5408321237574824  0.28166044324597556  0.40534661448166537  1.0000
  H   H2        1.0  0.45916379671218976  0.7183410875258858  0.5946606944492673  1.0000
  H   H3        1.0  0.728259027627729  0.6607192462136169  0.7399361093750089  1.0000
  H   H4        1.0  0.2717452572138654  0.3392801989239089  0.2600597784729359  1.0000
  H   H5        1.0  0.8470895582511205  0.5089567897187594  0.5728197935947321  1.0000
  H   H6        1.0  0.1529096938594563  0.4910477933257625  0.42718061830663606  1.0000
  H   H7        1.0  0.8234332001605722  0.3550068370705546  0.43614568430638206  1.0000
  H   H8        1.0  0.17656343352064854  0.6449965679370993  0.5638541375741682  1.0000
  H   H9        1.0  0.7535296206576305  0.3328022028062208  0.590142121385135  1.0000
  H   H10       1.0  0.24647246483626623  0.6672015658478685  0.4098614590016823  1.0000
  H   H11       1.0  0.5894080361728841  0.3924801320966936  0.7634955269678444  1.0000
  H   H12       1.0  0.4106216450671597  0.6075268858163981  0.23650621894796595  1.0000
  H   H13       1.0  0.5201999907320174  0.5030107711342425  0.8689382936472259  1.0000
  H   H14       1.0  0.4797928283693269  0.4969722602820642  0.13104948788198814  1.0000
  H   H15       1.0  0.7265380973651006  0.5557080658314534  0.9008412006561316  1.0000
  H   H16       1.0  0.2734612475665302  0.4443083710713297  0.09917087683197684  1.0000
  H   H17       1.0  0.2946582436486907  0.9717057311257736  0.30512971354539087  1.0000
  H   H18       1.0  0.7053428072695312  0.028281277610069808  0.6948729779982801  1.0000
  C   C1        1.0  0.28858508233906116  0.18408728360687832  0.4480210948821863  1.0000
  C   C2        1.0  0.7114158432792906  0.81591633049473  0.5519793079660859  1.0000
  C   C3        1.0  0.1382269343563181  0.0809344217437129  0.4685852431511037  1.0000
  C   C4        1.0  0.8617706152827224  0.9190710961507168  0.5314141670378235  1.0000
  C   C5        1.0  0.9940914020823188  0.061768296502037925  0.3905014878501946  1.0000
  C   C6        1.0  0.005908695850884237  0.9382405623215321  0.6095009877226192  1.0000
  C   C7        1.0  0.8555374151601853  0.9813878513177278  0.42306785967548444  1.0000
  C   C8        1.0  0.14446223927598112  0.018619968108957597  0.5769353271259092  1.0000
  C   C9        1.0  0.7698096149159355  0.39496608118098925  0.5152881093839525  1.0000
  C   C10       1.0  0.2301896371946341  0.6050385018635254  0.4847123025174228  1.0000
  C   C11       1.0  0.6147727836655791  0.5036785850791716  0.8190033873207343  1.0000
  C   C12       1.0  0.3852344517957675  0.4963274373696507  0.18099834081111513  1.0000
  C   C13       1.0  0.1411110023849885  0.8079548336849243  0.14498385864942517  1.0000
  C   C14       1.0  0.8588938404272354  0.1920385318917326  0.8550167322957805  1.0000
  C   C15       1.0  0.07348516737564388  0.6474808887037043  0.07596207293509147  1.0000
  C   C16       1.0  0.9265170280434702  0.3525112647430931  0.9240369172237594  1.0000
  C   C17       1.0  0.13215779047649787  0.593176520367642  0.9678299355082276  1.0000
  C   C18       1.0  0.8678418566484539  0.4068122921500219  0.032165989266736986  1.0000
  C   C19       1.0  0.058234976557223254  0.4455455777489093  0.8907837049893815  1.0000
  C   C20       1.0  0.9417629680961995  0.5544441696186624  0.10921121807314195  1.0000
  I   I1        1.0  0.9856478821231038  0.14136197024608782  0.2171100020357955  1.0000
  I   I2        1.0  0.014349597380743291  0.8586457105406212  0.782891883516193  1.0000
  I   I3        1.0  0.6343092220839992  0.9440526444757964  0.3087309704645095  1.0000
  I   I4        1.0  0.36568979065723545  0.0559583931525509  0.6912758567605126  1.0000
  I   I5        1.0  0.33668359058717107  0.7354931523345131  0.9288927056980045  1.0000
  I   I6        1.0  0.663305381455487  0.2644979647144652  0.07109241237120757  1.0000
  I   I7        1.0  0.14284317528470322  0.36234474876897593  0.7274773309701957  1.0000
  I   I8        1.0  0.8571453836060956  0.6376526183058574  0.27250813782944056  1.0000
  O   O1        1.0  0.3267073114117167  0.31535751156572195  0.5116328616380983  1.0000
  O   O2        1.0  0.6732914392743155  0.6846459638959104  0.4883662399607759  1.0000
  O   O3        1.0  0.36486936367841594  0.1375773258545792  0.3733808786586152  1.0000
  O   O4        1.0  0.6351313044331094  0.8624232223298592  0.6266218031173311  1.0000
  O   O5        1.0  0.6228138447524642  0.3840699493293158  0.444359124728031  1.0000
  O   O6        1.0  0.3771830907739755  0.6159315655300335  0.5556463079137616  1.0000
  O   O7        1.0  0.6223157282529928  0.582124148320702  0.7185252262921582  1.0000
  O   O8        1.0  0.3776873021624851  0.4178817673131618  0.2814789531685804  1.0000
  O   O9        1.0  0.0907729352799223  0.8779811410426889  0.08963274569362072  1.0000
  O   O10       1.0  0.9092384445369605  0.12201040937562622  0.9103672521056512  1.0000
  O   O11       1.0  0.25447895076690946  0.8613448481730047  0.2641703597231669  1.0000
  O   O12       1.0  0.7455203976797763  0.13864309541275333  0.7358313301080629  1.0000
