data_image0
_chemical_formula_structural       Li4H8C16O8
_chemical_formula_sum              "Li4 H8 C16 O8"
_cell_length_a       5.02037083208219
_cell_length_b       8.45196191440645
_cell_length_c       8.502037184042171
_cell_angle_alpha    93.51056031497932
_cell_angle_beta     89.99939701906611
_cell_angle_gamma    90.00026892150369

_space_group_name_H-M_alt    "P 1"
_space_group_IT_number       1

loop_
  _space_group_symop_operation_xyz
  'x, y, z'

loop_
  _atom_site_type_symbol
  _atom_site_label
  _atom_site_symmetry_multiplicity
  _atom_site_fract_x
  _atom_site_fract_y
  _atom_site_fract_z
  _atom_site_occupancy
  Li  Li1       1.0  0.6038530845545226  0.9917951526958503  0.3535961144567494  1.0000
  Li  Li2       1.0  0.10385372925076548  0.008211058512152602  0.14639314669429382  1.0000
  Li  Li3       1.0  0.3961487561144637  0.008195781023239602  0.6464008742374716  1.0000
  Li  Li4       1.0  0.8961520953424227  0.9917916676961553  0.853593906893515  1.0000
  H   H1        1.0  0.6952109184508614  0.6195797368126676  0.3092636105467789  1.0000
  H   H2        1.0  0.1951915625648866  0.3804124365468411  0.1907442585883175  1.0000
  H   H3        1.0  0.3048227921476254  0.3804054059604952  0.6907565826221216  1.0000
  H   H4        1.0  0.8048122699680036  0.6195916040824798  0.8092652154957349  1.0000
  H   H5        1.0  0.38553634619133687  0.6551427532777084  0.6082173946138667  1.0000
  H   H6        1.0  0.8855509327899468  0.34484594727583584  0.8917904650506259  1.0000
  H   H7        1.0  0.6144575268729824  0.34484346616025613  0.3917840387773026  1.0000
  H   H8        1.0  0.114470826790452  0.6551627940532471  0.1082122111375554  1.0000
  C   C1        1.0  0.8276064988203088  0.5666918265917716  0.3928487178054567  1.0000
  C   C2        1.0  0.3275692521237588  0.4333288168772285  0.10714571978794397  1.0000
  C   C3        1.0  0.17240928519736093  0.4333394637857211  0.6071599076240375  1.0000
  C   C4        1.0  0.672412669940215  0.5666857493577523  0.8928396348664123  1.0000
  C   C5        1.0  0.043634566188330795  0.6546532226192525  0.4553021289435151  1.0000
  C   C6        1.0  0.5436150103129904  0.3453423210505022  0.04469518104523469  1.0000
  C   C7        1.0  0.9563513388043248  0.34529409722932775  0.5447347964221476  1.0000
  C   C8        1.0  0.45635496068766906  0.6546946855487336  0.9552772975445906  1.0000
  C   C9        1.0  0.2156106009676577  0.5868291204605854  0.5625820684698013  1.0000
  C   C10       1.0  0.715575492164433  0.41318551233858614  0.9374260100865826  1.0000
  C   C11       1.0  0.7844051830130708  0.41319743526104713  0.437427471881513  1.0000
  C   C12       1.0  0.284376551317628  0.5868102307357645  0.0625830062632602  1.0000
  C   C13       1.0  0.10219344059106557  0.8166936076625362  0.4016711853901853  1.0000
  C   C14       1.0  0.6021869254835294  0.1832842011097355  0.0983247529619717  1.0000
  C   C15       1.0  0.8978083998969737  0.1832926932898999  0.5983443669687603  1.0000
  C   C16       1.0  0.39782487440130154  0.8166723639043666  0.9016715152393429  1.0000
  O   O1        1.0  0.941238203152679  0.8793602120720934  0.3069685964059374  1.0000
  O   O2        1.0  0.4412613926279434  0.12064385677269483  0.1930124018539559  1.0000
  O   O3        1.0  0.05875367819402301  0.12063660090542071  0.6930204833177527  1.0000
  O   O4        1.0  0.558748415801915  0.8793588218888574  0.8069664156405452  1.0000
  O   O5        1.0  0.3181994164937477  0.8825735803926519  0.44920218827878944  1.0000
  O   O6        1.0  0.8181948534236269  0.11745174967526852  0.05078433749604019  1.0000
  O   O7        1.0  0.681816367351594  0.11743283775817298  0.5508085931788145  1.0000
  O   O8        1.0  0.18180101196217174  0.8825734372759086  0.9491933697691693  1.0000
