data_image0
_chemical_formula_structural       Zn16H24C100S16N8O76
_chemical_formula_sum              "Zn16 H24 C100 S16 N8 O76"
_cell_length_a       19.62000283416659
_cell_length_b       19.62567580946095
_cell_length_c       33.290227315946034
_cell_angle_alpha    79.17352413949118
_cell_angle_beta     79.23115109095852
_cell_angle_gamma    63.86721377099496

_space_group_name_H-M_alt    "P 1"
_space_group_IT_number       1

loop_
  _space_group_symop_operation_xyz
  'x, y, z'

loop_
  _atom_site_type_symbol
  _atom_site_label
  _atom_site_symmetry_multiplicity
  _atom_site_fract_x
  _atom_site_fract_y
  _atom_site_fract_z
  _atom_site_occupancy
  Zn  Zn1       1.0  0.0579052849050754  0.40198392852408216  0.4777316431403166  1.0000
  Zn  Zn2       1.0  0.9838133189285115  0.4816230146266495  0.5605015036075401  1.0000
  Zn  Zn3       1.0  0.05937351356052291  0.5641185969551546  0.48519698738746087  1.0000
  Zn  Zn4       1.0  0.9034195355415945  0.5569530748724179  0.47729666473262  1.0000
  Zn  Zn5       1.0  0.6960113340039626  0.35107266875525056  0.2704829921810585  1.0000
  Zn  Zn6       1.0  0.6877603637037524  0.1920749590504157  0.2672548995896237  1.0000
  Zn  Zn7       1.0  0.768471107537266  0.2613563756747723  0.18912406558138178  1.0000
  Zn  Zn8       1.0  0.8484999800086612  0.19783838815074248  0.2721761473143829  1.0000
  Zn  Zn9       1.0  0.2675932007233969  0.7640957099850993  0.6881919058810482  1.0000
  Zn  Zn10      1.0  0.35274878124535286  0.6943645076647018  0.7687397339763393  1.0000
  Zn  Zn11      1.0  0.19518227155052867  0.847525901644041  0.7705277074725244  1.0000
  Zn  Zn12      1.0  0.1919824546600424  0.6877890514251916  0.7660662145900758  1.0000
  Zn  Zn13      1.0  0.5609319950356236  0.06063392713505079  0.9824498876978038  1.0000
  Zn  Zn14      1.0  0.4013699818284309  0.05584088051946166  0.9763661321394538  1.0000
  Zn  Zn15      1.0  0.5557062414893394  0.9011366456576657  0.9765605715756964  1.0000
  Zn  Zn16      1.0  0.4843754872335069  0.9810151797358557  0.05890938701181622  1.0000
  H   H1        1.0  0.9571002372491934  0.2572669854786795  0.3450711417394459  1.0000
  H   H2        1.0  0.734277152742692  0.4399996429273898  0.366178041158811  1.0000
  H   H3        1.0  0.0063527113798401  0.306463240058335  0.3925226630363383  1.0000
  H   H4        1.0  0.08539364005157779  0.6058513182816795  0.7036162676641098  1.0000
  H   H5        1.0  0.2068235220907297  0.6872908581046674  0.5993573689950865  1.0000
  H   H6        1.0  0.028034347868128893  0.5658860984484733  0.6557862835080003  1.0000
  H   H7        1.0  0.4745625381603702  0.23805399692462698  0.35249089556004526  1.0000
  H   H8        1.0  0.4807309301697486  0.6790976401874644  0.5971118413512855  1.0000
  H   H9        1.0  0.21679010006639027  0.9774949139648685  0.6010683986836156  1.0000
  H   H10       1.0  0.9621619610818115  0.9605632599991556  0.333942753939894  1.0000
  H   H11       1.0  0.5537760632697585  0.04083468912266136  0.15243204014884532  1.0000
  H   H12       1.0  0.6431124737242726  0.15995347813738897  0.050599775251861  1.0000
  H   H13       1.0  0.5989235962792563  0.09063857907518273  0.2015912253284782  1.0000
  H   H14       1.0  0.5379304722531656  0.765829769846491  0.14583863704943673  1.0000
  H   H15       1.0  0.16272077069406518  0.15781502480493265  0.040684155288339206  1.0000
  H   H16       1.0  0.4909369656742443  0.7857262241735727  0.9089260505605665  1.0000
  H   H17       1.0  0.3063054502300274  0.00787367393517974  0.8890804947236788  1.0000
  H   H18       1.0  0.4440886415408798  0.7376652315339101  0.8598182503120313  1.0000
  H   H19       1.0  0.3011573269001104  0.2824864740149807  0.901101540633583  1.0000
  H   H20       1.0  0.781694986871493  0.015880272506748682  0.9006877234109966  1.0000
  H   H21       1.0  0.7811872427221332  0.5732384725438847  0.37757621101016525  1.0000
  H   H22       1.0  0.08284640786077088  0.745279831882485  0.5342316625306509  1.0000
  H   H23       1.0  0.7878005863156757  0.146115552340362  0.0809510399691149  1.0000
  H   H24       1.0  0.1773407454731313  0.9470743804615936  0.8753272563882321  1.0000
  C   C1        1.0  0.0700158254374443  0.31559890459299583  0.5594517173763195  1.0000
  C   C2        1.0  0.0523318486178397  0.5788059769575115  0.5732554037567539  1.0000
  C   C3        1.0  0.18675963563764947  0.44242996666573486  0.4433045413375539  1.0000
  C   C4        1.0  0.9475681839784258  0.6793947414898799  0.43285786192017645  1.0000
  C   C5        1.0  0.9301452578593582  0.4287272161371477  0.43288008303157727  1.0000
  C   C6        1.0  0.8189961472756622  0.5576097143584704  0.5581055434019008  1.0000
  C   C7        1.0  0.5676128878207437  0.31543228074281876  0.3125753729078298  1.0000
  C   C8        1.0  0.676794502674646  0.17785922842900004  0.18324066317585158  1.0000
  C   C9        1.0  0.6925611885889252  0.4286301242836645  0.18572722590792518  1.0000
  C   C10       1.0  0.9341924982945572  0.19459843565944349  0.18957110054815735  1.0000
  C   C11       1.0  0.8146917463219623  0.31896803897959103  0.3231288500130631  1.0000
  C   C12       1.0  0.8175838891727453  0.06316502468935425  0.30521160098047057  1.0000
  C   C13       1.0  0.43428399726813177  0.6851740127052965  0.6844124059115585  1.0000
  C   C14       1.0  0.3232033394597947  0.8156172469993807  0.817789624027249  1.0000
  C   C15       1.0  0.19012418613776558  0.9319261662832333  0.687382683868421  1.0000
  C   C16       1.0  0.0677278634968772  0.8106225796491913  0.80882465820644  1.0000
  C   C17       1.0  0.1817699597316746  0.6753775828815806  0.6817737415700832  1.0000
  C   C18       1.0  0.3093506935492556  0.5725969389603238  0.8142066645997801  1.0000
  C   C19       1.0  0.4365924822479741  0.18745202092629407  0.9400478214027858  1.0000
  C   C20       1.0  0.42898641189908915  0.9291676604498423  0.9305675474006208  1.0000
  C   C21       1.0  0.6825119429642115  0.9415478426885643  0.9351673335347855  1.0000
  C   C22       1.0  0.5618923597025899  0.8139075599254542  0.05949028570370982  1.0000
  C   C23       1.0  0.5713229833297859  0.06615262684823615  0.06923728450765758  1.0000
  C   C24       1.0  0.31636285146105786  0.06414011764405812  0.059983738350773294  1.0000
  C   C25       1.0  0.8981403166573187  0.3999193966284766  0.40592560099876357  1.0000
  C   C26       1.0  0.8432106334083755  0.34670177934351193  0.3524768890149588  1.0000
  C   C27       1.0  0.8205408007169338  0.4379637295968169  0.39913087527849467  1.0000
  C   C28       1.0  0.9197511143150197  0.30787555493910196  0.3601851903811449  1.0000
  C   C29       1.0  0.7939342004107033  0.4113205067710695  0.37200281425739223  1.0000
  C   C30       1.0  0.9468403406192394  0.3348962274591186  0.38651123720308783  1.0000
  C   C31       1.0  0.08566575533256332  0.6040336094299762  0.6011647713345526  1.0000
  C   C32       1.0  0.14853078118910187  0.6496274581125621  0.6539744591908914  1.0000
  C   C33       1.0  0.1366782163085389  0.6378804015694187  0.5846608333802124  1.0000
  C   C34       1.0  0.098826163247864  0.6147963121709525  0.6703440013327365  1.0000
  C   C35       1.0  0.16719787650873738  0.6611076814041328  0.6113402926594063  1.0000
  C   C36       1.0  0.06729961348263909  0.5925614115220057  0.6439175329219252  1.0000
  C   C37       1.0  0.30290021980225396  0.46374254416301136  0.39907184105364735  1.0000
  C   C38       1.0  0.45400401444003075  0.29787333805545313  0.3565278938047244  1.0000
  C   C39       1.0  0.2608739786426425  0.4217066344462811  0.4167573843976982  1.0000
  C   C40       1.0  0.49398212349338877  0.34128241201783294  0.3389407249515912  1.0000
  C   C41       1.0  0.38500128931817557  0.34254994845786535  0.3791618651541526  1.0000
  C   C42       1.0  0.3743103399420776  0.4186977552118591  0.3782316690509547  1.0000
  C   C43       1.0  0.726597901548736  0.5835166567727159  0.626506843955724  1.0000
  C   C44       1.0  0.5250495699313761  0.6586761022515119  0.6173540993463434  1.0000
  C   C45       1.0  0.7441952057434237  0.5840810835508633  0.583958699691422  1.0000
  C   C46       1.0  0.5094904405816506  0.6583874604673813  0.659658628616647  1.0000
  C   C47       1.0  0.604738466019647  0.6299203095738762  0.6054380345477526  1.0000
  C   C48       1.0  0.6473099384926043  0.6084551111962712  0.639049030819109  1.0000
  C   C49       1.0  0.07439095752604889  0.22428001557673846  0.6279276111093922  1.0000
  C   C50       1.0  0.18338531226959992  0.022341472975526192  0.6207348304962963  1.0000
  C   C51       1.0  0.0897690343209803  0.24130892056771108  0.5855932771362119  1.0000
  C   C52       1.0  0.16688561485600667  0.007521118921872  0.6628359371010505  1.0000
  C   C53       1.0  0.1505885186153222  0.10179728208028391  0.6082558610693312  1.0000
  C   C54       1.0  0.11007350248898723  0.1451422494625589  0.641233482067115  1.0000
  C   C55       1.0  0.8506854008753919  0.7996974393808576  0.39392762076819576  1.0000
  C   C56       1.0  0.9158930579862454  0.9423321954393847  0.3412971962516593  1.0000
  C   C57       1.0  0.9215576970043386  0.7547043146534732  0.4076943183419387  1.0000
  C   C58       1.0  0.8442973543550634  0.986499069507062  0.32864240141828566  1.0000
  C   C59       1.0  0.9183741507027676  0.873298028771309  0.3644681343049286  1.0000
  C   C60       1.0  0.8484156446505294  0.8668586343180923  0.3687022700727169  1.0000
  C   C61       1.0  0.6466590679257962  0.1523119491365534  0.1536687323664196  1.0000
  C   C62       1.0  0.5971706559717161  0.09648371670474641  0.09871296502318928  1.0000
  C   C63       1.0  0.6589036667622494  0.17300794419363535  0.11090189818002466  1.0000
  C   C64       1.0  0.5835117811552237  0.07752723410233386  0.14125065314459556  1.0000
  C   C65       1.0  0.6344333344561974  0.1444493820111035  0.0837325214494413  1.0000
  C   C66       1.0  0.6082663532510324  0.10531209537235502  0.16842751940983194  1.0000
  C   C67       1.0  0.684549186838595  0.5207700885493693  0.11686186214445367  1.0000
  C   C68       1.0  0.5715669919654474  0.7217946331301661  0.12571758842352662  1.0000
  C   C69       1.0  0.6707884147060383  0.5027267788798186  0.15922415624798691  1.0000
  C   C70       1.0  0.5866973208196171  0.7379183415855904  0.08362231519316772  1.0000
  C   C71       1.0  0.606035436455123  0.6421673923712563  0.13754780306121717  1.0000
  C   C72       1.0  0.6465595704857633  0.59994943440951  0.10416104698658299  1.0000
  C   C73       1.0  0.0831388022260953  0.11982007156073854  0.17757902969496797  1.0000
  C   C74       1.0  0.17078907450473924  0.13583969583780942  0.07275970618744762  1.0000
  C   C75       1.0  0.010680235070736902  0.1652254530208738  0.1653969156596844  1.0000
  C   C76       1.0  0.24189546253603564  0.09050585855398914  0.085726076253799  1.0000
  C   C77       1.0  0.11311276968816492  0.147800439606165  0.10663037008671951  1.0000
  C   C78       1.0  0.14195943702964087  0.11096694685653573  0.144411189589249  1.0000
  C   C79       1.0  0.34934708014289834  0.8456039977646346  0.8471360533463467  1.0000
  C   C80       1.0  0.4007830485790009  0.8994971990457761  0.9019994434959101  1.0000
  C   C81       1.0  0.309487822431791  0.9223467929223619  0.855277942369952  1.0000
  C   C82       1.0  0.4402333367871377  0.8232241345880525  0.8938553473439013  1.0000
  C   C83       1.0  0.3356649452197614  0.9485564555632995  0.8827845027003319  1.0000
  C   C84       1.0  0.4144272302954164  0.7966920403644551  0.8666115835528461  1.0000
  C   C85       1.0  0.3988677113646446  0.4606631897601405  0.8627336345805219  1.0000
  C   C86       1.0  0.3435164793402592  0.3048476926076234  0.8993999998894538  1.0000
  C   C87       1.0  0.33289790363740923  0.5014263922752775  0.8432475754786068  1.0000
  C   C88       1.0  0.4107247696146175  0.26460575025736693  0.9172189460341046  1.0000
  C   C89       1.0  0.3398686990007532  0.3761728687753561  0.8792365957495109  1.0000
  C   C90       1.0  0.40416089548728706  0.38843345995500306  0.8825063264760973  1.0000
  C   C91       1.0  0.9496522778585684  0.7915356032555465  0.8514118163232922  1.0000
  C   C92       1.0  0.8006978249815973  0.9569179606590551  0.8953926049015167  1.0000
  C   C93       1.0  0.9940848361674026  0.8318906408031171  0.8357580197198404  1.0000
  C   C94       1.0  0.7577187885898126  0.915492492468701  0.9101978669292662  1.0000
  C   C95       1.0  0.8701951567453038  0.9117017084818358  0.8732650214789145  1.0000
  C   C96       1.0  0.8782895072876612  0.8370528910162136  0.8720487558011171  1.0000
  C   C97       1.0  0.7620771274210085  0.5031545177406116  0.42213614448372994  1.0000
  C   C98       1.0  0.1656942748086294  0.6452798229125918  0.5394404480836669  1.0000
  C   C99       1.0  0.6914150934575715  0.2306350130841964  0.09296653608600992  1.0000
  C   C100      1.0  0.24205149899020023  0.9808551983374941  0.8338927181803795  1.0000
  S   S1        1.0  0.3082795017486504  0.32753710235611067  0.4066982442800224  1.0000
  S   S2        1.0  0.449208676504206  0.43550578635912274  0.3502336875373331  1.0000
  S   S3        1.0  0.6634136714530144  0.6170804999249029  0.5593308571053583  1.0000
  S   S4        1.0  0.5905534051474319  0.6222444163210812  0.6851979261360981  1.0000
  S   S5        1.0  0.1461576220064913  0.15958121950504997  0.5620117770712341  1.0000
  S   S6        1.0  0.11331390386597917  0.08902398661771124  0.6876077232959973  1.0000
  S   S7        1.0  0.985871464190417  0.795377483749839  0.39023957744998233  1.0000
  S   S8        1.0  0.7801082179306817  0.9446753432136603  0.34392181935812255  1.0000
  S   S9        1.0  0.613146275189834  0.5833424912591102  0.1834801587432651  1.0000
  S   S10       1.0  0.6412514786795498  0.6573581304869761  0.05813837872545239  1.0000
  S   S11       1.0  0.014791987072051396  0.19490606873900873  0.11303355394302632  1.0000
  S   S12       1.0  0.23962824368452115  0.06313336351751536  0.13872453932194867  1.0000
  S   S13       1.0  0.2757358939147209  0.4525817946570499  0.8509345838995799  1.0000
  S   S14       1.0  0.4696640547712222  0.3124366166873926  0.9096774076927047  1.0000
  S   S15       1.0  0.9492032923040199  0.9249047282082189  0.8477308637982263  1.0000
  S   S16       1.0  0.8003770098149303  0.8224662756608226  0.8971095098631211  1.0000
  N   N1        1.0  0.2782104028530412  0.5459825554951508  0.39714076094939804  1.0000
  N   N2        1.0  0.7788582414879739  0.5677337592934394  0.6562513979176502  1.0000
  N   N3        1.0  0.023313097423532297  0.2773224791190432  0.6571694016013013  1.0000
  N   N4        1.0  0.7822533106808932  0.7848057127171163  0.4052858561639637  1.0000
  N   N5        1.0  0.7364771772273712  0.4693223430522409  0.08712639435096044  1.0000
  N   N6        1.0  0.101116169487355  0.07865061726867852  0.2181520661719247  1.0000
  N   N7        1.0  0.45588757617878883  0.4871427926083669  0.86619067797227  1.0000
  N   N8        1.0  0.9719078756642998  0.7104005082962178  0.8509815892693952  1.0000
  O   O1        1.0  0.0018616523265748992  0.5005927594643894  0.4997609160680553  1.0000
  O   O2        1.0  0.0770695123073111  0.31308799338560084  0.5206119401808066  1.0000
  O   O3        1.0  0.0180433428379771  0.536537672019307  0.5894679303846432  1.0000
  O   O4        1.0  0.16332407911408348  0.5002444711131206  0.46237458922192337  1.0000
  O   O5        1.0  0.050282331437351495  0.37429534324256514  0.5772731832889376  1.0000
  O   O6        1.0  0.1546713146808969  0.3972579970722309  0.4450319311270618  1.0000
  O   O7        1.0  0.06116459978253629  0.6023066267564444  0.5350264723356446  1.0000
  O   O8        1.0  0.0107065385713625  0.6570602633869882  0.4475092249449233  1.0000
  O   O9        1.0  0.8857118944723651  0.4932803440523443  0.4453092091990812  1.0000
  O   O10       1.0  0.9055104432650508  0.6437229878746324  0.4371016626295586  1.0000
  O   O11       1.0  0.9987470171422576  0.387686790864066  0.440636126683131  1.0000
  O   O12       1.0  0.8753239750367426  0.5028474721094727  0.5739694490366034  1.0000
  O   O13       1.0  0.8186756075714926  0.5915327127540525  0.5212952476511318  1.0000
  O   O14       1.0  0.7497496266148999  0.25083498668420384  0.249733819802465  1.0000
  O   O15       1.0  0.5945732200232499  0.36531383595070116  0.2993348001752453  1.0000
  O   O16       1.0  0.65021592037138  0.1731672700897989  0.2211641637881741  1.0000
  O   O17       1.0  0.7138167258592532  0.36898031563696787  0.1684690941317371  1.0000
  O   O18       1.0  0.5975913974543587  0.24597083330004924  0.3051411941969917  1.0000
  O   O19       1.0  0.6853388706126325  0.4330986006117856  0.22432705663282354  1.0000
  O   O20       1.0  0.7285693863453774  0.20101577391420022  0.16778858279140252  1.0000
  O   O21       1.0  0.8780168720222149  0.21676059798785005  0.16867630829649738  1.0000
  O   O22       1.0  0.857558508653888  0.25211674109818455  0.3130917849515242  1.0000
  O   O23       1.0  0.9308235510942067  0.1973780399900989  0.22768484046981294  1.0000
  O   O24       1.0  0.7504722979897239  0.3642492742292447  0.310405685231153  1.0000
  O   O25       1.0  0.7488297652210889  0.09207833173723398  0.29635893971025956  1.0000
  O   O26       1.0  0.8649282895696189  0.09366136102973857  0.296284179387456  1.0000
  O   O27       1.0  0.2518514794673409  0.7487271793811061  0.7486739857713474  1.0000
  O   O28       1.0  0.3752061313920265  0.7135918691433504  0.6653060841302434  1.0000
  O   O29       1.0  0.36664375833651514  0.7488194326485601  0.8080341040445447  1.0000
  O   O30       1.0  0.1670187392639804  0.9318634095123671  0.7260002448565857  1.0000
  O   O31       1.0  0.43526934409286605  0.6779586478821145  0.7233789940686962  1.0000
  O   O32       1.0  0.23043622511048054  0.8738147218412922  0.6680819168474484  1.0000
  O   O33       1.0  0.2587485908741698  0.8600576843697002  0.8051349816746765  1.0000
  O   O34       1.0  0.10346441403144269  0.8517458525139078  0.8087750347122835  1.0000
  O   O35       1.0  0.1767270639000955  0.6497449543466018  0.7198956068775005  1.0000
  O   O36       1.0  0.08744870091481968  0.7565189711085339  0.787352550817218  1.0000
  O   O37       1.0  0.2120746882589089  0.7211021740075765  0.6650563408490483  1.0000
  O   O38       1.0  0.36121774374553445  0.5928423127580942  0.7955014773046685  1.0000
  O   O39       1.0  0.23816622587044375  0.6049779345323999  0.8094925390665111  1.0000
  O   O40       1.0  0.5003750836559462  0.00015568370205431783  0.9985782427694614  1.0000
  O   O41       1.0  0.5019046217037441  0.1608716236179505  0.9531665589774718  1.0000
  O   O42       1.0  0.3862175033807133  0.99638888659554  0.9402592472918416  1.0000
  O   O43       1.0  0.6520670833087153  0.8939715973216168  0.9435884231789515  1.0000
  O   O44       1.0  0.39204595396874004  0.15413624179149815  0.9446720312861603  1.0000
  O   O45       1.0  0.6549865346680619  0.008284181665771799  0.9463511460989127  1.0000
  O   O46       1.0  0.4938454113421996  0.8847391839208498  0.942744029153083  1.0000
  O   O47       1.0  0.5813424219944423  0.8149441219654036  0.020581646195026327  1.0000
  O   O48       1.0  0.5331301185941086  0.027209863931879817  0.085028026642803  1.0000
  O   O49       1.0  0.523860958838135  0.8716077500117977  0.07941878064470843  1.0000
  O   O50       1.0  0.5896921525782729  0.08159262294223894  0.030921898748303492  1.0000
  O   O51       1.0  0.3157175915525414  0.08130593811131354  0.021100240624917898  1.0000
  O   O52       1.0  0.3749107084685264  0.025762900646824974  0.07941747255206622  1.0000
  O   O53       1.0  0.7450669113268232  0.5750868710036489  0.40234868765806914  1.0000
  O   O54       1.0  0.7266049051103421  0.4929505490152053  0.4549147550097104  1.0000
  O   O55       1.0  0.12919201258031168  0.7146889028972156  0.5174721761549463  1.0000
  O   O56       1.0  0.22230691098543082  0.5959016325212474  0.523782613289555  1.0000
  O   O57       1.0  0.7651456140262738  0.20172077714369163  0.074714428088825  1.0000
  O   O58       1.0  0.653396473807838  0.2990758409261576  0.09164180086525418  1.0000
  O   O59       1.0  0.1714758394504372  0.9889610511909337  0.8531692195155574  1.0000
  O   O60       1.0  0.2483330499764094  0.023831195307110416  0.8035861488520766  1.0000
  O   O61       1.0  0.20930756085234486  0.588634578333597  0.3985973456423508  1.0000
  O   O62       1.0  0.3308607214630186  0.5671032730037168  0.39191360707162193  1.0000
  O   O63       1.0  0.7558052836369312  0.5516668672105425  0.6927075895251349  1.0000
  O   O64       1.0  0.8395981307556539  0.5742278889805521  0.6444439986586304  1.0000
  O   O65       1.0  0.0400081290187302  0.25887962493341377  0.6931301341518717  1.0000
  O   O66       1.0  0.9666763030510737  0.33333504325865715  0.6453357958462363  1.0000
  O   O67       1.0  0.7483076758878083  0.7894643957646894  0.37619970544260894  1.0000
  O   O68       1.0  0.7616530623717637  0.7724137351300796  0.44218245914333204  1.0000
  O   O69       1.0  0.7927564832309101  0.41256808300201453  0.09879664218745182  1.0000
  O   O70       1.0  0.7211365393080698  0.4899188489365116  0.050950093322853704  1.0000
  O   O71       1.0  0.16603985049760436  0.06390048193620862  0.2263228703377607  1.0000
  O   O72       1.0  0.05408879685238329  0.058348482707046415  0.24073706853656773  1.0000
  O   O73       1.0  0.5201283088602366  0.43582105036350083  0.8728171850802725  1.0000
  O   O74       1.0  0.43710351881858855  0.5565419452371716  0.864186559805482  1.0000
  O   O75       1.0  0.9179575280730392  0.6915743921049258  0.8543303161224359  1.0000
  O   O76       1.0  0.04038380795919489  0.6659726949945938  0.8492127852994216  1.0000
