data_image0
_chemical_formula_structural       Zn8H42C72N6O32
_chemical_formula_sum              "Zn8 H42 C72 N6 O32"
_cell_length_a       21.246990361315568
_cell_length_b       21.781195445955426
_cell_length_c       21.033889820976583
_cell_angle_alpha    60.256931864235284
_cell_angle_beta     61.35688357625869
_cell_angle_gamma    89.94942019757366

_space_group_name_H-M_alt    "P 1"
_space_group_IT_number       1

loop_
  _space_group_symop_operation_xyz
  'x, y, z'

loop_
  _atom_site_type_symbol
  _atom_site_label
  _atom_site_symmetry_multiplicity
  _atom_site_fract_x
  _atom_site_fract_y
  _atom_site_fract_z
  _atom_site_occupancy
  Zn  Zn1       1.0  0.9717219008139535  0.040802596011694406  0.9109846966307344  1.0000
  Zn  Zn2       1.0  0.9627640085448305  0.0451928799212169  0.05869653460859333  1.0000
  Zn  Zn3       1.0  0.11749280235805057  0.049037910722582  0.9143270264472037  1.0000
  Zn  Zn4       1.0  0.9715691280075304  0.8944804273566969  0.06257490394515543  1.0000
  Zn  Zn5       1.0  0.5457717172327322  0.4715657569311488  0.06125282181299957  1.0000
  Zn  Zn6       1.0  0.5431028793016636  0.47176582829103353  0.9112407613715022  1.0000
  Zn  Zn7       1.0  0.5402662835119469  0.61836418874649  0.9121441738804992  1.0000
  Zn  Zn8       1.0  0.39522162051104454  0.46778509896592607  0.06338939459531204  1.0000
  H   H1        1.0  0.7985067933147362  0.1276759830866823  0.913223111217512  1.0000
  H   H2        1.0  0.7134677804892745  0.2083908676557087  0.9009850974408167  1.0000
  H   H3        1.0  0.8588722320363472  0.214666871343816  0.026762526475579418  1.0000
  H   H4        1.0  0.8769639826143205  0.33212135940228654  0.004089117167438863  1.0000
  H   H5        1.0  0.8029274321166325  0.35394197764723156  0.07002819814275814  1.0000
  H   H6        1.0  0.8019158834127181  0.25943041776264403  0.11288156155715273  1.0000
  H   H7        1.0  0.7200960036414371  0.38191519423662607  0.03944770225464117  1.0000
  H   H8        1.0  0.0675128435975338  0.2238013488172328  0.6633661923225205  1.0000
  H   H9        1.0  0.1350361136312657  0.3133977532791903  0.49864368805484827  1.0000
  H   H10       1.0  0.26736587847651794  0.1621663719660376  0.6300168567571731  1.0000
  H   H11       1.0  0.3599273441500301  0.1453984564147248  0.5259921328652267  1.0000
  H   H12       1.0  0.4459127196868735  0.21739623640359432  0.431250896511898  1.0000
  H   H13       1.0  0.39692288818730503  0.21813766221756484  0.5273671145853385  1.0000
  H   H14       1.0  0.44083031522408334  0.29927623290390665  0.323378167274015  1.0000
  H   H15       1.0  0.9022239161513638  0.9439411695998315  0.8268027046002049  1.0000
  H   H16       1.0  0.8236318466419091  0.8789431879465749  0.804858763104747  1.0000
  H   H17       1.0  0.8031853950927681  0.7522452312832255  0.08962643228308334  1.0000
  H   H18       1.0  0.6809143013527431  0.66547692130343  0.19853283003641328  1.0000
  H   H19       1.0  0.6558959172510795  0.5798761475923938  0.21163686636722917  1.0000
  H   H20       1.0  0.7519233977694383  0.6241596871543179  0.16430850825849325  1.0000
  H   H21       1.0  0.6308508580753911  0.5837998900957615  0.12381423953985404  1.0000
  H   H22       1.0  0.056103505853222685  0.12566434941525265  0.14544797067151194  1.0000
  H   H23       1.0  0.125823697568606  0.1981008658753396  0.1690021657127829  1.0000
  H   H24       1.0  0.2557312228277908  0.2081778582990594  0.8929366984643323  1.0000
  H   H25       1.0  0.3540955994569827  0.32155087600429505  0.7831224610608913  1.0000
  H   H26       1.0  0.4391771579187065  0.3367607235460426  0.7785747886431835  1.0000
  H   H27       1.0  0.38500294838946303  0.24446300481675112  0.8302385419957261  1.0000
  H   H28       1.0  0.434456220828075  0.36653159651157796  0.8627156748234556  1.0000
  H   H29       1.0  0.7881144934459953  0.9482527900252506  0.30712359325023225  1.0000
  H   H30       1.0  0.6977902540100586  0.8820194173180195  0.4713010699969119  1.0000
  H   H31       1.0  0.8491788153860967  0.7506230119863558  0.34632545359043826  1.0000
  H   H32       1.0  0.8635289447556788  0.656531785783045  0.4531199577215331  1.0000
  H   H33       1.0  0.7889799156828943  0.5726395375863261  0.5478431055472656  1.0000
  H   H34       1.0  0.788887346586982  0.6227247722318694  0.4502457747170539  1.0000
  H   H35       1.0  0.7074670646430122  0.57846393553848  0.6535362051962891  1.0000
  H   H36       1.0  0.2743303399614234  0.9486627882296543  0.9293182209129044  1.0000
  H   H37       1.0  0.3699419264998339  0.8787798173936419  0.9253992990192547  1.0000
  H   H38       1.0  0.10760724810182153  0.7508384890469344  0.04514694329193264  1.0000
  H   H39       1.0  0.11148810079391316  0.6521156333446355  0.027800912184574283  1.0000
  H   H40       1.0  0.1241467510069185  0.5685699607639094  0.09492782371921052  1.0000
  H   H41       1.0  0.08395024216594038  0.623113737966463  0.13572472304983324  1.0000
  H   H42       1.0  0.23802618221601077  0.5737338078422666  0.05656251624945003  1.0000
  C   C1        1.0  0.8822373849701178  0.11917745556958438  0.9792385403456976  1.0000
  C   C2        1.0  0.8328412183149823  0.1673321230215947  0.9710026928003825  1.0000
  C   C3        1.0  0.7925783000244877  0.16479882628614453  0.9348018478572301  1.0000
  C   C4        1.0  0.7461810666618334  0.20893725917290598  0.9279456694680731  1.0000
  C   C5        1.0  0.738824970910052  0.2566047787582519  0.9559701408670804  1.0000
  C   C6        1.0  0.7800060491013737  0.2594080548452454  0.9915647942816648  1.0000
  C   C7        1.0  0.8268526815676153  0.21436976034773628  0.9991232853375323  1.0000
  C   C8        1.0  0.8161649265870212  0.3131828705693138  0.05356202667832107  1.0000
  C   C9        1.0  0.7245172248372  0.34742658022246786  0.014641777644740919  1.0000
  C   C10       1.0  0.6824561685040892  0.34803526492753173  0.9811191015310284  1.0000
  C   C11       1.0  0.6327881130669084  0.39625561515935454  0.981942669395906  1.0000
  C   C12       1.0  0.6873901159614276  0.3022031782467848  0.9473338168164034  1.0000
  C   C13       1.0  0.12352126955228471  0.1365237964341333  0.7523236021149485  1.0000
  C   C14       1.0  0.1646037846243189  0.18889205504426335  0.6549241508906222  1.0000
  C   C15       1.0  0.1258975646847986  0.23059725812967713  0.61907093210732  1.0000
  C   C16       1.0  0.16251144545240243  0.27925403848890074  0.5290840337850397  1.0000
  C   C17       1.0  0.23730277407922526  0.2866653171043795  0.4724351444225618  1.0000
  C   C18       1.0  0.2754932389382105  0.24342064199166202  0.5086247652526479  1.0000
  C   C19       1.0  0.23913966237341094  0.19532384956314536  0.6002361584510041  1.0000
  C   C20       1.0  0.3900759619455556  0.20504081829714238  0.48641801289966924  1.0000
  C   C21       1.0  0.3831795879742187  0.2971758053149428  0.3636159793438339  1.0000
  C   C22       1.0  0.3502671922691007  0.34108950380118586  0.32317132985374303  1.0000
  C   C23       1.0  0.39632117270407724  0.38848704661239  0.225398406898961  1.0000
  C   C24       1.0  0.27356727868116326  0.3405816873422934  0.3760805480041753  1.0000
  C   C25       1.0  0.904126958514006  0.8906259715224253  0.9705683389475368  1.0000
  C   C26       1.0  0.8570766384852534  0.8507626471472064  0.9594889785409535  1.0000
  C   C27       1.0  0.8631477336575627  0.8878125508743223  0.8787285071761064  1.0000
  C   C28       1.0  0.8199925579470816  0.8525574846258903  0.8666751868239689  1.0000
  C   C29       1.0  0.7690398815440389  0.7806189380882032  0.9341724984241537  1.0000
  C   C30       1.0  0.7619945035570267  0.7440890875053511  0.01586204357645495  1.0000
  C   C31       1.0  0.8068063279044962  0.779176709869631  0.02791062225727387  1.0000
  C   C32       1.0  0.6994488943463466  0.633676044018081  0.16913946737118143  1.0000
  C   C33       1.0  0.669303880501225  0.6396919031265327  0.06871380684700057  1.0000
  C   C34       1.0  0.6729197171417809  0.6708975035730518  0.9915762344776624  1.0000
  C   C35       1.0  0.623152215754615  0.6242302439928338  0.9900394954596905  1.0000
  C   C36       1.0  0.7250532225818771  0.7453989622832748  0.9161694919838085  1.0000
  C   C37       1.0  0.11154760558427768  0.12093012120357119  0.003646324565558244  1.0000
  C   C38       1.0  0.1528317687960623  0.16373518440136783  0.017311779678181052  1.0000
  C   C39       1.0  0.11483492870468127  0.1601223540568384  0.09589384857756042  1.0000
  C   C40       1.0  0.152706967230408  0.19982335933642048  0.10883367286357531  1.0000
  C   C41       1.0  0.2281111492464873  0.24477183603719513  0.04434963873053729  1.0000
  C   C42       1.0  0.26599815086761674  0.2483084669980187  0.9653998948687175  1.0000
  C   C43       1.0  0.22814006267417844  0.20711070986477859  0.9525574165020673  1.0000
  C   C44       1.0  0.3818800437661665  0.29906141638349476  0.8187319436269078  1.0000
  C   C45       1.0  0.3758598532759834  0.3329304174421851  0.9152603390060889  1.0000
  C   C46       1.0  0.342881671669673  0.33391528917319135  0.9890604142508934  1.0000
  C   C47       1.0  0.39026505159068847  0.384127698033268  0.9891683063353015  1.0000
  C   C48       1.0  0.26502909036334893  0.2874446469203633  0.06179888838925509  1.0000
  C   C49       1.0  0.8760558377477924  0.8928090660539211  0.22101413233720987  1.0000
  C   C50       1.0  0.8230233684217155  0.8523559165786736  0.31834436219235573  1.0000
  C   C51       1.0  0.7810431354055964  0.8906051337719275  0.35252554621445165  1.0000
  C   C52       1.0  0.731849003225669  0.8546395427920288  0.44226273396465393  1.0000
  C   C53       1.0  0.7236483951151483  0.7806449661958439  0.5004545776480926  1.0000
  C   C54       1.0  0.7667063382465072  0.742645486498361  0.4659941453547704  1.0000
  C   C55       1.0  0.8158540378592605  0.7786271824434791  0.37467218436503225  1.0000
  C   C56       1.0  0.8027072311560064  0.6282231404613937  0.4916819951803006  1.0000
  C   C57       1.0  0.710792167127849  0.635846487902704  0.612135054443293  1.0000
  C   C58       1.0  0.6673730599900835  0.6688077664666492  0.6509343419591149  1.0000
  C   C59       1.0  0.6189897769990793  0.6225499665269182  0.7487115347459434  1.0000
  C   C60       1.0  0.6691132132548815  0.7449758863815531  0.5965064872947681  1.0000
  C   C61       1.0  0.1299312005523063  0.8949558179149547  0.9903897734695802  1.0000
  C   C62       1.0  0.1857773190848206  0.8528491154659504  0.9878930795662271  1.0000
  C   C63       1.0  0.25984388596927493  0.8902640944594538  0.9531274281522925  1.0000
  C   C64       1.0  0.31230905929519537  0.8523506699094625  0.9504654085886629  1.0000
  C   C65       1.0  0.2935773718203478  0.7774051748120813  0.980061611551882  1.0000
  C   C66       1.0  0.21942000472922976  0.7401692062232071  0.013746077753609247  1.0000
  C   C67       1.0  0.16535252245088833  0.7780613135752219  0.01860222892153734  1.0000
  C   C68       1.0  0.1259415948536784  0.6253896124727446  0.07695193631040821  1.0000
  C   C69       1.0  0.2557243279260959  0.6314815100794249  0.03412617022005565  1.0000
  C   C70       1.0  0.3292003340533682  0.6639461278005  0.0008848642417619241  1.0000
  C   C71       1.0  0.3808263288957646  0.6178928648101232  0.99476466893028  1.0000
  C   C72       1.0  0.3530702911783265  0.7400529980691813  0.9749349228569103  1.0000
  N   N1        1.0  0.7725146434168124  0.3069169377107883  0.01943784986868028  1.0000
  N   N2        1.0  0.3494171692280545  0.2498503970772958  0.45169373454846357  1.0000
  N   N3        1.0  0.7102306073886523  0.6728379407548815  0.08314302296574991  1.0000
  N   N4        1.0  0.3410888463828812  0.29320265725598915  0.901415391664429  1.0000
  N   N5        1.0  0.7589489152840584  0.6691933441139071  0.5243891504226142  1.0000
  N   N6        1.0  0.20171970417172252  0.6658374725641564  0.04168972392365346  1.0000
  O   O1        1.0  0.007568451230646598  0.0038853189627161954  0.9891262172600507  1.0000
  O   O2        1.0  0.9148883049862347  0.1199268894458285  0.016645066212362416  1.0000
  O   O3        1.0  0.8881304721672337  0.0803445229809583  0.9480598118228725  1.0000
  O   O4        1.0  0.6092436215472077  0.4124779137302355  0.9321445964761567  1.0000
  O   O5        1.0  0.6183731800237593  0.417828996760555  0.032986889929944335  1.0000
  O   O6        1.0  0.6524970777538213  0.2980972077437229  0.915640136173664  1.0000
  O   O7        1.0  0.1609992280569799  0.1076216560640617  0.7862414026769926  1.0000
  O   O8        1.0  0.05228833072244751  0.12480734222580743  0.7948189326625366  1.0000
  O   O9        1.0  0.3614496229635051  0.41175748339897916  0.18750456562037238  1.0000
  O   O10       1.0  0.46811527218882537  0.4010713300891169  0.1875586512469596  1.0000
  O   O11       1.0  0.23994207829485248  0.3810509482236312  0.34754346217876286  1.0000
  O   O12       1.0  0.9058109219835799  0.8549233380411606  0.039426002715380715  1.0000
  O   O13       1.0  0.939778171641912  0.9592927908614115  0.9080915265689314  1.0000
  O   O14       1.0  0.6080201838318969  0.6565537184703841  0.9321755588688349  1.0000
  O   O15       1.0  0.5991391378716813  0.5539706977632121  0.04946470853936838  1.0000
  O   O16       1.0  0.7358624381817974  0.7779374212950216  0.8424012192387167  1.0000
  O   O17       1.0  0.1499320290396682  0.11575633509229281  0.9385505555552172  1.0000
  O   O18       1.0  0.04019362993013691  0.09288738977529931  0.05912631273756829  1.0000
  O   O19       1.0  0.3570644375773994  0.39967071628753803  0.04545973467301693  1.0000
  O   O20       1.0  0.4613401206975923  0.40875610039520177  0.930389156935675  1.0000
  O   O21       1.0  0.23032076286659015  0.2809952378727089  0.13287438018829087  1.0000
  O   O22       1.0  0.9087371431981596  0.856334445929818  0.18930430037755755  1.0000
  O   O23       1.0  0.8840865964186193  0.9621930342642032  0.1769727406520759  1.0000
  O   O24       1.0  0.5969638730543138  0.6556981740243231  0.7871217761791486  1.0000
  O   O25       1.0  0.604613953942639  0.5518655989777341  0.785845275304439  1.0000
  O   O26       1.0  0.6290532313105714  0.778575124134278  0.6235641411331727  1.0000
  O   O27       1.0  0.06024715107004401  0.8579746502244774  0.035238580550242406  1.0000
  O   O28       1.0  0.15757547441347697  0.9654055780585651  0.9467232723939818  1.0000
  O   O29       1.0  0.45122554758030015  0.6517068872414028  0.9450857209015737  1.0000
  O   O30       1.0  0.3492013966733936  0.5475517510475285  0.03944249941412194  1.0000
  O   O31       1.0  0.4150715822825006  0.7726922476190481  0.9522642947118313  1.0000
  O   O32       1.0  0.506178998401694  0.508002700251815  0.9869927309140821  1.0000
