data_image0
_chemical_formula_structural       Cu4H36C36Br4N12O4
_chemical_formula_sum              "Cu4 H36 C36 Br4 N12 O4"
_cell_length_a       7.613678579566699
_cell_length_b       9.844112769840933
_cell_length_c       14.781008228731036
_cell_angle_alpha    105.29040643691602
_cell_angle_beta     94.95522356548629
_cell_angle_gamma    108.56928416471837

_space_group_name_H-M_alt    "P 1"
_space_group_IT_number       1

loop_
  _space_group_symop_operation_xyz
  'x, y, z'

loop_
  _atom_site_type_symbol
  _atom_site_label
  _atom_site_symmetry_multiplicity
  _atom_site_fract_x
  _atom_site_fract_y
  _atom_site_fract_z
  _atom_site_occupancy
  Cu  Cu1       1.0  0.22452128240639976  0.0684198273931642  0.45854751899327073  1.0000
  Cu  Cu2       1.0  0.7754704537718666  0.9315810806265861  0.5414542485191091  1.0000
  Cu  Cu3       1.0  0.40096045372970934  0.45553685768523167  0.08455342746307787  1.0000
  Cu  Cu4       1.0  0.5990507818102345  0.5444665066498829  0.9154469080928322  1.0000
  H   H1        1.0  0.16893631657855224  0.29445190533819243  0.6628403056950629  1.0000
  H   H2        1.0  0.831048643326973  0.7055455265189253  0.33715650556141696  1.0000
  H   H3        1.0  0.12855749991410187  0.5254408445015314  0.7642978523488322  1.0000
  H   H4        1.0  0.8714368821265595  0.47456009026367246  0.2357033584319908  1.0000
  H   H5        1.0  0.15968481187040606  0.7458529557750994  0.7064795166360298  1.0000
  H   H6        1.0  0.8403221102696675  0.2541526241662453  0.2935243975474222  1.0000
  H   H7        1.0  0.23396166865033047  0.745594174540173  0.5465792571223956  1.0000
  H   H8        1.0  0.7660270551242334  0.25440893799655845  0.4534227609729839  1.0000
  H   H9        1.0  0.2003652052170537  0.3831935706493255  0.2386255318470418  1.0000
  H   H10       1.0  0.7996308394866245  0.6168051163281872  0.7613719793314074  1.0000
  H   H11       1.0  0.4437766256508554  0.4298617628163158  0.2860003402845592  1.0000
  H   H12       1.0  0.5562114960889913  0.5701368602328217  0.714000874207727  1.0000
  H   H13       1.0  0.5298274455741918  0.6739863525067306  0.24588762046374762  1.0000
  H   H14       1.0  0.4701659630159939  0.32601231859732144  0.7541118028590361  1.0000
  H   H15       1.0  0.11732295071675483  0.5259209096853823  0.13239267107133654  1.0000
  H   H16       1.0  0.8826770408454935  0.4740777929483357  0.8676009553310136  1.0000
  H   H17       1.0  0.3032114768463572  0.6936730333965001  0.12312709472315925  1.0000
  H   H18       1.0  0.6967951610558033  0.30632577143484246  0.8768695449418402  1.0000
  H   H19       1.0  0.6000454093599928  0.89052839441797  0.14563653417064157  1.0000
  H   H20       1.0  0.3999506499670389  0.10947030886753593  0.854363010126981  1.0000
  H   H21       1.0  0.9097746319147435  0.9820129186554071  0.0975753869447615  1.0000
  H   H22       1.0  0.09022011290781512  0.017973453433889102  0.902423317978993  1.0000
  H   H23       1.0  0.00956417627001831  0.21306042230121852  0.0490735102886148  1.0000
  H   H24       1.0  0.9904444340203752  0.7869306110549416  0.9509279585251844  1.0000
  H   H25       1.0  0.802101602366058  0.3657459815696029  0.04817045177723139  1.0000
  H   H26       1.0  0.19791684854241257  0.6342496104212643  0.9518268224004486  1.0000
  H   H27       1.0  0.031232331316445525  0.8974893041269495  0.24190978237389518  1.0000
  H   H28       1.0  0.9687716412255228  0.10250945221494591  0.758084703197099  1.0000
  H   H29       1.0  0.1407230002869539  0.09460446044985102  0.2581886571545553  1.0000
  H   H30       1.0  0.8592801482351718  0.9053954279398868  0.7418086947772123  1.0000
  H   H31       1.0  0.4502805505164956  0.0825708025612926  0.3406401583012695  1.0000
  H   H32       1.0  0.5497161449664035  0.9174324282637945  0.6593649335441824  1.0000
  H   H33       1.0  0.15516129347940938  0.7922216695865602  0.3576668628001371  1.0000
  H   H34       1.0  0.8448291173304269  0.2077792223424666  0.6423348442248268  1.0000
  H   H35       1.0  0.4049538393798073  0.8851041439724342  0.4194636225035992  1.0000
  H   H36       1.0  0.5950359840186579  0.1148922747769845  0.5805393140374447  1.0000
  C   C1        1.0  0.22243679709693956  0.38980955464274547  0.5471327082496913  1.0000
  C   C2        1.0  0.7775469576240897  0.6101912242166564  0.4528646300998388  1.0000
  C   C3        1.0  0.18128127974851796  0.3914101678204745  0.63815702763506  1.0000
  C   C4        1.0  0.8187010294201612  0.6085872318551894  0.3618396626465952  1.0000
  C   C5        1.0  0.1599160234350166  0.5206454487913917  0.6933088936162832  1.0000
  C   C6        1.0  0.8400725655322674  0.47935428434433186  0.3066905037794568  1.0000
  C   C7        1.0  0.17927753542883818  0.6469914625559597  0.6606660256875827  1.0000
  C   C8        1.0  0.8207128607576593  0.3530094130650739  0.33933364821820783  1.0000
  C   C9        1.0  0.22177622756335322  0.6486897357501534  0.5714628225429975  1.0000
  C   C10       1.0  0.7782083804242179  0.3513099436773857  0.42853571568409876  1.0000
  C   C11       1.0  0.2431632159708244  0.5175712852353413  0.516152247885735  1.0000
  C   C12       1.0  0.7568169243117923  0.48242720865344785  0.4838445374437086  1.0000
  C   C13       1.0  0.33420391632350294  0.47631259901087475  0.27319574279158587  1.0000
  C   C14       1.0  0.6657871934477911  0.5236837923412948  0.7268018325857495  1.0000
  C   C15       1.0  0.3908896575013969  0.5855173143654967  0.21852811379650208  1.0000
  C   C16       1.0  0.6091072502177255  0.4144802840521535  0.7814719526722981  1.0000
  C   C17       1.0  0.266591494608754  0.5963318211120666  0.14912010998690303  1.0000
  C   C18       1.0  0.7334075478752737  0.40366464504047883  0.850875117489366  1.0000
  C   C19       1.0  0.5289396775572613  0.0794399050623298  0.12324230841903018  1.0000
  C   C20       1.0  0.4710720447079169  0.92056459110335  0.8767589208658959  1.0000
  C   C21       1.0  0.643322465860301  0.9931315575144594  0.12532259602544116  1.0000
  C   C22       1.0  0.3566789095637617  0.0068672264419476  0.8746792233410188  1.0000
  C   C23       1.0  0.8163380017612595  0.046025107322421405  0.09867242716350688  1.0000
  C   C24       1.0  0.1836631332949352  0.953966950447949  0.9013282170420281  1.0000
  C   C25       1.0  0.8734199477901823  0.17857457392215534  0.07092037566457779  1.0000
  C   C26       1.0  0.1265874475668269  0.8214197955642959  0.929080264829487  1.0000
  C   C27       1.0  0.7599359406672405  0.26374675773256234  0.0693321725815608  1.0000
  C   C28       1.0  0.24007325216007297  0.7362487433672058  0.9306673890097626  1.0000
  C   C29       1.0  0.5846117775874832  0.21299165185721586  0.09683375753019159  1.0000
  C   C30       1.0  0.4153984893764431  0.7870094542527398  0.9031654682740751  1.0000
  C   C31       1.0  0.16580177971434304  0.9892172529152035  0.25197050276137384  1.0000
  C   C32       1.0  0.8341987326942902  0.010782619601066301  0.7480287613147354  1.0000
  C   C33       1.0  0.3085261574937093  0.0006997386667037991  0.33216490241024826  1.0000
  C   C34       1.0  0.6914699164566683  0.9992989809267953  0.6678366750065405  1.0000
  C   C35       1.0  0.2836264388147641  0.8917295135890697  0.3782692205921022  1.0000
  C   C36       1.0  0.7163656590303447  0.10826915773224502  0.6217321753624461  1.0000
  Br  Br1       1.0  0.1911084022277905  0.021560291995648104  0.6080890858921036  1.0000
  Br  Br2       1.0  0.8089562708536279  0.9784662018930491  0.39192637638419103  1.0000
  Br  Br3       1.0  0.2464946650821886  0.3678860809348237  0.9190554613403349  1.0000
  Br  Br4       1.0  0.7535389669136447  0.6321141775416378  0.08094328180202832  1.0000
  N   N1        1.0  0.2807054600076171  0.4730221465291606  0.4266827436632638  1.0000
  N   N2        1.0  0.719277822611531  0.526977516807655  0.5733157340764166  1.0000
  N   N3        1.0  0.28260150319704985  0.3335523350527652  0.4015385106731769  1.0000
  N   N4        1.0  0.7173925074278529  0.666450825538881  0.5984617162527002  1.0000
  N   N5        1.0  0.2476945804444384  0.28078795169555804  0.4746394507921109  1.0000
  N   N6        1.0  0.7522994301804714  0.7192152088960952  0.525360776133766  1.0000
  N   N7        1.0  0.4399463556054855  0.26906828830038165  0.10270908656237047  1.0000
  N   N8        1.0  0.5600662053028814  0.7309350921254564  0.8972913094809485  1.0000
  N   N9        1.0  0.2986006736622572  0.17693015298582543  0.1278635986457033  1.0000
  N   N10       1.0  0.7014098385439809  0.8230776847461457  0.8721374800258771  1.0000
  N   N11       1.0  0.35250099253794803  0.06614809509622431  0.14169954688082947  1.0000
  N   N12       1.0  0.6475108547856083  0.9338597695984704  0.8583029476909516  1.0000
  O   O1        1.0  0.3112080399705377  0.5608091955927748  0.36731607313621584  1.0000
  O   O2        1.0  0.6887755994410086  0.4391882256096055  0.6326813553392441  1.0000
  O   O3        1.0  0.2267588648137464  0.9454151982488175  0.15857763279106513  1.0000
  O   O4        1.0  0.7732483946209283  0.054588117814113  0.84142252130259  1.0000
