data_image0
_chemical_formula_structural       V4H16C8O24
_chemical_formula_sum              "V4 H16 C8 O24"
_cell_length_a       7.062556223458593
_cell_length_b       8.12902233425674
_cell_length_c       8.890200580389314
_cell_angle_alpha    90.00041741680167
_cell_angle_beta     90.00097240350202
_cell_angle_gamma    90.00084865964541

_space_group_name_H-M_alt    "P 1"
_space_group_IT_number       1

loop_
  _space_group_symop_operation_xyz
  'x, y, z'

loop_
  _atom_site_type_symbol
  _atom_site_label
  _atom_site_symmetry_multiplicity
  _atom_site_fract_x
  _atom_site_fract_y
  _atom_site_fract_z
  _atom_site_occupancy
  V   V1        1.0  0.7750614773528779  0.9999982726707584  0.7499991736724638  1.0000
  V   V2        1.0  0.22497885003522095  0.5000009548683978  0.7500007106843326  1.0000
  V   V3        1.0  0.22496496746729375  0.9999961432116109  0.2500056026478319  1.0000
  V   V4        1.0  0.7750491571122848  0.5000048195477689  0.24999547161097263  1.0000
  H   H1        1.0  0.8355971294249185  0.15273303361031762  0.4356610776045499  1.0000
  H   H2        1.0  0.16439276977834538  0.3472870779360163  0.4356717305493233  1.0000
  H   H3        1.0  0.1643942048157641  0.6527046999689076  0.06430756319866049  1.0000
  H   H4        1.0  0.8355989818662477  0.8472700197624476  0.0643385599265045  1.0000
  H   H5        1.0  0.16438132029224312  0.8472493673913206  0.5643249807794388  1.0000
  H   H6        1.0  0.835595591566218  0.6527137755540479  0.5643188272926736  1.0000
  H   H7        1.0  0.8355814131237833  0.347287542286054  0.9356762455273394  1.0000
  H   H8        1.0  0.1643695569175421  0.15272837340611997  0.9356812434582337  1.0000
  H   H9        1.0  0.38529295378266676  0.9115879702787596  0.7913204222416184  1.0000
  H   H10       1.0  0.6147369246654433  0.5884116221331652  0.7913311405298699  1.0000
  H   H11       1.0  0.614750145168486  0.4115978668360897  0.7086834363520609  1.0000
  H   H12       1.0  0.38528661872442166  0.08841235440088012  0.708687670811905  1.0000
  H   H13       1.0  0.6147350534177105  0.0884141136914778  0.20868363388082398  1.0000
  H   H14       1.0  0.3852401095833428  0.4115916916973532  0.20868078908895168  1.0000
  H   H15       1.0  0.3852410482580949  0.5884152883344954  0.2913206195538293  1.0000
  H   H16       1.0  0.6147314771699824  0.9115897295539382  0.29132763358351343  1.0000
  C   C1        1.0  0.7685804448740328  0.24879980435795804  0.5053769961739505  1.0000
  C   C2        1.0  0.23139960880692456  0.25120985135725965  0.5053936107085162  1.0000
  C   C3        1.0  0.23140896244098028  0.7487982935576127  0.9946056480809132  1.0000
  C   C4        1.0  0.7685841754272926  0.7512055541437733  0.9946239176695926  1.0000
  C   C5        1.0  0.23140366856098643  0.7511838268559998  0.4946124367541032  1.0000
  C   C6        1.0  0.7685745939499782  0.7488303672765259  0.494621693502765  1.0000
  C   C7        1.0  0.7685850623102936  0.25118656783199367  0.005372536577816299  1.0000
  C   C8        1.0  0.2313999384404468  0.248811291461017  0.0053801381992925985  1.0000
  O   O1        1.0  0.0031285075948019997  0.9999981243817329  0.7500085663304715  1.0000
  O   O2        1.0  0.9969458019465735  0.49999864311970293  0.750004816257423  1.0000
  O   O3        1.0  0.9969207383676489  2.6925721389999884e-07  0.24999773959293486  1.0000
  O   O4        1.0  0.0030949484227563  0.49999236949212633  0.24999923991847334  1.0000
  O   O5        1.0  0.46527293950957466  2.1602230760000087e-07  0.7500008538301444  1.0000
  O   O6        1.0  0.5347562069887671  0.5000042192055362  0.7499994350691634  1.0000
  O   O7        1.0  0.5347494039404522  0.9999981774101767  0.2499987029069075  1.0000
  O   O8        1.0  0.4652264907781855  0.500006475534164  0.24999224759771008  1.0000
  O   O9        1.0  0.7257557740322511  0.21641738898342308  0.6421215560433778  1.0000
  O   O10       1.0  0.2742696636693722  0.28356641112550557  0.6421501918055839  1.0000
  O   O11       1.0  0.2742812338787672  0.7164484476133522  0.8578462734435276  1.0000
  O   O12       1.0  0.7257415635747863  0.7835787958567053  0.8578799021735931  1.0000
  O   O13       1.0  0.2742764807661828  0.7835674727664923  0.35788137522267494  1.0000
  O   O14       1.0  0.72570453898971  0.7164492043483364  0.35787523583874753  1.0000
  O   O15       1.0  0.7257057113498604  0.2835573264090101  0.14212178772321946  1.0000
  O   O16       1.0  0.274276532041128  0.21641713720259048  0.14211403035729825  1.0000
  O   O17       1.0  0.7342735074257971  0.1108624503672431  0.9511469488201384  1.0000
  O   O18       1.0  0.265781154044653  0.38918681707771435  0.9511805958631498  1.0000
  O   O19       1.0  0.26578014412703505  0.6108045570871711  0.5488236280423349  1.0000
  O   O20       1.0  0.734262986418436  0.8891338462980799  0.5488400020027342  1.0000
  O   O21       1.0  0.26576016328719726  0.8891248717025066  0.04885373279478959  1.0000
  O   O22       1.0  0.7341916324882191  0.6108324887681889  0.048822335102272484  1.0000
  O   O23       1.0  0.7341784826515223  0.3891544707845896  0.45117255364404946  1.0000
  O   O24       1.0  0.265755109286374  0.1108670074220086  0.4511584298788236  1.0000
