data_image0
_chemical_formula_structural       Pr4Cu4H32C56N8O32
_chemical_formula_sum              "Pr4 Cu4 H32 C56 N8 O32"
_cell_length_a       9.274766316625923
_cell_length_b       11.436530422696089
_cell_length_c       17.312994442016326
_cell_angle_alpha    107.06398658666305
_cell_angle_beta     90.02089030345859
_cell_angle_gamma    113.86562535023461

_space_group_name_H-M_alt    "P 1"
_space_group_IT_number       1

loop_
  _space_group_symop_operation_xyz
  'x, y, z'

loop_
  _atom_site_type_symbol
  _atom_site_label
  _atom_site_symmetry_multiplicity
  _atom_site_fract_x
  _atom_site_fract_y
  _atom_site_fract_z
  _atom_site_occupancy
  Pr  Pr1       1.0  0.3024908103363659  0.9644208793970184  0.9242347657823304  1.0000
  Pr  Pr2       1.0  0.3381952427312811  0.0356959852674166  0.5757766438613601  1.0000
  Pr  Pr3       1.0  0.6975206238041453  0.03558234184648511  0.0757663713210874  1.0000
  Pr  Pr4       1.0  0.6617852880418698  0.9642950163428452  0.4242187901986654  1.0000
  Cu  Cu1       1.0  0.2451648614773916  0.3307522704764807  0.1341065737824394  1.0000
  Cu  Cu2       1.0  0.9147146480925272  0.6693684897129374  0.3657026286728354  1.0000
  Cu  Cu3       1.0  0.7548489445259038  0.6692600166850013  0.8658956431753781  1.0000
  Cu  Cu4       1.0  0.08528412873671704  0.3306266599820377  0.6342970316762051  1.0000
  H   H1        1.0  0.6170253331955636  0.1983769721369626  0.7794273455837912  1.0000
  H   H2        1.0  0.4197287931375443  0.8019857728607819  0.7204000962417468  1.0000
  H   H3        1.0  0.3829793506464015  0.8016084113837965  0.22058035102516982  1.0000
  H   H4        1.0  0.5802693402150539  0.1980102498511016  0.2795956796786925  1.0000
  H   H5        1.0  0.7880530895537704  0.30928020005660534  0.6883532933340177  1.0000
  H   H6        1.0  0.4795323555794939  0.6909197656400041  0.8115753787655324  1.0000
  H   H7        1.0  0.21193375297651337  0.6907040053767519  0.31164898684164655  1.0000
  H   H8        1.0  0.5204741729980001  0.3090844281651641  0.1884247802501946  1.0000
  H   H9        1.0  0.16136174035358417  0.23430115168976332  0.7599096334080928  1.0000
  H   H10       1.0  0.9277840976612456  0.7654008684922787  0.7403785232475927  1.0000
  H   H11       1.0  0.838647348780249  0.7657038551341915  0.2400848973859838  1.0000
  H   H12       1.0  0.07222368497995295  0.234612313493905  0.2596203904693368  1.0000
  H   H13       1.0  0.009867715510857519  0.13173570188984482  0.8601632495292437  1.0000
  H   H14       1.0  0.8791397499546181  0.8680082093621736  0.639975012923408  1.0000
  H   H15       1.0  0.9901564554765587  0.8682735912060126  0.13983957648094505  1.0000
  H   H16       1.0  0.12085230041547129  0.1319907469651227  0.360018410170767  1.0000
  H   H17       1.0  0.555084239925357  0.7333519602057879  0.059720771565103845  1.0000
  H   H18       1.0  0.8218946868591532  0.2666642474360331  0.4402278941353971  1.0000
  H   H19       1.0  0.4449086002689172  0.26665720917023356  0.9402779849048742  1.0000
  H   H20       1.0  0.1780973069072617  0.7333259548253396  0.5597737496788754  1.0000
  H   H21       1.0  0.49292081935374216  0.5751738727611413  0.13715752138364937  1.0000
  H   H22       1.0  0.9179810104455303  0.42482871356637036  0.36280976704501466  1.0000
  H   H23       1.0  0.5070772716528397  0.42484148891556833  0.8628464115600496  1.0000
  H   H24       1.0  0.08202379970343532  0.5751655608511752  0.637193777828422  1.0000
  H   H25       1.0  0.04839475876085698  0.32933710625395934  0.9986766154729239  1.0000
  H   H26       1.0  0.7186462734143718  0.6707504394669926  0.5008774675643012  1.0000
  H   H27       1.0  0.9516076865915012  0.670661070723817  0.0013235986398499296  1.0000
  H   H28       1.0  0.2813679700976338  0.32925192740266607  0.49912813528954564  1.0000
  H   H29       1.0  0.0897003960443073  0.48862238455322454  0.9180988315335484  1.0000
  H   H30       1.0  0.6005677721663717  0.5114521872951202  0.5813936350991257  1.0000
  H   H31       1.0  0.9102918533528452  0.5113748066450938  0.0819017791151566  1.0000
  H   H32       1.0  0.3994431479465207  0.4885521610797597  0.41861117426133637  1.0000
  C   C1        1.0  0.6986341241508356  0.08736277349782282  0.8829459378678166  1.0000
  C   C2        1.0  0.6121319830522085  0.9128480174474733  0.6170979784282907  1.0000
  C   C3        1.0  0.3013979507152343  0.9126407519119584  0.11706450013581103  1.0000
  C   C4        1.0  0.38785558930594993  0.08714197160238511  0.38289727119072137  1.0000
  C   C5        1.0  0.7996333995642146  0.15553728136922734  0.8272741925361019  1.0000
  C   C6        1.0  0.6451600171109959  0.8445962064463896  0.672741675601074  1.0000
  C   C7        1.0  0.20038636298929902  0.8444610252057458  0.172730090867809  1.0000
  C   C8        1.0  0.35483747289025314  0.15540284535671842  0.3272546540064525  1.0000
  C   C9        1.0  0.7381750172597706  0.2071563721286012  0.7784538787359454  1.0000
  C   C10       1.0  0.5320150062645795  0.7930558607068506  0.7214842144176147  1.0000
  C   C11       1.0  0.26182887399187393  0.7928339033486864  0.22155009042312918  1.0000
  C   C12       1.0  0.4679851836996676  0.20694427777678479  0.2785146249374222  1.0000
  C   C13       1.0  0.8325644478665525  0.2677735073707481  0.7267934391300772  1.0000
  C   C14       1.0  0.565617485801269  0.7323685145088987  0.7731924345573234  1.0000
  C   C15       1.0  0.16742919764179492  0.7322156845907417  0.2732080201473722  1.0000
  C   C16       1.0  0.43439115900827835  0.2676377562773098  0.22680983747837052  1.0000
  C   C17       1.0  0.04178579156375413  0.22689584044693595  0.767627896610179  1.0000
  C   C18       1.0  0.8156655480510226  0.772920234268874  0.7325315541862383  1.0000
  C   C19       1.0  0.9582202924388526  0.7731053051718464  0.23237112741578875  1.0000
  C   C20       1.0  0.18434024768185966  0.22708896877642107  0.2674683650806814  1.0000
  C   C21       1.0  0.9558249271149535  0.16873063795912202  0.8226215724684424  1.0000
  C   C22       1.0  0.7880410168492916  0.8311453562055462  0.6774707912588057  1.0000
  C   C23       1.0  0.04419191678386625  0.8312726201183908  0.17738072729779472  1.0000
  C   C24       1.0  0.21195689781160354  0.16885670468940361  0.3225255107714631  1.0000
  C   C25       1.0  0.34598250051251267  0.7337762507940297  0.9455927168458305  1.0000
  C   C26       1.0  0.6118308691623539  0.2662698926099694  0.5540983332742115  1.0000
  C   C27       1.0  0.6540143661779254  0.26622802526914313  0.054409767131510016  1.0000
  C   C28       1.0  0.38815715785360544  0.7337253202478494  0.44590307073376323  1.0000
  C   C29       1.0  0.32468850561262036  0.6260835132970329  0.9832462387513349  1.0000
  C   C30       1.0  0.6982729606125133  0.3739007454598209  0.516432718659324  1.0000
  C   C31       1.0  0.6753013791132149  0.37391973653583227  0.016755479252395816  1.0000
  C   C32       1.0  0.3017247880362106  0.6260945024235981  0.4835698480881165  1.0000
  C   C33       1.0  0.44065130424376536  0.646441269439933  0.043248742060882334  1.0000
  C   C34       1.0  0.7941800169743233  0.3535586769103177  0.45658935916358706  1.0000
  C   C35       1.0  0.5593437217605911  0.3535679576736754  0.9567517582979477  1.0000
  C   C36       1.0  0.2058167133262004  0.6464345326344871  0.5434122571500666  1.0000
  C   C37       1.0  0.4074806232906241  0.5568150893857364  0.08690987736699904  1.0000
  C   C38       1.0  0.8506938205051638  0.44319174836322617  0.4129472864663627  1.0000
  C   C39       1.0  0.5925154310195496  0.4431961956137514  0.9130921547091264  1.0000
  C   C40       1.0  0.14930661814893403  0.5568045666534475  0.5870572087450654  1.0000
  C   C41       1.0  0.15817240915364292  0.4209322117911327  0.010065639274557702  1.0000
  C   C42       1.0  0.7368845514081741  0.5790986814204118  0.4895224558426676  1.0000
  C   C43       1.0  0.8418271176693184  0.5790730727634995  0.989937029316231  1.0000
  C   C44       1.0  0.2631233236177266  0.4208995714859115  0.5104800834999494  1.0000
  C   C45       1.0  0.1821339930676303  0.508822965996153  0.9653181015254689  1.0000
  C   C46       1.0  0.6728874629497527  0.4911906963763216  0.5342417607084117  1.0000
  C   C47       1.0  0.8178569795844411  0.4911803029318734  0.034684197780933325  1.0000
  C   C48       1.0  0.327120936186681  0.5088086050202065  0.4657621257763653  1.0000
  C   C49       1.0  0.945024846726284  0.9267685686222293  0.9741496270660479  1.0000
  C   C50       1.0  0.0180575088316246  0.0732101310532798  0.5258692842760624  1.0000
  C   C51       1.0  0.05497414615382471  0.0732378039692492  0.025855551214768006  1.0000
  C   C52       1.0  0.9819264816052499  0.9267877994958128  0.4741233728253463  1.0000
  C   C53       1.0  0.21570637068351328  0.9232705160046  0.728498370772947  1.0000
  C   C54       1.0  0.2923955082568668  0.0770455858885271  0.771514986519435  1.0000
  C   C55       1.0  0.7842842167634885  0.07672335379770352  0.2714929668976823  1.0000
  C   C56       1.0  0.7076063232411016  0.9229492105993276  0.2284742107838867  1.0000
  N   N1        1.0  0.9812132091917009  0.2752872319619968  0.7194992485993907  1.0000
  N   N2        1.0  0.7066423906315508  0.7246917775241287  0.7805997249292959  1.0000
  N   N3        1.0  0.018785557679926512  0.7247078981857129  0.280499830466141  1.0000
  N   N4        1.0  0.29336709353967205  0.27532049189850494  0.21940191066837403  1.0000
  N   N5        1.0  0.26765527579711096  0.44576842478209505  0.07169568080465183  1.0000
  N   N6        1.0  0.8217555296478737  0.5542615764838532  0.42802557116570483  1.0000
  N   N7        1.0  0.7323451798807883  0.5542408782600604  0.9283071447840217  1.0000
  N   N8        1.0  0.17824976478114968  0.44573366823482985  0.5719769957158505  1.0000
  O   O1        1.0  0.5488802828757359  0.03586674391468141  0.8630104367031424  1.0000
  O   O2        1.0  0.5138398879020443  0.964398478004142  0.6370460002721217  1.0000
  O   O3        1.0  0.4511383250649534  0.964120613877633  0.13699646671898352  1.0000
  O   O4        1.0  0.48614614199737366  0.035588424216904  0.3629469517709438  1.0000
  O   O5        1.0  0.7714909726392065  0.0884995664276431  0.94542728205505  1.0000
  O   O6        1.0  0.68363952183703  0.9116067294192691  0.5545655270071921  1.0000
  O   O7        1.0  0.2285404559840813  0.9115199370043073  0.054580877445900546  1.0000
  O   O8        1.0  0.3163470619204816  0.0883791238594682  0.4454260779128774  1.0000
  O   O9        1.0  0.23542815717254242  0.7149482628824375  0.8939391711437  1.0000
  O   O10       1.0  0.5201126102187744  0.28526178210181297  0.6057124774322562  1.0000
  O   O11       1.0  0.7645563377102249  0.2850549892109484  0.10606254676422822  1.0000
  O   O12       1.0  0.47987588116200197  0.7147343619626056  0.3942867860168136  1.0000
  O   O13       1.0  0.47153002661496407  0.8461131854456381  0.970380684979702  1.0000
  O   O14       1.0  0.6250680080636569  0.15385846216073423  0.5293953550715642  1.0000
  O   O15       1.0  0.52846429905847  0.15388384847033626  0.029615275439233812  1.0000
  O   O16       1.0  0.3749115641069949  0.8461306183945183  0.47060261625574645  1.0000
  O   O17       1.0  0.003008627405833381  0.8650835650689856  0.9187712584087608  1.0000
  O   O18       1.0  0.13759414129992822  0.13487672145129892  0.5813185450651304  1.0000
  O   O19       1.0  0.9970070292411678  0.13492379058933324  0.08123352345107553  1.0000
  O   O20       1.0  0.8623856465456897  0.8651171137775151  0.4186716298468767  1.0000
  O   O21       1.0  0.8038586430085246  0.8767099300113161  0.9895983778257149  1.0000
  O   O22       1.0  0.9268578684292663  0.12329610396407283  0.5104073295379551  1.0000
  O   O23       1.0  0.1961581880412382  0.123306257449876  0.010400508467228096  1.0000
  O   O24       1.0  0.07312074212215712  0.8767018483928058  0.4895859087511597  1.0000
  O   O25       1.0  0.20121655257032262  0.8483179792018664  0.7719731209015778  1.0000
  O   O26       1.0  0.3526412697573634  0.1519907278496007  0.7280039217493197  1.0000
  O   O27       1.0  0.7987834612988325  0.15167317064864252  0.22802696377141984  1.0000
  O   O28       1.0  0.6473420204738932  0.8479971655761607  0.2719886335278901  1.0000
  O   O29       1.0  0.16910990015502855  0.8851729336714271  0.6526646926078143  1.0000
  O   O30       1.0  0.28382635045736043  0.11515435852911793  0.8473206587607935  1.0000
  O   O31       1.0  0.8308708593927392  0.11481420537734274  0.3473352347415856  1.0000
  O   O32       1.0  0.7161890006455142  0.8848437543816065  0.1526778117313584  1.0000
