data_image0
_chemical_formula_structural       Zn4H34C80N8O24F10
_chemical_formula_sum              "Zn4 H34 C80 N8 O24 F10"
_cell_length_a       14.05429924969866
_cell_length_b       21.704790728510673
_cell_length_c       21.793902386979482
_cell_angle_alpha    90.20429939527381
_cell_angle_beta     90.16130320057911
_cell_angle_gamma    89.9807998097123

_space_group_name_H-M_alt    "P 1"
_space_group_IT_number       1

loop_
  _space_group_symop_operation_xyz
  'x, y, z'

loop_
  _atom_site_type_symbol
  _atom_site_label
  _atom_site_symmetry_multiplicity
  _atom_site_fract_x
  _atom_site_fract_y
  _atom_site_fract_z
  _atom_site_occupancy
  Zn  Zn1       1.0  0.6064342796964084  0.9961955837947651  0.50036487693675  1.0000
  Zn  Zn2       1.0  0.40685102745830903  0.0028673369575357996  0.4999973916788534  1.0000
  Zn  Zn3       1.0  0.39362347533321446  0.5006869302440933  0.0045162134168706  1.0000
  Zn  Zn4       1.0  0.5931282633525472  0.5004781719926256  0.9981145008708693  1.0000
  H   H1        1.0  0.9403401460064063  0.8962531191450223  0.49181293670983445  1.0000
  H   H2        1.0  0.070621186394888  0.10015653791604959  0.5002625625550436  1.0000
  H   H3        1.0  0.25875422112058993  0.90952350868028  0.4973634267596622  1.0000
  H   H4        1.0  0.08281648949962771  0.8998852873829576  0.4948555501357035  1.0000
  H   H5        1.0  0.7542335344465202  0.0877517042293405  0.5017646362735988  1.0000
  H   H6        1.0  0.929977772980017  0.09660695073040418  0.5015096612275372  1.0000
  H   H7        1.0  0.34307416234952376  0.861871254987541  0.3586907555281016  1.0000
  H   H8        1.0  0.6461391477441509  0.8609572024405309  0.36622720456298197  1.0000
  H   H9        1.0  0.6573987144035841  0.6424187556328532  0.1386294842325739  1.0000
  H   H10       1.0  0.35449866136516306  0.633484737829704  0.1407931371591857  1.0000
  H   H11       1.0  0.6593974076376344  0.2263702855055456  0.722380945933736  1.0000
  H   H12       1.0  0.34054196941795584  0.2779954401981611  0.7753309417680967  1.0000
  H   H13       1.0  0.6314501042272557  0.3676090606328443  0.8670108698329599  1.0000
  H   H14       1.0  0.6481278195439089  0.28788171612839614  0.787243371069259  1.0000
  H   H15       1.0  0.36898009328483283  0.13314735657579743  0.63373571851087  1.0000
  H   H16       1.0  0.3518910447037699  0.2129136882311613  0.7134959888046025  1.0000
  H   H17       1.0  0.6672193312368008  0.22224274877751066  0.2837029738290511  1.0000
  H   H18       1.0  0.35552717194058664  0.28213882736127965  0.22246022631566834  1.0000
  H   H19       1.0  0.655724990266819  0.36133464417056155  0.1354413221964776  1.0000
  H   H20       1.0  0.6638119266613958  0.28114845296097707  0.214827814183927  1.0000
  H   H21       1.0  0.36535324764054883  0.13516794727576098  0.360579615659077  1.0000
  H   H22       1.0  0.35889865698284507  0.21469513897956452  0.2806727306975176  1.0000
  H   H23       1.0  0.6441343915245457  0.7789912475361901  0.720068003438719  1.0000
  H   H24       1.0  0.3325380098286672  0.7179665018041914  0.7791034453547566  1.0000
  H   H25       1.0  0.6343654611798115  0.6405488034296595  0.8668093044805474  1.0000
  H   H26       1.0  0.64086147317731  0.7203533837523038  0.7872029929156171  1.0000
  H   H27       1.0  0.34369622179686127  0.8651201773083769  0.6390036487853692  1.0000
  H   H28       1.0  0.33579032871972453  0.7861422335485883  0.719554132156567  1.0000
  H   H29       1.0  0.060107709235076405  0.5084609305765895  0.103989082677522  1.0000
  H   H30       1.0  0.9285363490635279  0.5007582831519171  0.9009209672794681  1.0000
  H   H31       1.0  0.7418804098050131  0.5027551730329021  0.09104816708936878  1.0000
  H   H32       1.0  0.9178827061128914  0.5055255650578799  0.10040270759323988  1.0000
  H   H33       1.0  0.24521847874967764  0.49887932756443115  0.913210413511628  1.0000
  H   H34       1.0  0.06943369618714  0.49928063359744346  0.9044267705985547  1.0000
  C   C1        1.0  0.5236719627930384  0.08473698495041757  0.5844563011874584  1.0000
  C   C2        1.0  0.5143338705789448  0.08365583053262068  0.415247677599872  1.0000
  C   C3        1.0  0.4940451987488928  0.9139774520600809  0.4150325867045694  1.0000
  C   C4        1.0  0.49438222036349805  0.9150864310114385  0.5845373424429994  1.0000
  C   C5        1.0  0.47731020706277855  0.4169047715295378  0.9157097709413478  1.0000
  C   C6        1.0  0.4851739704123332  0.5865086543630653  0.9182827242552919  1.0000
  C   C7        1.0  0.5067015648542252  0.5851759180466728  0.0873816458876817  1.0000
  C   C8        1.0  0.5047078665538579  0.41561270937829403  0.0848240454903291  1.0000
  C   C9        1.0  0.8060481893058339  0.9417192229875934  0.4951134475677534  1.0000
  C   C10       1.0  0.9048305844508775  0.9406721650844999  0.4944006742568874  1.0000
  C   C11       1.0  0.2054085663020899  0.05520160499975189  0.5008871763134408  1.0000
  C   C12       1.0  0.10669447795236661  0.05588329715742191  0.49959980046870806  1.0000
  C   C13       1.0  0.21285106774643484  0.9499777959031803  0.49795117278122797  1.0000
  C   C14       1.0  0.11458291231873122  0.9455202105642755  0.49663589410719317  1.0000
  C   C15       1.0  0.7996199705160693  0.04711138088546109  0.4996666477262722  1.0000
  C   C16       1.0  0.8978912668523409  0.051090122878548486  0.4994750982721854  1.0000
  C   C17       1.0  0.9532298847094155  0.997029228649204  0.49694535682194635  1.0000
  C   C18       1.0  0.058631280329350915  0.9993787318189928  0.4975346703342964  1.0000
  C   C19       1.0  0.4094646432366957  0.8425267111050091  0.3416500345019173  1.0000
  C   C20       1.0  0.41033596118452204  0.7969500906727658  0.2958570473589504  1.0000
  C   C21       1.0  0.3250793787662332  0.7711571359465522  0.270213430225823  1.0000
  C   C22       1.0  0.5818381279344323  0.8422844497495917  0.3453995725988719  1.0000
  C   C23       1.0  0.5856674563949583  0.7965319367669607  0.2999842455145227  1.0000
  C   C24       1.0  0.6735016612976497  0.7726980389095173  0.2763026905966512  1.0000
  C   C25       1.0  0.5910612248524032  0.6592011717251722  0.158227450069397  1.0000
  C   C26       1.0  0.5901849767556868  0.7049854327469304  0.2038136253031411  1.0000
  C   C27       1.0  0.6754638431726718  0.7306978133415497  0.22951989944322554  1.0000
  C   C28       1.0  0.4187295294909605  0.6547642949498778  0.1590535378847804  1.0000
  C   C29       1.0  0.4148447903078533  0.7004845507707244  0.2044925714933896  1.0000
  C   C30       1.0  0.32703933819971814  0.724260033218371  0.22829466807850446  1.0000
  C   C31       1.0  0.49460530889045634  0.8648618179205979  0.3659617470882068  1.0000
  C   C32       1.0  0.4991634028044203  0.7729816061476169  0.2741221710811672  1.0000
  C   C33       1.0  0.5059844117024853  0.6344530925607754  0.1362958462819677  1.0000
  C   C34       1.0  0.5013500178581296  0.7265800112002053  0.2278350381075214  1.0000
  C   C35       1.0  0.5205830795183317  0.1339699201080649  0.6327882212860487  1.0000
  C   C36       1.0  0.47985034375902563  0.368397675690744  0.8666648874450616  1.0000
  C   C37       1.0  0.6004182453715645  0.16211064886164905  0.6594901384450154  1.0000
  C   C38       1.0  0.593267617513419  0.20730723178714777  0.7044803516006652  1.0000
  C   C39       1.0  0.3998438282809219  0.3414379528395841  0.8389814626688548  1.0000
  C   C40       1.0  0.40675591676679096  0.29626793611185315  0.7939098447950599  1.0000
  C   C41       1.0  0.5685885941741162  0.3471513889146251  0.8459223427794528  1.0000
  C   C42       1.0  0.5770721854091292  0.3022363938703592  0.8009215640669397  1.0000
  C   C43       1.0  0.4317317685165564  0.1544328917497495  0.6541418849730007  1.0000
  C   C44       1.0  0.42300088218267723  0.19947025016497114  0.6990174729453713  1.0000
  C   C45       1.0  0.503968373046945  0.22721877866872825  0.7255419581792637  1.0000
  C   C46       1.0  0.49598172124726153  0.2754151648345839  0.7736071583515597  1.0000
  C   C47       1.0  0.5167547197079969  0.13282369457937188  0.3672415291704425  1.0000
  C   C48       1.0  0.5041946604409375  0.36692556869431303  0.1332764659819219  1.0000
  C   C49       1.0  0.6000256988249789  0.15924440430678286  0.3436672506631737  1.0000
  C   C50       1.0  0.5987898214874647  0.20449771099429628  0.2988142156245246  1.0000
  C   C51       1.0  0.4213157367224128  0.3425151938142291  0.15946359840885546  1.0000
  C   C52       1.0  0.423653723321145  0.2977270287318489  0.20469910487756948  1.0000
  C   C53       1.0  0.5906101776362152  0.3430299672143064  0.1553321388716142  1.0000
  C   C54       1.0  0.5943782426457886  0.29794499808930647  0.2002522447173689  1.0000
  C   C55       1.0  0.43080723340440136  0.15504072537932245  0.3427767936540462  1.0000
  C   C56       1.0  0.42805102955005475  0.2000422361768059  0.29782407828044904  1.0000
  C   C57       1.0  0.5123789339344001  0.22604981446417574  0.2744865609431741  1.0000
  C   C58       1.0  0.5104452526483457  0.27407546312740283  0.2263227411348439  1.0000
  C   C59       1.0  0.49521894874729355  0.8670978986277262  0.6337040010841051  1.0000
  C   C60       1.0  0.48290851607651325  0.6343868831713804  0.8690311140433805  1.0000
  C   C61       1.0  0.5781566632041475  0.8411794031131944  0.6586765611217231  1.0000
  C   C62       1.0  0.5759345053707108  0.7963884468360188  0.7039294786966009  1.0000
  C   C63       1.0  0.39966683904664546  0.6580497321685213  0.8424077548560759  1.0000
  C   C64       1.0  0.40094187616580973  0.7027904747967636  0.7970646266763382  1.0000
  C   C65       1.0  0.5688983805270383  0.6585291164224002  0.8468881738742481  1.0000
  C   C66       1.0  0.5716927850977174  0.7034185805762049  0.8018275103737338  1.0000
  C   C67       1.0  0.4088620985460664  0.8452825016991669  0.6575733661263001  1.0000
  C   C68       1.0  0.40520260240548117  0.8006550518709757  0.7029389463837603  1.0000
  C   C69       1.0  0.4891958382274382  0.7747996931840148  0.7273204903817643  1.0000
  C   C70       1.0  0.4873605928990798  0.7268817631202609  0.7755988131036844  1.0000
  C   C71       1.0  0.19414456930691412  0.5050839549769037  0.0586765812607197  1.0000
  C   C72       1.0  0.0953566072218308  0.5059395770901601  0.05971412395403769  1.0000
  C   C73       1.0  0.7940842241382241  0.4997330155299693  0.9458685396958302  1.0000
  C   C74       1.0  0.8927765177681978  0.5012599511995718  0.9450611316479964  1.0000
  C   C75       1.0  0.7874719443279545  0.5023860252911304  0.05069466986495999  1.0000
  C   C76       1.0  0.8857582150543949  0.5038256512064336  0.054998088113364894  1.0000
  C   C77       1.0  0.20003442373216274  0.5009783173134538  0.9536963884136326  1.0000
  C   C78       1.0  0.10172850979652283  0.5011952664114148  0.9497587754952618  1.0000
  C   C79       1.0  0.04664479587089691  0.5036322606504411  0.0035881864339799992  1.0000
  C   C80       1.0  0.9412526847729057  0.5031263107762952  0.0012871367927189997  1.0000
  N   N1        1.0  0.7537043298830923  0.9924981383299495  0.4976886676955488  1.0000
  N   N2        1.0  0.25850642504334337  0.004739435389737399  0.5001398958185064  1.0000
  N   N3        1.0  0.24626277139717703  0.5027364806822092  0.0080869649163162  1.0000
  N   N4        1.0  0.7413991541321678  0.50021780624877  0.9962049059071701  1.0000
  N   N5        1.0  0.23635503848309014  0.6980974023920011  0.2055713973842472  1.0000
  N   N6        1.0  0.23265773007519644  0.7949166938428434  0.2924365188609599  1.0000
  N   N7        1.0  0.7678850615293416  0.7084097029825002  0.20582214462299928  1.0000
  N   N8        1.0  0.7641066689950691  0.7954417487181116  0.3025423574094361  1.0000
  O   O1        1.0  0.604041113417871  0.06566072837539139  0.5659768728438762  1.0000
  O   O2        1.0  0.4426748079518461  0.0656261645138301  0.5656727616464607  1.0000
  O   O3        1.0  0.43207389869761675  0.06480221909964709  0.431181006259294  1.0000
  O   O4        1.0  0.5932739958691327  0.06435771968477869  0.43626839750631763  1.0000
  O   O5        1.0  0.4134922001784034  0.9319725360655365  0.4344957066674837  1.0000
  O   O6        1.0  0.575228067862412  0.9328560281423606  0.4323560874344849  1.0000
  O   O7        1.0  0.5746405436031454  0.9340970552042194  0.5657330843073041  1.0000
  O   O8        1.0  0.41330159827522556  0.9331496586943187  0.5652341486721895  1.0000
  O   O9        1.0  0.39754501463564657  0.4396321708616709  0.9310369928927856  1.0000
  O   O10       1.0  0.5580580163150657  0.43163304473866765  0.9384201928133747  1.0000
  O   O11       1.0  0.5672700922668525  0.5664428459274831  0.9333925541211698  1.0000
  O   O12       1.0  0.4064713939009081  0.5697994012018909  0.9414180350918997  1.0000
  O   O13       1.0  0.587096156949258  0.5691587336879991  0.06604088443420858  1.0000
  O   O14       1.0  0.42578278907522105  0.5642159162058816  0.0720691329558818  1.0000
  O   O15       1.0  0.4248387238453404  0.4307049389240518  0.061915480797814795  1.0000
  O   O16       1.0  0.5853215748007942  0.4381288713578684  0.0701441613586624  1.0000
  O   O17       1.0  0.22528404607494681  0.641948947129336  0.21169962592764344  1.0000
  O   O18       1.0  0.17935974854398037  0.7342749744372769  0.18174982518928567  1.0000
  O   O19       1.0  0.21517996945136283  0.8496381964049105  0.2820282122911237  1.0000
  O   O20       1.0  0.18171331067973992  0.7584766949547583  0.3208764144384517  1.0000
  O   O21       1.0  0.7849219984236913  0.7188223828617664  0.15129714483623496  1.0000
  O   O22       1.0  0.8192561216188848  0.6799314532488407  0.2421142629616853  1.0000
  O   O23       1.0  0.7752694340588635  0.7891693774640273  0.3584658892626962  1.0000
  O   O24       1.0  0.8209342504746999  0.8194608528335293  0.2666646708799831  1.0000
  F   F1        1.0  0.7585748455559839  0.8882688016741226  0.4931851202743758  1.0000
  F   F2        1.0  0.2522913650269771  0.10909114177579227  0.5032157514445004  1.0000
  F   F3        1.0  0.6901595078281417  0.1463549650968616  0.642184566339516  1.0000
  F   F4        1.0  0.31018924116177965  0.3583002532254156  0.8555065757209165  1.0000
  F   F5        1.0  0.6875317428173631  0.14170982625616085  0.36405094579478  1.0000
  F   F6        1.0  0.33349098671850913  0.36209148260110874  0.1421720083534126  1.0000
  F   F7        1.0  0.6659633003926404  0.8585794365234488  0.6395475675794131  1.0000
  F   F8        1.0  0.3122086508345987  0.6375596914202859  0.8595355764810789  1.0000
  F   F9        1.0  0.24176327436377681  0.5066677558977729  0.1119489038419275  1.0000
  F   F10       1.0  0.7468283094823961  0.4973557523999189  0.8922644517704512  1.0000
