data_image0
_chemical_formula_structural       Zr6H10C52S10Br10O34
_chemical_formula_sum              "Zr6 H10 C52 S10 Br10 O34"
_cell_length_a       16.469824723148776
_cell_length_b       16.45185071765017
_cell_length_c       16.53356127112366
_cell_angle_alpha    61.68786978509269
_cell_angle_beta     59.79625470822493
_cell_angle_gamma    60.29959016270991

_space_group_name_H-M_alt    "P 1"
_space_group_IT_number       1

loop_
  _space_group_symop_operation_xyz
  'x, y, z'

loop_
  _atom_site_type_symbol
  _atom_site_label
  _atom_site_symmetry_multiplicity
  _atom_site_fract_x
  _atom_site_fract_y
  _atom_site_fract_z
  _atom_site_occupancy
  Zr  Zr1       1.0  0.8883453764383449  0.9019627109429676  0.5982682394375161  1.0000
  Zr  Zr2       1.0  0.11149707917863344  0.10281951263907978  0.3973151816770937  1.0000
  Zr  Zr3       1.0  0.1023706170470291  0.8940074775724368  0.6063808495511296  1.0000
  Zr  Zr4       1.0  0.8972418979832569  0.1110460685744596  0.38934072875682785  1.0000
  Zr  Zr5       1.0  0.10875795383407884  0.8935217883742939  0.388869938730032  1.0000
  Zr  Zr6       1.0  0.8908961971061871  0.11143014352499842  0.6067536166324812  1.0000
  H   H1        1.0  0.0780281330055033  0.7523491479168173  0.577270073026078  1.0000
  H   H2        1.0  0.09238670160436163  0.08188560776851259  0.24766857084961907  1.0000
  H   H3        1.0  0.08366561929832984  0.08219851741152699  0.5887922086776314  1.0000
  H   H4        1.0  0.7453348505749136  0.09347235894357186  0.5776126750779086  1.0000
  H   H5        1.0  0.09956081665455946  0.6400655239135774  0.868131675872327  1.0000
  H   H6        1.0  0.8415901267843467  0.6541238769204227  0.8516330064762343  1.0000
  H   H7        1.0  0.8923492066853173  0.37275674188430225  0.13556930389992755  1.0000
  H   H8        1.0  0.1530023160411246  0.3559565783768051  0.1493745305661989  1.0000
  H   H9        1.0  0.18272244658519585  0.5611588701537611  0.93997761930666  1.0000
  H   H10       1.0  0.8161461090166854  0.44466050837070975  0.056742437840043014  1.0000
  C   C1        1.0  0.9962129261470523  0.7390836631258039  0.48310572108185557  1.0000
  C   C2        1.0  0.28178468211296337  0.9874293972735659  0.234660150965766  1.0000
  C   C3        1.0  0.9965299108361736  0.27287740982644215  0.5052940018749008  1.0000
  C   C4        1.0  0.7254989258869174  0.009720577920802347  0.7684785430314065  1.0000
  C   C5        1.0  0.980612210904511  0.7407411773839881  0.7658130222828206  1.0000
  C   C6        1.0  0.7314799103141357  0.0036599445805477362  0.4888687464182837  1.0000
  C   C7        1.0  0.013006511889642485  0.2703379150221039  0.23612540597735426  1.0000
  C   C8        1.0  0.2760109412632946  0.993434571877522  0.49905349836047447  1.0000
  C   C9        1.0  0.27292591487441337  0.7307553034595032  0.49716510186681256  1.0000
  C   C10       1.0  0.9927046806522956  0.9959582351649484  0.7768415534414003  1.0000
  C   C11       1.0  0.7342357308266048  0.2813731825980738  0.4915007290334614  1.0000
  C   C12       1.0  0.9988840188328255  0.0016263282723017554  0.22628676170644718  1.0000
  C   C13       1.0  0.9250973888708175  0.4239574117844353  0.5637263105869509  1.0000
  C   C14       1.0  0.06415863076436763  0.5910405734732651  0.42144368263700466  1.0000
  C   C15       1.0  0.9930868223154834  0.36481969937227604  0.5026614919617457  1.0000
  C   C16       1.0  0.9966948186437251  0.6498209138532116  0.482919116771768  1.0000
  C   C17       1.0  0.03797906663479718  0.5088129381776128  0.4506512713359925  1.0000
  C   C18       1.0  0.9507376533935388  0.5066730086654728  0.5340296145738819  1.0000
  C   C19       1.0  0.4237597155447047  0.9255217205842072  0.08682207709026799  1.0000
  C   C20       1.0  0.5880572033997566  0.067399060042014  0.9201905956721106  1.0000
  C   C21       1.0  0.37108732150981893  0.9868817002852242  0.14571361390287757  1.0000
  C   C22       1.0  0.6399996332015051  0.006683970104283568  0.8607421052587226  1.0000
  C   C23       1.0  0.5094725025485047  0.0376066407096402  0.002915986726712565  1.0000
  C   C24       1.0  0.5031802917443858  0.9545282953542297  0.0047741873539023415  1.0000
  C   C25       1.0  0.059952547216397575  0.9284307350293516  0.9168471473625246  1.0000
  C   C26       1.0  0.9269833236868411  0.06486574819596293  0.09076880431362601  1.0000
  C   C27       1.0  0.993528007841121  0.9932452585204814  0.8667157132136295  1.0000
  C   C28       1.0  0.9941590046245994  0.0007255535708025779  0.14015729925081633  1.0000
  C   C29       1.0  0.9505610245811059  0.038411577755475185  0.009652403063845993  1.0000
  C   C30       1.0  0.03556509601614952  0.9541319052455891  0.998727634951223  1.0000
  C   C31       1.0  0.41657289844459217  0.5948139070710567  0.5610228554794218  1.0000
  C   C32       1.0  0.594072921566216  0.42103843243277334  0.4244565797229143  1.0000
  C   C33       1.0  0.36434757639926135  0.6443068772869509  0.49668446873837263  1.0000
  C   C34       1.0  0.645882595904709  0.3709215720393643  0.48920388044055557  1.0000
  C   C35       1.0  0.5107762734633354  0.5027446037639081  0.4503254833952538  1.0000
  C   C36       1.0  0.5004832788612816  0.5136073620634177  0.5346812018876149  1.0000
  C   C37       1.0  0.04198276809598421  0.6077982474735819  0.8995003009082794  1.0000
  C   C38       1.0  0.8949976492019477  0.6174389710953817  0.8888936775286281  1.0000
  C   C39       1.0  0.8876493603165372  0.5357134961896434  0.9698629100872934  1.0000
  C   C40       1.0  0.9573496558678017  0.4868198429698793  0.019773338967162508  1.0000
  C   C41       1.0  0.9508528182962978  0.4040879393679616  0.10329089447677106  1.0000
  C   C42       1.0  0.09888953009959789  0.3933660149755127  0.1128162874188021  1.0000
  C   C43       1.0  0.10697179943387171  0.47436742481154687  0.031128787087212097  1.0000
  C   C44       1.0  0.03623280306515427  0.524319070125756  0.9822650011502176  1.0000
  C   C45       1.0  0.972460036977083  0.6534270721249839  0.8539600581680276  1.0000
  C   C46       1.0  0.020302973354269258  0.35851497451569253  0.14888041681563638  1.0000
  C   C47       1.0  0.41930617879712173  0.059567707694547736  0.4275780665608622  1.0000
  C   C48       1.0  0.5934391931301732  0.9322763704457627  0.5550335628917438  1.0000
  C   C49       1.0  0.3671981614648132  0.9942712724004181  0.4937456041525722  1.0000
  C   C50       1.0  0.6447155110864741  0.9984097046238034  0.4897362716584225  1.0000
  C   C51       1.0  0.5116969381770603  0.9541643308303235  0.5319713608486579  1.0000
  C   C52       1.0  0.5021901623242544  0.036590194740384024  0.4494970845658273  1.0000
  S   S1        1.0  0.08843910075020033  0.4102679565497525  0.4087293343469511  1.0000
  S   S2        1.0  0.9007924389486986  0.6048458668067624  0.5763536786623432  1.0000
  S   S3        1.0  0.4189331985757648  0.07991565228704889  0.10110536514617505  1.0000
  S   S4        1.0  0.5930075799905836  0.9128847523658408  0.9059945980682544  1.0000
  S   S5        1.0  0.9007156972381127  0.08575466660995769  0.9202758751945126  1.0000
  S   S6        1.0  0.08608717988656882  0.9073955556362919  0.08743551844974454  1.0000
  S   S7        1.0  0.4184527721037056  0.5915167048051232  0.4034083787629398  1.0000
  S   S8        1.0  0.592469201690051  0.4242938838170572  0.581904248553421  1.0000
  S   S9        1.0  0.41996448543411474  0.9045804142344737  0.5824321831330223  1.0000
  S   S10       1.0  0.5930227156026363  0.0870531847726069  0.3999747916510543  1.0000
  Br  Br1       1.0  0.8118340443859537  0.40307742711838274  0.6733990560971532  1.0000
  Br  Br2       1.0  0.17804548037299384  0.611232007636211  0.3124132190667907  1.0000
  Br  Br3       1.0  0.39810786899921174  0.8170349581439352  0.10656976552806433  1.0000
  Br  Br4       1.0  0.612652893228358  0.17682890204804363  0.8996851915753296  1.0000
  Br  Br5       1.0  0.17226659429763921  0.8194032321487869  0.8853470465161591  1.0000
  Br  Br6       1.0  0.8156294656149756  0.17463069414553428  0.12165656532089017  1.0000
  Br  Br7       1.0  0.38714332499127824  0.6256946324852423  0.6708823049986421  1.0000
  Br  Br8       1.0  0.6222850729553215  0.3896723685434365  0.3153359468452094  1.0000
  Br  Br9       1.0  0.39079037809675304  0.1675656900471053  0.32076259252720973  1.0000
  Br  Br10      1.0  0.6207279988142319  0.8255529553414929  0.6630890557604943  1.0000
  O   O1        1.0  0.9248147222317586  0.7755457550319491  0.5518118698422894  1.0000
  O   O2        1.0  0.2479545372936515  0.05619267343784168  0.2710606963795144  1.0000
  O   O3        1.0  0.06962698629019567  0.2349091131559078  0.438266238794192  1.0000
  O   O4        1.0  0.757224523977023  0.9428939255743315  0.730323323475865  1.0000
  O   O5        1.0  0.052096411460993926  0.7711858217066022  0.734631659278378  1.0000
  O   O6        1.0  0.765333690456629  0.07253394355686986  0.4221037551323406  1.0000
  O   O7        1.0  0.9421859992394704  0.239217591357203  0.26659370183435965  1.0000
  O   O8        1.0  0.24002346104961703  0.9266997589421493  0.5679429161502297  1.0000
  O   O9        1.0  0.24092691053837734  0.7622030983508309  0.42780509424085267  1.0000
  O   O10       1.0  0.9247336607905794  0.06699585919570668  0.7435191001964226  1.0000
  O   O11       1.0  0.7646562383593932  0.24812963075578395  0.5624227880698242  1.0000
  O   O12       1.0  0.06888103276307318  0.9323813753652888  0.25767929295483327  1.0000
  O   O13       1.0  0.06128165059745772  0.9276899560683703  0.738654975423806  1.0000
  O   O14       1.0  0.7722721989272402  0.2433604857900349  0.42306524037936555  1.0000
  O   O15       1.0  0.9332449559354643  0.07249922801395994  0.261784534246196  1.0000
  O   O16       1.0  0.2323406026225073  0.7664564093905425  0.5678741884221239  1.0000
  O   O17       1.0  0.915099974473556  0.778395711653751  0.7262409065199619  1.0000
  O   O18       1.0  0.2391219697391024  0.06200356307515156  0.43372299156011007  1.0000
  O   O19       1.0  0.0805200409192608  0.2306547088413993  0.27369065118921304  1.0000
  O   O20       1.0  0.7651448614267478  0.9383046010883266  0.5574250987694709  1.0000
  O   O21       1.0  0.7605992288264505  0.0783601269265331  0.733359306618901  1.0000
  O   O22       1.0  0.06716493272253381  0.7719370491096242  0.41691912003575027  1.0000
  O   O23       1.0  0.24393744698430445  0.9214636005122472  0.26732991006571893  1.0000
  O   O24       1.0  0.9277836302156077  0.2378422688195341  0.5737710782237927  1.0000
  O   O25       1.0  0.8176734820522925  0.0686200466253693  0.5545109494516609  1.0000
  O   O26       1.0  0.05924949611844715  0.059130795124119125  0.5639372921419791  1.0000
  O   O27       1.0  0.06651227568714554  0.05851828304414399  0.3187511321634632  1.0000
  O   O28       1.0  0.05614162814210031  0.8234256577752178  0.553902512961109  1.0000
  O   O29       1.0  0.13405833946937673  0.9535661386303289  0.4560362271681696  1.0000
  O   O30       1.0  0.9562748344035299  0.9607013723296448  0.44894685156607034  1.0000
  O   O31       1.0  0.9582672794912385  0.1341539878685223  0.4566804038626414  1.0000
  O   O32       1.0  0.9508561347421252  0.9613520268890099  0.6295522723750081  1.0000
  O   O33       1.0  0.1845619396693866  0.5048154150070514  0.998683470533507  1.0000
  O   O34       1.0  0.8120217317461498  0.503310724449335  0.00034727978115253977  1.0000
