data_image0
_chemical_formula_structural       Zn8H16C60Cl8O26
_chemical_formula_sum              "Zn8 H16 C60 Cl8 O26"
_cell_length_a       18.500974448076434
_cell_length_b       18.500918351501852
_cell_length_c       18.966493779172133
_cell_angle_alpha    119.18287536761154
_cell_angle_beta     119.18267536209066
_cell_angle_gamma    89.99643659572966

_space_group_name_H-M_alt    "P 1"
_space_group_IT_number       1

loop_
  _space_group_symop_operation_xyz
  'x, y, z'

loop_
  _atom_site_type_symbol
  _atom_site_label
  _atom_site_symmetry_multiplicity
  _atom_site_fract_x
  _atom_site_fract_y
  _atom_site_fract_z
  _atom_site_occupancy
  Zn  Zn1       1.0  0.5412498095248636  0.12954881873134375  0.08259068958556527  1.0000
  Zn  Zn2       1.0  0.9639093280837584  0.37230909360508246  0.9278724034502231  1.0000
  Zn  Zn3       1.0  0.5555309247142616  0.963942692554596  0.9278630594619343  1.0000
  Zn  Zn4       1.0  0.9639425230141894  0.5555321317010351  0.9278635616238302  1.0000
  Zn  Zn5       1.0  0.37230814917682414  0.9639084374609439  0.9278708501380423  1.0000
  Zn  Zn6       1.0  0.9529484478450386  0.5412668903076038  0.0825669287482994  1.0000
  Zn  Zn7       1.0  0.5412635465332087  0.9529482399241404  0.08256498653825872  1.0000
  Zn  Zn8       1.0  0.12954648108785  0.5412501411904103  0.08258914169066871  1.0000
  H   H1        1.0  0.7697455270088369  0.2750411380180396  0.14005805107346697  1.0000
  H   H2        1.0  0.8650258780884171  0.7698649104786169  0.13997681359796119  1.0000
  H   H3        1.0  0.3701977885225176  0.8649171002664389  0.1400576737258206  1.0000
  H   H4        1.0  0.2750034590396098  0.37017262500509657  0.1399700319458716  1.0000
  H   H5        1.0  0.7698635654520842  0.8650263104181873  0.13997720289995633  1.0000
  H   H6        1.0  0.8649153992261915  0.3701995855626094  0.14005734374876505  1.0000
  H   H7        1.0  0.3701725853195937  0.275005736868401  0.1399706226803018  1.0000
  H   H8        1.0  0.27503962855264047  0.7697462249334135  0.14005775949185303  1.0000
  H   H9        1.0  0.4882588394528611  0.0680906763339735  0.6515978952707613  1.0000
  H   H10       1.0  0.5835402343857793  0.4882458633415752  0.6515600258158543  1.0000
  H   H11       1.0  0.16347346446814726  0.5834630919058127  0.6516176381386173  1.0000
  H   H12       1.0  0.06817259553497484  0.16346676352646483  0.6515313435997996  1.0000
  H   H13       1.0  0.4882485501897519  0.5835392604366801  0.6515595241769103  1.0000
  H   H14       1.0  0.5834621704402139  0.1634723965454299  0.6516171463651901  1.0000
  H   H15       1.0  0.1634654543610736  0.0681707088478589  0.6515304143660146  1.0000
  H   H16       1.0  0.06808979389371925  0.4882591345836716  0.6515971418886721  1.0000
  C   C1        1.0  0.37446288185536514  0.8745008579676183  0.7489778587405169  1.0000
  C   C2        1.0  0.2774312237441876  0.7774508270136877  0.5548391828515733  1.0000
  C   C3        1.0  0.19949192815459335  0.6782745040105524  0.9857465945202081  1.0000
  C   C4        1.0  0.7521644876471355  0.266061743664359  0.07183861892583104  1.0000
  C   C5        1.0  0.8058026212317629  0.752266772362681  0.07175410603873189  1.0000
  C   C6        1.0  0.3195878231731298  0.805701696154358  0.07182928301226349  1.0000
  C   C7        1.0  0.2660059381070141  0.3195478586458619  0.07174042298503011  1.0000
  C   C8        1.0  0.7522656077927364  0.8058030909030617  0.07175393741484729  1.0000
  C   C9        1.0  0.8057004444331072  0.3195895858118617  0.07182934212191565  1.0000
  C   C10       1.0  0.31954692433651377  0.26600705667232916  0.0717400179987066  1.0000
  C   C11       1.0  0.2660609085525819  0.7521657153250344  0.07183917014729956  1.0000
  C   C12       1.0  0.777449945050023  0.2774318900219371  0.55484413441809  1.0000
  C   C13       1.0  0.6836973971398237  0.18366201457954653  0.36753559722586  1.0000
  C   C14       1.0  0.18366508775071097  0.6836970393336228  0.3675372194484793  1.0000
  C   C15       1.0  0.821966501506047  0.32194165904196115  0.6438818788654642  1.0000
  C   C16       1.0  0.32194621659423434  0.8219704182928637  0.643887114242858  1.0000
  C   C17       1.0  0.6311912471545114  0.13119387698734636  0.26258808445587795  1.0000
  C   C18       1.0  0.13119462821441627  0.6311924512967266  0.2625870926355773  1.0000
  C   C19       1.0  0.8745023390904122  0.37446178576243466  0.7489782064346924  1.0000
  C   C20       1.0  0.36239987114640126  0.1408519332393823  0.9963623702867678  1.0000
  C   C21       1.0  0.8554793696674068  0.362401354470876  0.9964012979127331  1.0000
  C   C22       1.0  0.6340391229754941  0.8555795097242223  0.9963570429683983  1.0000
  C   C23       1.0  0.1408590631216242  0.6339952850272892  0.996444908532659  1.0000
  C   C24       1.0  0.36239787316367256  0.8554806999313554  0.9963998467215445  1.0000
  C   C25       1.0  0.8555796079717339  0.6340411568117685  0.9963563034755578  1.0000
  C   C26       1.0  0.6339942942640916  0.14086196770157502  0.9964468862691405  1.0000
  C   C27       1.0  0.14084983041927066  0.3623988359698914  0.9963613288894494  1.0000
  C   C28       1.0  0.5706875433793712  0.12825744003317396  0.8053610395392139  1.0000
  C   C29       1.0  0.6770929401712777  0.5706749767517111  0.805327814466878  1.0000
  C   C30       1.0  0.2347446554923066  0.677032712570373  0.8053792821436686  1.0000
  C   C31       1.0  0.1283052665584066  0.23471869982185467  0.805286795769021  1.0000
  C   C32       1.0  0.5706753395728938  0.677092286628465  0.8053265373633209  1.0000
  C   C33       1.0  0.6770322786953359  0.23474386438194014  0.80537809215226  1.0000
  C   C34       1.0  0.23471833810805984  0.12830546342882346  0.8052867795396423  1.0000
  C   C35       1.0  0.12825683849546016  0.5706871966288105  0.8053606020586698  1.0000
  C   C36       1.0  0.7282809843914819  0.22826039454707817  0.4565846365078059  1.0000
  C   C37       1.0  0.5495295679337104  0.11595539474645732  0.7188856223275408  1.0000
  C   C38       1.0  0.6029586881278204  0.549530774796146  0.7188476838820532  1.0000
  C   C39       1.0  0.1694226931852185  0.6029100792739542  0.7188956709221443  1.0000
  C   C40       1.0  0.11601490817805886  0.16943676628511642  0.7188100259639825  1.0000
  C   C41       1.0  0.5495321750113432  0.6029571306167015  0.7188470463886816  1.0000
  C   C42       1.0  0.6029093583926795  0.1694225453290629  0.7188948764395989  1.0000
  C   C43       1.0  0.16943639461236878  0.11601488679890087  0.7188101759001172  1.0000
  C   C44       1.0  0.22826380857036108  0.7282836490406551  0.45658516150084694  1.0000
  C   C45       1.0  0.11595433144666614  0.5495296673573976  0.7188854435792892  1.0000
  C   C46       1.0  0.7072327777479759  0.24385675874164284  0.8953671879332105  1.0000
  C   C47       1.0  0.6515310803798045  0.7072846307524827  0.895318792508739  1.0000
  C   C48       1.0  0.18808189601954695  0.6514986293590966  0.895366283498369  1.0000
  C   C49       1.0  0.24384106528541596  0.1880847522908553  0.8952758643540052  1.0000
  C   C50       1.0  0.7072849304756231  0.6515307676268376  0.8953190755895261  1.0000
  C   C51       1.0  0.6514984995922433  0.18808364091132998  0.8953670818185131  1.0000
  C   C52       1.0  0.18808498666782478  0.24384126590119592  0.8952759509785153  1.0000
  C   C53       1.0  0.2438552056625696  0.7072334661588755  0.8953671397511369  1.0000
  C   C54       1.0  0.6782730360119372  0.19949314624899023  0.9857466792719335  1.0000
  C   C55       1.0  0.7862656706114066  0.6783352370754371  0.9856706747523913  1.0000
  C   C56       1.0  0.3074290092935214  0.7861828565235953  0.9857385776966864  1.0000
  C   C57       1.0  0.19946483659676753  0.30739942882066634  0.9856517829533257  1.0000
  C   C58       1.0  0.6783343343659426  0.7862660591193774  0.9856709090429163  1.0000
  C   C59       1.0  0.7861819708636234  0.30743186501926795  0.9857390715294584  1.0000
  C   C60       1.0  0.30739917712656967  0.19946575841610334  0.9856513066533664  1.0000
  Cl  Cl1       1.0  0.48927062773574903  0.0740090876810555  0.7987568720802612  1.0000
  Cl  Cl2       1.0  0.7247583519305536  0.4892660061275151  0.7987661882817534  1.0000
  Cl  Cl3       1.0  0.30959260786164566  0.7246609260109266  0.7988037376156852  1.0000
  Cl  Cl4       1.0  0.07402263086988373  0.3095264255470838  0.7986998338910992  1.0000
  Cl  Cl5       1.0  0.4892679916364101  0.7247596989393373  0.7987636959764544  1.0000
  Cl  Cl6       1.0  0.7246626591612397  0.3095891875065461  0.7988008196178171  1.0000
  Cl  Cl7       1.0  0.30952414460158906  0.07402031796861051  0.7986972213845291  1.0000
  Cl  Cl8       1.0  0.07400871479352132  0.4892700026378379  0.7987560908745834  1.0000
  O   O1        1.0  0.5012959601473668  0.0012993135223524706  0.0026410184953959462  1.0000
  O   O2        1.0  0.8946237774529777  0.4565989520772503  0.7891654329608355  1.0000
  O   O3        1.0  0.33248714044592004  0.8945308513427502  0.7891437378184561  1.0000
  O   O4        1.0  0.894531848273388  0.3324862939821998  0.7891433834146608  1.0000
  O   O5        1.0  0.6108266420889522  0.1729231616867962  0.2220280064484114  1.0000
  O   O6        1.0  0.048914352948500654  0.610978733437804  0.22202506535123942  1.0000
  O   O7        1.0  0.6109743287777363  0.04891375896707474  0.22202374944004802  1.0000
  O   O8        1.0  0.17292277774880196  0.6108290903903253  0.22202686456882492  1.0000
  O   O9        1.0  0.0012977629213892575  0.5012974542122918  0.002641051234000642  1.0000
  O   O10       1.0  0.3231400602336123  0.061184614994061845  0.9540472942433311  1.0000
  O   O11       1.0  0.8928312762431858  0.32313007664188825  0.9540752616182786  1.0000
  O   O12       1.0  0.6310015077473851  0.8929304197439477  0.9540322436606415  1.0000
  O   O13       1.0  0.06119169538199295  0.6309449640110073  0.9540946140937336  1.0000
  O   O14       1.0  0.323124889555011  0.8928311965339405  0.9540712054337206  1.0000
  O   O15       1.0  0.8929277305311345  0.6310006394346458  0.9540282146167484  1.0000
  O   O16       1.0  0.6309432807690029  0.0611924718600036  0.9540951758589882  1.0000
  O   O17       1.0  0.06118519956959999  0.32314045115756335  0.9540473169761583  1.0000
  O   O18       1.0  0.6093341812795358  0.8752418809292234  0.05374240169849993  1.0000
  O   O19       1.0  0.17856516485973367  0.6092994588994712  0.053842098676632574  1.0000
  O   O20       1.0  0.4444677359657589  0.17857339473217587  0.05374797192584411  1.0000
  O   O21       1.0  0.8751156165776804  0.4444821520691916  0.05374455010793595  1.0000
  O   O22       1.0  0.6092994550198796  0.17856732210135814  0.053843625718314955  1.0000
  O   O23       1.0  0.17857173865257173  0.444468808997108  0.053747769545921524  1.0000
  O   O24       1.0  0.4444767333132091  0.8751173404648682  0.05374173150039504  1.0000
  O   O25       1.0  0.8752469137185839  0.6093402496769329  0.053747039817189035  1.0000
  O   O26       1.0  0.4566003304837306  0.8946217381255291  0.7891660695455511  1.0000
