data_image0
_chemical_formula_structural       NiH28C30N8O6
_chemical_formula_sum              "Ni1 H28 C30 N8 O6"
_cell_length_a       7.594134825004537
_cell_length_b       8.86126692304354
_cell_length_c       11.028449870572
_cell_angle_alpha    88.40736076444202
_cell_angle_beta     81.03708131366193
_cell_angle_gamma    83.23857808921575

_space_group_name_H-M_alt    "P 1"
_space_group_IT_number       1

loop_
  _space_group_symop_operation_xyz
  'x, y, z'

loop_
  _atom_site_type_symbol
  _atom_site_label
  _atom_site_symmetry_multiplicity
  _atom_site_fract_x
  _atom_site_fract_y
  _atom_site_fract_z
  _atom_site_occupancy
  Ni  Ni1       1.0  0.5000109732599612  8.27183104240174e-06  0.49999269934289015  1.0000
  H   H1        1.0  0.1723689503245325  0.2652857134415427  0.23823000194472146  1.0000
  H   H2        1.0  0.827624610525888  0.7347180083420639  0.7617708283761928  1.0000
  H   H3        1.0  0.8399876806544525  0.8271993493818215  0.5259077929287133  1.0000
  H   H4        1.0  0.16002334887965472  0.1728078513751399  0.47411401600544434  1.0000
  H   H5        1.0  0.9503525225177116  0.7488703478113763  0.4046071203293097  1.0000
  H   H6        1.0  0.04964455315212753  0.2511335058341757  0.5954069903940252  1.0000
  H   H7        1.0  0.5479893666478403  0.7242196602699948  0.3242402759069379  1.0000
  H   H8        1.0  0.4520062835561162  0.2757826784099251  0.6757431692068608  1.0000
  H   H9        1.0  0.20737610701255704  0.8200305650973404  0.6604581185602997  1.0000
  H   H10       1.0  0.7926414402324725  0.17998421569198805  0.3395411077586986  1.0000
  H   H11       1.0  0.14298529301312612  0.540702768221472  0.571673239564227  1.0000
  H   H12       1.0  0.85703329156501  0.45931319279890925  0.42833039323082295  1.0000
  H   H13       1.0  0.3446840117770195  0.36724002084936563  0.39501434750810205  1.0000
  H   H14       1.0  0.6552938686421331  0.6327605158384417  0.6049898223701576  1.0000
  H   H15       1.0  0.4747985276063388  0.4669362199275683  0.2770686269946126  1.0000
  H   H16       1.0  0.5251899166821515  0.5330415399303873  0.7229388584899115  1.0000
  H   H17       1.0  0.8887710746597864  0.2501529745458058  0.08593698807449358  1.0000
  H   H18       1.0  0.11121665771361937  0.7498418249587715  0.9140709806173533  1.0000
  H   H19       1.0  0.6338109209067541  0.4173983624665993  0.01887716015491491  1.0000
  H   H20       1.0  0.3661794089633333  0.5825894331282271  0.9811180733562496  1.0000
  H   H21       1.0  0.5888990177383563  0.6940781905755741  0.0631822010199201  1.0000
  H   H22       1.0  0.41110274478170084  0.30591727605654034  0.9368017893156164  1.0000
  H   H23       1.0  0.7964905887756616  0.8104887292604418  0.17804463945183366  1.0000
  H   H24       1.0  0.20350642890319653  0.18951358067831586  0.821937774379599  1.0000
  H   H25       1.0  0.19514822111568017  0.9628589478096077  0.10856578822156142  1.0000
  H   H26       1.0  0.804845307604687  0.03713561557172801  0.8914289585355494  1.0000
  H   H27       1.0  0.7267512073301106  0.0753706900102387  0.11891763468207028  1.0000
  H   H28       1.0  0.2732609110782605  0.9246236769643517  0.8810781386909458  1.0000
  C   C1        1.0  0.4446900983119021  0.7161384990927858  0.40279038879744183  1.0000
  C   C2        1.0  0.5553069225466913  0.2838718935504616  0.5972026773251927  1.0000
  C   C3        1.0  0.26715701505845163  0.7588345309643998  0.5779301963273086  1.0000
  C   C4        1.0  0.7328615116190421  0.24117927866042524  0.4220825739225449  1.0000
  C   C5        1.0  0.2339369925743781  0.6221727291832269  0.5358913865579567  1.0000
  C   C6        1.0  0.7660834565385458  0.37784084573083737  0.46410488784054854  1.0000
  C   C7        1.0  0.3483490413542257  0.4738233101408014  0.3419565887100191  1.0000
  C   C8        1.0  0.6516464604037184  0.5261747378638546  0.6580460409939022  1.0000
  C   C9        1.0  0.1894323456789948  0.49804729739048537  0.2752582364508599  1.0000
  C   C10       1.0  0.8105586760900608  0.5019564091803018  0.724739198351614  1.0000
  C   C11       1.0  0.9815496651957006  0.4375119075767984  0.17129790638289685  1.0000
  C   C12       1.0  0.018437294182241715  0.5624896974743551  0.8287090306798748  1.0000
  C   C13       1.0  0.8667531009329751  0.3706525615678942  0.1074611295885433  1.0000
  C   C14       1.0  0.13323012250122457  0.62934682080504  0.8925462129292472  1.0000
  C   C15       1.0  0.7252729395331131  0.46583143333000987  0.06987177949861231  1.0000
  C   C16       1.0  0.27471404930982873  0.5341620769007919  0.9301235955924273  1.0000
  C   C17       1.0  0.7007635116581811  0.6229302833544921  0.09434687952282422  1.0000
  C   C18       1.0  0.2992264806812841  0.3770608968398292  0.9056464736530077  1.0000
  C   C19       1.0  0.8168900920803994  0.6897012804372551  0.15725002856186887  1.0000
  C   C20       1.0  0.18309822789828442  0.3102933009818756  0.8427415658804664  1.0000
  C   C21       1.0  0.9594476679627277  0.5957419561290962  0.19573352704552602  1.0000
  C   C22       1.0  0.040538188792638256  0.40425849292272176  0.8042708229022537  1.0000
  C   C23       1.0  0.4067414603980311  0.04539986326413731  0.2632947842425396  1.0000
  C   C24       1.0  0.5932619813569674  0.9545991970340212  0.7367052761645569  1.0000
  C   C25       1.0  0.3278246143481169  0.9802133541699976  0.06007376393681343  1.0000
  C   C26       1.0  0.6721779206527286  0.019784477433674404  0.9399182512721255  1.0000
  C   C27       1.0  0.4559618563143816  0.0233221069224783  0.12704299344507325  1.0000
  C   C28       1.0  0.5440408087507367  0.9766848467358998  0.8729523762860795  1.0000
  C   C29       1.0  0.6280680301191239  0.04256640851043161  0.06597167989864523  1.0000
  C   C30       1.0  0.3719399131862531  0.9574302445466575  0.9340216885887715  1.0000
  N   N1        1.0  0.39882980005814533  0.81604529207425  0.4939286575498515  1.0000
  N   N2        1.0  0.6011961921473485  0.18395679749802704  0.5060619972075601  1.0000
  N   N3        1.0  0.34739651600316546  0.597487554967806  0.42575180910600363  1.0000
  N   N4        1.0  0.6526045130403236  0.4025216999858828  0.5742445512579978  1.0000
  N   N5        1.0  0.12960965429206084  0.37894833246646437  0.22321540370990794  1.0000
  N   N6        1.0  0.8703799710517831  0.6210543271477107  0.7767876311023232  1.0000
  N   N7        1.0  0.09293563908506292  0.6302750546971724  0.2602971483668313  1.0000
  N   N8        1.0  0.9070637255011536  0.36972625533590536  0.7396977781130902  1.0000
  O   O1        1.0  0.5374626404094444  0.0079425017870136  0.3245196568227513  1.0000
  O   O2        1.0  0.4625466372114104  0.9920633051629012  0.6754805833071558  1.0000
  O   O3        1.0  0.2480774534857631  0.09479384319562462  0.30735836472638317  1.0000
  O   O4        1.0  0.7519278122557794  0.9052141892574852  0.6926349221152891  1.0000
  O   O5        1.0  0.8355631489761636  0.755841959035017  0.4603835168383343  1.0000
  O   O6        1.0  0.1644737426596024  0.24410632998962004  0.5396693637742161  1.0000
