data_image0
_chemical_formula_structural       Zn6H26C52O24
_chemical_formula_sum              "Zn6 H26 C52 O24"
_cell_length_a       18.92060814919879
_cell_length_b       18.888908980171795
_cell_length_c       18.889893579255187
_cell_angle_alpha    109.25942421971158
_cell_angle_beta     109.3619404320482
_cell_angle_gamma    109.36023492967834

_space_group_name_H-M_alt    "P 1"
_space_group_IT_number       1

loop_
  _space_group_symop_operation_xyz
  'x, y, z'

loop_
  _atom_site_type_symbol
  _atom_site_label
  _atom_site_symmetry_multiplicity
  _atom_site_fract_x
  _atom_site_fract_y
  _atom_site_fract_z
  _atom_site_occupancy
  Zn  Zn1       1.0  0.5572354471743564  0.05929863499242319  0.9996779007662225  1.0000
  Zn  Zn2       1.0  0.4425208859029013  0.9413164734228374  0.0005010412542958682  1.0000
  Zn  Zn3       1.0  0.5575461326220575  0.49953559425456706  0.5586784433655011  1.0000
  Zn  Zn4       1.0  0.4428317841201732  0.5003807382791904  0.44071074996234216  1.0000
  Zn  Zn5       1.0  0.9999316589401701  0.0582653535093343  0.5580303758373546  1.0000
  Zn  Zn6       1.0  0.00019211733321355552  0.9420117615421117  0.44180114307310686  1.0000
  H   H1        1.0  0.49242624987065403  0.7369203272285672  0.8696576545743182  1.0000
  H   H2        1.0  0.3801429662529117  0.007790099514906499  0.7397070615035302  1.0000
  H   H3        1.0  0.4956342203088013  0.11957694862822169  0.26113770598970376  1.0000
  H   H4        1.0  0.5042843428710455  0.23884318530387105  0.3803836127973951  1.0000
  H   H5        1.0  0.4981160452893363  0.3751734793340233  0.23788435050819595  1.0000
  H   H6        1.0  0.5019636037476687  0.26212551814602847  0.12485617286891677  1.0000
  H   H7        1.0  0.6235276476297712  0.8627883882907594  0.1254491473221647  1.0000
  H   H8        1.0  0.7403350630939443  0.8621645452986543  0.23770013421577835  1.0000
  H   H9        1.0  0.875326586173145  0.1395706625406916  0.37805523481164016  1.0000
  H   H10       1.0  0.7647857572619968  0.1401093453904565  0.2595013487226793  1.0000
  H   H11       1.0  0.23523812843867384  0.24055785758636722  0.35989831578881126  1.0000
  H   H12       1.0  0.4911768396147806  0.9438269120982667  0.7750880385959319  1.0000
  H   H13       1.0  0.1247199318492136  0.12197519084267577  0.3604579704565153  1.0000
  H   H14       1.0  0.25976390949384154  0.26237193749864923  0.6378508064925439  1.0000
  H   H15       1.0  0.3765338503002623  0.37463666927607864  0.6372130674022783  1.0000
  H   H16       1.0  0.6199766972898003  0.7604232632938375  0.49227869088901577  1.0000
  H   H17       1.0  0.7391192202909521  0.878452824947942  0.4999364540406644  1.0000
  H   H18       1.0  0.8775876939631645  0.7382451422534686  0.5021437674544132  1.0000
  H   H19       1.0  0.7644032619547046  0.6266041389531123  0.5071883120004796  1.0000
  H   H20       1.0  0.4945943543553425  0.9576512003487279  0.6508904297550016  1.0000
  H   H21       1.0  0.5090297604153804  0.724994432157601  0.55629060229262  1.0000
  H   H22       1.0  0.5075574607678986  0.6303166990358091  0.763062490757356  1.0000
  H   H23       1.0  0.2356656810461288  0.9928562064973007  0.8734588518077685  1.0000
  H   H24       1.0  0.12250894782280153  0.9979152631755142  0.761798581949044  1.0000
  H   H25       1.0  0.2610315263938858  0.00014605983467670084  0.6216684242226689  1.0000
  H   H26       1.0  0.5057285491305663  0.8492532541854201  0.5425059686385222  1.0000
  C   C1        1.0  0.38440870052486537  0.0030132917564884986  0.8819380716170568  1.0000
  C   C2        1.0  0.49816727461234933  0.8255233745282665  0.7383638060844857  1.0000
  C   C3        1.0  0.4949538906568804  0.8145160215721744  0.8087939904175909  1.0000
  C   C4        1.0  0.496175218744547  0.7442980421957158  0.8159532887937357  1.0000
  C   C5        1.0  0.5038362890082412  0.6840309980061364  0.7556896837772127  1.0000
  C   C6        1.0  0.5051129001098005  0.6912178326814382  0.685505648876159  1.0000
  C   C7        1.0  0.2414205046395851  0.996369656974366  0.8190548510477312  1.0000
  C   C8        1.0  0.1783016379092147  0.9982246175964349  0.7567436848114042  1.0000
  C   C9        1.0  0.18545812443019127  0.9992724871546059  0.6854963658360516  1.0000
  C   C10       1.0  0.2570956920937704  0.0004794406225769996  0.6780071567672363  1.0000
  C   C11       1.0  0.3226510449387519  0.0038895157184128987  0.7429537671707391  1.0000
  C   C12       1.0  0.49440551285108103  0.8801489536826634  0.8791873524713335  1.0000
  C   C13       1.0  0.3146463883364489  0.0009323028317567003  0.8132304059888324  1.0000
  C   C14       1.0  0.4979015853907354  0.17667634952098868  0.2576790084208865  1.0000
  C   C15       1.0  0.5020539012321166  0.2423171378445517  0.3233051566241797  1.0000
  C   C16       1.0  0.5015558092267581  0.3135232272979137  0.31568937285395987  1.0000
  C   C17       1.0  0.4994433953673294  0.319868139463928  0.24316078445508535  1.0000
  C   C18       1.0  0.5006267698365575  0.2568450607238971  0.18015522406373205  1.0000
  C   C19       1.0  0.4984584450797341  0.18429801592006353  0.18649713734851045  1.0000
  C   C20       1.0  0.679939856808879  0.9229424150393725  0.18003953539936643  1.0000
  C   C21       1.0  0.7442057158615968  0.9226246068948214  0.24270216832132271  1.0000
  C   C22       1.0  0.8143968495589037  0.0009303753614985995  0.3143055442824049  1.0000
  C   C23       1.0  0.6199404940906419  0.0013500187412987  0.1170705526803957  1.0000
  C   C24       1.0  0.820872611140082  0.07941908312631088  0.3215409253980042  1.0000
  C   C25       1.0  0.7592690241209041  0.07970141668850769  0.2562055454996894  1.0000
  C   C26       1.0  0.6879941848589083  0.0014509560604238998  0.18574005240409974  1.0000
  C   C27       1.0  0.38012359551655805  0.38299714729973283  0.49864326882728693  1.0000
  C   C28       1.0  0.5056739336937142  0.6208312943950601  0.6198781434125066  1.0000
  C   C29       1.0  0.615683192526859  0.618144364618267  0.4970318484887171  1.0000
  C   C30       1.0  0.5022356797365005  0.38222374844566787  0.3841842257733389  1.0000
  C   C31       1.0  0.1176573665836287  0.11742301639385028  0.49930264765833937  1.0000
  C   C32       1.0  0.11716083202693987  0.9995465579707029  0.617578091932536  1.0000
  C   C33       1.0  0.8829526420953044  0.8824821265584715  0.5005087012170576  1.0000
  C   C34       1.0  0.4977928560289939  0.11579773900063367  0.11781344419704713  1.0000
  C   C35       1.0  0.8824461477999462  0.0007318515862592993  0.3826281987514689  1.0000
  C   C36       1.0  0.24077318596444294  0.2438589596694172  0.4203200943151159  1.0000
  C   C37       1.0  0.17918421033960638  0.17851016594751457  0.4206101123978029  1.0000
  C   C38       1.0  0.18568841148177026  0.18575454030188604  0.49911113719998196  1.0000
  C   C39       1.0  0.25588035300830825  0.25737338855029185  0.5774002000004329  1.0000
  C   C40       1.0  0.320127860473491  0.32004255720517  0.5770757155706077  1.0000
  C   C41       1.0  0.3120652801907227  0.31434147926324124  0.4985679840823706  1.0000
  C   C42       1.0  0.6774641920950728  0.7571575928021657  0.49618283131525226  1.0000
  C   C43       1.0  0.7430387963281646  0.8220960299436724  0.4995868107426772  1.0000
  C   C44       1.0  0.8146663309212911  0.8145916711672213  0.5007913148927726  1.0000
  C   C45       1.0  0.49495523389041546  0.8956448461879774  0.7275438334750671  1.0000
  C   C46       1.0  0.8217976416184456  0.7433226476071795  0.5018171017011638  1.0000
  C   C47       1.0  0.758667409997031  0.6810206128537429  0.5036757292326965  1.0000
  C   C48       1.0  0.6854480848866372  0.6868669880528413  0.4991295947881154  1.0000
  C   C49       1.0  0.49715226652280375  0.9034705253324162  0.6581992292495044  1.0000
  C   C50       1.0  0.5031112026508566  0.8419239636590844  0.5966542156921406  1.0000
  C   C51       1.0  0.5052103959904812  0.7725265258377972  0.6044348674834125  1.0000
  C   C52       1.0  0.5019684933429005  0.7616919984021989  0.6745364626532504  1.0000
  O   O1        1.0  0.46083169644257543  0.040756136804340294  0.8940979659085284  1.0000
  O   O2        1.0  0.35751722363353616  0.39636425139626397  0.43459321470693607  1.0000
  O   O3        1.0  0.5663064018262246  0.6039121116549706  0.6461303312823572  1.0000
  O   O4        1.0  0.44365100325798323  0.5814630496986409  0.5424769421260507  1.0000
  O   O5        1.0  0.6372267074962393  0.5762590717584856  0.5329167094173  1.0000
  O   O6        1.0  0.5392594265445325  0.605984338135464  0.4592846138163225  1.0000
  O   O7        1.0  0.5372799493056348  0.39434681131228183  0.46098241528080297  1.0000
  O   O8        1.0  0.46719647952439647  0.423853060083644  0.3605885807693951  1.0000
  O   O9        1.0  0.10589859853498497  0.14023961219637468  0.5643114957368879  1.0000
  O   O10       1.0  0.0760153223295603  0.0411809880359328  0.43453474316368085  1.0000
  O   O11       1.0  0.07522709746488229  0.0342155013003733  0.6408460543197945  1.0000
  O   O12       1.0  0.3628617023988739  0.9671191746310228  0.9238200652296766  1.0000
  O   O13       1.0  0.10586603356136962  0.965363289913789  0.541109728776739  1.0000
  O   O14       1.0  0.8942611313410821  0.9589624026851735  0.5346762695575861  1.0000
  O   O15       1.0  0.9248839572493137  0.859203740045572  0.4658514749473992  1.0000
  O   O16       1.0  0.9240912060370119  0.06552073622125218  0.4588611619692741  1.0000
  O   O17       1.0  0.8942153610991072  0.9357261264258625  0.3598077419533254  1.0000
  O   O18       1.0  0.5564409378248669  0.9575539232454486  0.918572982662425  1.0000
  O   O19       1.0  0.4337745465800253  0.8538901411861842  0.8961105603153711  1.0000
  O   O20       1.0  0.6425378897513169  0.06539712161833221  0.10369765856469833  1.0000
  O   O21       1.0  0.5437020934530992  0.9370602696983495  0.07678232162130172  1.0000
  O   O22       1.0  0.5328573504409632  0.13940718395421922  0.076213775167858  1.0000
  O   O23       1.0  0.46275818836427624  0.0389958161573674  0.10569405341674103  1.0000
  O   O24       1.0  0.456356112333772  0.4232719021596054  0.5629344767388247  1.0000
