data_image0
_chemical_formula_structural       Dy8H148C168N16O64
_chemical_formula_sum              "Dy8 H148 C168 N16 O64"
_cell_length_a       18.36598200644532
_cell_length_b       18.366044584568435
_cell_length_c       19.280234136455224
_cell_angle_alpha    87.22560293836668
_cell_angle_beta     87.22575594849
_cell_angle_gamma    70.7477094833737

_space_group_name_H-M_alt    "P 1"
_space_group_IT_number       1

loop_
  _space_group_symop_operation_xyz
  'x, y, z'

loop_
  _atom_site_type_symbol
  _atom_site_label
  _atom_site_symmetry_multiplicity
  _atom_site_fract_x
  _atom_site_fract_y
  _atom_site_fract_z
  _atom_site_occupancy
  Dy  Dy1       1.0  0.45104860135754177  0.10321052227648411  0.9369710477079565  1.0000
  Dy  Dy2       1.0  0.8967920103481432  0.5489525144643895  0.563026511551861  1.0000
  Dy  Dy3       1.0  0.5489506290047643  0.8967933174363267  0.06302957703820769  1.0000
  Dy  Dy4       1.0  0.1032089309586368  0.45104910316624824  0.43696895193465213  1.0000
  Dy  Dy5       1.0  0.007306746026003499  0.3524883668937592  0.03344175103630679  1.0000
  Dy  Dy6       1.0  0.6475130212173782  0.9926916875480106  0.466557407723073  1.0000
  Dy  Dy7       1.0  0.992692466533754  0.6475105662661138  0.9665575629396698  1.0000
  Dy  Dy8       1.0  0.3524867656731274  0.007305422538927074  0.5334424871159555  1.0000
  H   H1        1.0  0.4167871727015395  0.3795094883805632  0.9035860313559781  1.0000
  H   H2        1.0  0.6204890130274094  0.5832140093855571  0.596411824101942  1.0000
  H   H3        1.0  0.5832161122823081  0.6204903152379231  0.09642185387802021  1.0000
  H   H4        1.0  0.3795125095790226  0.4167836193522378  0.40358847713812196  1.0000
  H   H5        1.0  0.1983047892152925  0.5580626579006988  0.9452552957839231  1.0000
  H   H6        1.0  0.4419362525767169  0.8016969698981101  0.5547310815944471  1.0000
  H   H7        1.0  0.8016950059113127  0.44193934917971234  0.0547427987470499  1.0000
  H   H8        1.0  0.5580646878747403  0.19830193089816822  0.44526659192695917  1.0000
  H   H9        1.0  0.22711202006343  0.3205391735583802  0.0008379205217750116  1.0000
  H   H10       1.0  0.6794623732546867  0.7728879929521499  0.4991620107624044  1.0000
  H   H11       1.0  0.7728871823386071  0.6794619222349143  0.999156099537622  1.0000
  H   H12       1.0  0.3205403159635977  0.22711035314450362  0.5008413086835191  1.0000
  H   H13       1.0  0.37059882219760704  0.7909681959064229  0.7018096754084269  1.0000
  H   H14       1.0  0.20903345245667992  0.6293989368498744  0.7981917243577711  1.0000
  H   H15       1.0  0.6294084726165394  0.2090280700550907  0.2981904062387386  1.0000
  H   H16       1.0  0.7909703709256135  0.3705962918099317  0.20180754448731617  1.0000
  H   H17       1.0  0.4452527454558322  0.9736907118466293  0.7707702490818704  1.0000
  H   H18       1.0  0.0263114669784912  0.5547434995792812  0.7292326095557726  1.0000
  H   H19       1.0  0.5547464678114339  0.026311481195818904  0.2292263091496309  1.0000
  H   H20       1.0  0.9736889171241643  0.44525561267095537  0.2707718238747674  1.0000
  H   H21       1.0  0.4517310938328833  0.7825814193476789  0.9103583906138296  1.0000
  H   H22       1.0  0.2174209346736333  0.5482699897474106  0.5896429294853647  1.0000
  H   H23       1.0  0.5482687241751236  0.2174244129689669  0.0896436616456242  1.0000
  H   H24       1.0  0.782574830898504  0.4517377080639165  0.4103545636376325  1.0000
  H   H25       1.0  0.2677075718507069  0.13736081094188535  0.031226800261023903  1.0000
  H   H26       1.0  0.8626437076108502  0.7322950851412388  0.46876641119924756  1.0000
  H   H27       1.0  0.7322922407828116  0.8626471887879105  0.9687715136209715  1.0000
  H   H28       1.0  0.13735664734900874  0.26770562757526045  0.5312270518678446  1.0000
  H   H29       1.0  0.2917654254236979  0.91857585064335  0.1343368481610838  1.0000
  H   H30       1.0  0.08142854366118261  0.7082456024200425  0.3656590781610731  1.0000
  H   H31       1.0  0.708240726927194  0.08143058600892782  0.8656581158101488  1.0000
  H   H32       1.0  0.9185706960881815  0.29176476502416193  0.6343386276613286  1.0000
  H   H33       1.0  0.0761002633391712  0.10806418873131214  0.1533224193534153  1.0000
  H   H34       1.0  0.8919343573932538  0.9239071755571685  0.3466773746502696  1.0000
  H   H35       1.0  0.9239029903477771  0.8919334108293813  0.8466772784581521  1.0000
  H   H36       1.0  0.1080631459326753  0.0760994133535959  0.653322680515572  1.0000
  H   H37       1.0  0.5347872670141031  0.20157187669207843  0.8022315811484333  1.0000
  H   H38       1.0  0.7984250591996583  0.4652117331749396  0.697772047816116  1.0000
  H   H39       1.0  0.4652067498543602  0.798424425571497  0.1977712346348639  1.0000
  H   H40       1.0  0.20157359249212448  0.5347922956864012  0.3022280776566432  1.0000
  H   H41       1.0  0.5683266373607623  0.24522552817334997  0.7018872974062659  1.0000
  H   H42       1.0  0.7547736608537577  0.43167298201951354  0.7981141001488297  1.0000
  H   H43       1.0  0.4316714093262206  0.7547699723865549  0.2981117269117703  1.0000
  H   H44       1.0  0.2452255666153675  0.568329768410365  0.2018865789904254  1.0000
  H   H45       1.0  0.4930593567398631  0.2717755877766095  0.6405660786622249  1.0000
  H   H46       1.0  0.7282242047450039  0.5069410325909589  0.8594351128175931  1.0000
  H   H47       1.0  0.5069386916893421  0.7282193713283149  0.3594340098784414  1.0000
  H   H48       1.0  0.27177617947389615  0.4930635117347535  0.1405643820301279  1.0000
  H   H49       1.0  0.5733170925948556  0.1858612929639492  0.629470832250945  1.0000
  H   H50       1.0  0.8141398208574699  0.4266812679550825  0.8705321751744106  1.0000
  H   H51       1.0  0.4266786507187205  0.8141344322945587  0.37053037027433783  1.0000
  H   H52       1.0  0.1858611413244375  0.5733198273395105  0.12947057469119733  1.0000
  H   H53       1.0  0.4169394707097426  0.117638095252282  0.7116334250566396  1.0000
  H   H54       1.0  0.8823640866077582  0.5830576443876013  0.7883663599746669  1.0000
  H   H55       1.0  0.5830574264604209  0.8823583346191275  0.2883666475701999  1.0000
  H   H56       1.0  0.117638595789451  0.4169423244807434  0.2116332482903474  1.0000
  H   H57       1.0  0.48659464288673593  0.09596512615686247  0.641499125901916  1.0000
  H   H58       1.0  0.9040374673105944  0.5134030456955261  0.8585012522335163  1.0000
  H   H59       1.0  0.5134034069890632  0.9040303775895282  0.3585009354422013  1.0000
  H   H60       1.0  0.0959663708332457  0.48659654328250923  0.1414988360652671  1.0000
  H   H61       1.0  0.40899956322543574  0.18520489058752787  0.6396187764117583  1.0000
  H   H62       1.0  0.8147967383374635  0.5909994920466846  0.8603813561041276  1.0000
  H   H63       1.0  0.5909984895435443  0.8147917024418023  0.36038123053926086  1.0000
  H   H64       1.0  0.1852065240290344  0.40900137536281994  0.13961817852815267  1.0000
  H   H65       1.0  0.09622304614387642  0.4047037815486334  0.8533487093511098  1.0000
  H   H66       1.0  0.5952994018812275  0.9037746984583922  0.6466512099643253  1.0000
  H   H67       1.0  0.9037761772811025  0.5952962488603933  0.14665314279696418  1.0000
  H   H68       1.0  0.404703850506948  0.09622181341261189  0.3533490607533807  1.0000
  H   H69       1.0  0.10645024114128182  0.40749439946888794  0.7406185419122977  1.0000
  H   H70       1.0  0.5925044326104683  0.8935494642845186  0.7593815065070401  1.0000
  H   H71       1.0  0.8935518570946712  0.5925024938856679  0.2593817672846725  1.0000
  H   H72       1.0  0.40749536325521524  0.10644982755478344  0.2406193165718733  1.0000
  H   H73       1.0  0.0189065123049588  0.4194461249473919  0.698392985249022  1.0000
  H   H74       1.0  0.5805529114307717  0.9810922082404612  0.8016069675100042  1.0000
  H   H75       1.0  0.9810961615605083  0.5805500330239183  0.3016073319048687  1.0000
  H   H76       1.0  0.4194463054687603  0.01890835884381666  0.1983922648763254  1.0000
  H   H77       1.0  0.09303535010138121  0.32731903227088577  0.7003988824974243  1.0000
  H   H78       1.0  0.6726792289394153  0.9069636951762235  0.7996039108598295  1.0000
  H   H79       1.0  0.9069661729485005  0.6726769673222464  0.299603055871394  1.0000
  H   H80       1.0  0.3273205718573138  0.09303505839459092  0.2003990134677807  1.0000
  H   H81       1.0  0.9973111188432566  0.2670830819020439  0.7646551862033135  1.0000
  H   H82       1.0  0.7329178884093892  0.0026868010819570405  0.7353467577867079  1.0000
  H   H83       1.0  0.0026898266870603  0.7329147375775235  0.23534513427638612  1.0000
  H   H84       1.0  0.2670859361238556  0.9973100583157619  0.2646513924426657  1.0000
  H   H85       1.0  0.9240378633453261  0.3588165299565346  0.7637803291929968  1.0000
  H   H86       1.0  0.6411860341131116  0.07596012171446645  0.7362213090638433  1.0000
  H   H87       1.0  0.0759648206462842  0.6411834405050527  0.23621979758505768  1.0000
  H   H88       1.0  0.3588195261360667  0.92403725633411  0.2637772475665656  1.0000
  H   H89       1.0  0.9558393558900774  0.30938033823201766  0.8454723571061321  1.0000
  H   H90       1.0  0.69062122579399  0.044159549454491326  0.6545304323128818  1.0000
  H   H91       1.0  0.0441610170517208  0.6906187628655048  0.15452844673313848  1.0000
  H   H92       1.0  0.3093814419894798  0.9558355160473937  0.34546890220802595  1.0000
  H   H93       1.0  0.8697345397935905  0.2627881866995951  0.0701359594721609  1.0000
  H   H94       1.0  0.7372174072855842  0.13026301443898103  0.429862246382001  1.0000
  H   H95       1.0  0.1302623699524474  0.7372147740896864  0.9298622312569904  1.0000
  H   H96       1.0  0.2627829711469474  0.8697393513208596  0.5701373572519088  1.0000
  H   H97       1.0  0.8484374698049137  0.15384115362616774  0.8942867041904208  1.0000
  H   H98       1.0  0.8461580722223231  0.15156223712160255  0.6057162268418921  1.0000
  H   H99       1.0  0.1515605952758818  0.8461570812937824  0.10571581373614687  1.0000
  H   H100      1.0  0.1538399958994745  0.8484365440330635  0.3942867824011671  1.0000
  H   H101      1.0  0.9188865933922868  0.20202667822050563  0.8930444690204239  1.0000
  H   H102      1.0  0.7979716577389908  0.08111461586001684  0.6069579429423512  1.0000
  H   H103      1.0  0.08111377825073869  0.7979713351873274  0.10695690772498517  1.0000
  H   H104      1.0  0.202025249557316  0.9188856265016696  0.39304193930865944  1.0000
  H   H105      1.0  0.8208004167454702  0.255131210604077  0.8747368330361667  1.0000
  H   H106      1.0  0.7448670333984353  0.1792001031900059  0.6252638573838496  1.0000
  H   H107      1.0  0.179198214250583  0.7448668224213935  0.1252620360595031  1.0000
  H   H108      1.0  0.2551316083150255  0.8207995701328414  0.37473700417432804  1.0000
  H   H109      1.0  0.7733957736089677  0.2182519952082629  0.0685464703666767  1.0000
  H   H110      1.0  0.7817477178396075  0.22660350237539714  0.43145446593003806  1.0000
  H   H111      1.0  0.2266022947768889  0.7817516749736485  0.9314521460031528  1.0000
  H   H112      1.0  0.2182526655239627  0.7733983251159559  0.5685472389525755  1.0000
  H   H113      1.0  0.7851142559307646  0.14269781723995595  0.009231936762681414  1.0000
  H   H114      1.0  0.857301800520112  0.21488761368356532  0.49076795577475707  1.0000
  H   H115      1.0  0.21488439127342926  0.8573051207452096  0.9907677245901355  1.0000
  H   H116      1.0  0.1426985800980916  0.7851125814766252  0.5092343492105371  1.0000
  H   H117      1.0  0.7241651327960312  0.23861644967534817  0.988901854519561  1.0000
  H   H118      1.0  0.7613826005747626  0.2758345333026285  0.5110982112626629  1.0000
  H   H119      1.0  0.2758323588093461  0.7613863251518966  0.011097872509076009  1.0000
  H   H120      1.0  0.2386189385354385  0.7241669142984224  0.48890397365371996  1.0000
  H   H121      1.0  0.2392239405859726  0.1799542334601298  0.9251753230823496  1.0000
  H   H122      1.0  0.8200488283925368  0.7607766575403971  0.5748223640800134  1.0000
  H   H123      1.0  0.7607775844701905  0.8200461137052674  0.07482328663586202  1.0000
  H   H124      1.0  0.17995327229315447  0.23922295424176104  0.42517625359510447  1.0000
  H   H125      1.0  0.12218749652665652  0.19629541699121228  0.8987989863155832  1.0000
  H   H126      1.0  0.8036996789424791  0.8778109414642616  0.6012036928347158  1.0000
  H   H127      1.0  0.8778140252244526  0.8036994949122235  0.1012035249593737  1.0000
  H   H128      1.0  0.19629896321443138  0.12218710271392302  0.3987988058522233  1.0000
  H   H129      1.0  0.1066115745958882  0.11827175862227794  0.8564314496887774  1.0000
  H   H130      1.0  0.8817226004647482  0.8933903159754524  0.6435706599788205  1.0000
  H   H131      1.0  0.8933928352811478  0.8817238319034434  0.1435703652853206  1.0000
  H   H132      1.0  0.1182748859455316  0.10660810809302754  0.35643135867434234  1.0000
  H   H133      1.0  0.10999777903204941  0.20136149857722072  0.8066517430839539  1.0000
  H   H134      1.0  0.7986337336176136  0.8899978516867364  0.6933520831002226  1.0000
  H   H135      1.0  0.890001438754382  0.7986358102177177  0.1933507635598986  1.0000
  H   H136      1.0  0.2013643272712287  0.10999820626059184  0.3066510621255745  1.0000
  H   H137      1.0  0.3071486466027907  0.05772711484244299  0.7788166504820991  1.0000
  H   H138      1.0  0.9422745141367842  0.6928518699016453  0.7211829252383382  1.0000
  H   H139      1.0  0.692854617801565  0.9422721250156271  0.22118503979198317  1.0000
  H   H140      1.0  0.05772353674215219  0.30714580763088145  0.2788154717804758  1.0000
  H   H141      1.0  0.22477091521577114  0.11413491217617633  0.7316208371076556  1.0000
  H   H142      1.0  0.8858678988754676  0.7752279356618673  0.7683790937057395  1.0000
  H   H143      1.0  0.7752306099882061  0.8858648919410046  0.2683783183201385  1.0000
  H   H144      1.0  0.1141318896094461  0.22476917601831303  0.23162131964632238  1.0000
  H   H145      1.0  0.2210929230808816  0.03201760128471424  0.7825611468086606  1.0000
  H   H146      1.0  0.9679835265173365  0.7789066785596649  0.7174378991629098  1.0000
  H   H147      1.0  0.7789091812370685  0.9679803845392598  0.21744014502129264  1.0000
  H   H148      1.0  0.032016837449276594  0.22109024078550019  0.28256197643647596  1.0000
  C   C1        1.0  0.3748073061952297  0.25864128182720253  0.9536738793836149  1.0000
  C   C2        1.0  0.7413604766788211  0.6251976142629374  0.5463263277168409  1.0000
  C   C3        1.0  0.6251901887467781  0.7413609531383046  0.04632743038067842  1.0000
  C   C4        1.0  0.2586410501195715  0.3748021914474792  0.45367334622399375  1.0000
  C   C5        1.0  0.3271121721985608  0.34243239450820073  0.9532957496671058  1.0000
  C   C6        1.0  0.6575657858157485  0.6728879209537054  0.5467010675475593  1.0000
  C   C7        1.0  0.6728876310478923  0.6575690774902085  0.04670548313865202  1.0000
  C   C8        1.0  0.3424322565314526  0.3271059456817936  0.45329803836012417  1.0000
  C   C9        1.0  0.3575469471891921  0.39791587641475  0.9243783809765418  1.0000
  C   C10       1.0  0.6020796169313485  0.6424536701862564  0.5756159167158401  1.0000
  C   C11       1.0  0.6424545965564192  0.6020861190142527  0.07562481376937313  1.0000
  C   C12       1.0  0.3979155442272528  0.3575433271307347  0.4243826580907921  1.0000
  C   C13       1.0  0.3117080421243017  0.4764145834055428  0.9217460746693077  1.0000
  C   C14       1.0  0.5235798443995493  0.6882925627116521  0.57824758991444  1.0000
  C   C15       1.0  0.6882940691309755  0.5235872117222158  0.07825398975873551  1.0000
  C   C16       1.0  0.4764135953927989  0.3117039302936961  0.4217552451084998  1.0000
  C   C17       1.0  0.2350369852156291  0.49790608117756097  0.948504924036463  1.0000
  C   C18       1.0  0.5020920919781062  0.7649608843608888  0.551486482826938  1.0000
  C   C19       1.0  0.7649622334261251  0.5020939444517368  0.05149537257248937  1.0000
  C   C20       1.0  0.497908843721703  0.23503203653196186  0.4485151194477623  1.0000
  C   C21       1.0  0.204859950465881  0.4421137421371597  0.9769839678034983  1.0000
  C   C22       1.0  0.5578856360296455  0.795139987465788  0.5230114600504691  1.0000
  C   C23       1.0  0.7951392662858368  0.5578873679953349  0.023014718873248817  1.0000
  C   C24       1.0  0.442114735613373  0.20485802594204475  0.47698991669494006  1.0000
  C   C25       1.0  0.2508766995975122  0.364306131019667  0.9795226878078722  1.0000
  C   C26       1.0  0.6356931561499267  0.7491245512520169  0.5204754399827111  1.0000
  C   C27       1.0  0.7491236698598341  0.635694052987816  0.02047598758615271  1.0000
  C   C28       1.0  0.36430721708750013  0.25087346374905917  0.4795264552757317  1.0000
  C   C29       1.0  0.12234448622096042  0.46595148056132996  0.0028934399127038906  1.0000
  C   C30       1.0  0.5340502104084806  0.877655923057411  0.4971040514827578  1.0000
  C   C31       1.0  0.877656453787047  0.5340490493796184  0.9971025964799409  1.0000
  C   C32       1.0  0.4659524769197603  0.12234350754244626  0.5028976580309603  1.0000
  C   C33       1.0  0.33975400294909264  0.53452753722911  0.8924448297184142  1.0000
  C   C34       1.0  0.46546678332683905  0.6602435180671976  0.6075422103992167  1.0000
  C   C35       1.0  0.6602475429506214  0.4654782627239486  0.10755558208646931  1.0000
  C   C36       1.0  0.5345283837659521  0.33975511476744924  0.392456801330809  1.0000
  C   C37       1.0  0.35824988588367995  0.5892960278844726  0.8684610597212838  1.0000
  C   C38       1.0  0.4106991675156024  0.6417463313306088  0.6315269900572815  1.0000
  C   C39       1.0  0.641758574951055  0.41070312762879274  0.1315398572934043  1.0000
  C   C40       1.0  0.5892971585126289  0.35825192480021434  0.36847353873258726  1.0000
  C   C41       1.0  0.3770738202933188  0.6511926045464165  0.8445193373107286  1.0000
  C   C42       1.0  0.34880379805427003  0.6229214423336416  0.6554769403954737  1.0000
  C   C43       1.0  0.6229380940229063  0.3488032247638416  0.15548053602626058  1.0000
  C   C44       1.0  0.6511890808701111  0.3770801463731743  0.34452670612424185  1.0000
  C   C45       1.0  0.3921351715149086  0.7092567942864747  0.8245844861362102  1.0000
  C   C46       1.0  0.2907453337932893  0.607861844568973  0.6754170663502634  1.0000
  C   C47       1.0  0.6078727138381268  0.2907425535618132  0.17541696863115416  1.0000
  C   C48       1.0  0.7092533189016379  0.3921443580785039  0.3245813947971925  1.0000
  C   C49       1.0  0.4085762540185556  0.7781748160584244  0.8079760563510874  1.0000
  C   C50       1.0  0.22182585102508057  0.5914198257778055  0.6920281379249431  1.0000
  C   C51       1.0  0.5914258502993944  0.22182316976554972  0.19202523547886594  1.0000
  C   C52       1.0  0.7781693338702595  0.40858371360977946  0.3079721845752701  1.0000
  C   C53       1.0  0.39334240631243483  0.8159540848946988  0.7422521274133089  1.0000
  C   C54       1.0  0.18404671512837467  0.6066541066011838  0.7577498923015682  1.0000
  C   C55       1.0  0.6066585483408815  0.18404537328900278  0.25774966701585805  1.0000
  C   C56       1.0  0.8159513463201549  0.39334575427695045  0.2422499514701641  1.0000
  C   C57       1.0  0.4074757929300858  0.8856955372743442  0.7286896039799657  1.0000
  C   C58       1.0  0.1143046445946752  0.5925187370591515  0.7713109140669444  1.0000
  C   C59       1.0  0.592525150266745  0.11430499585309664  0.27130746943876005  1.0000
  C   C60       1.0  0.8856939865491995  0.4074787529180881  0.2286885007383148  1.0000
  C   C61       1.0  0.436036968446416  0.9184405638485702  0.780631210415855  1.0000
  C   C62       1.0  0.08156190761324922  0.563957217526273  0.7193692050822874  1.0000
  C   C63       1.0  0.5639628190037769  0.0815603491691732  0.21936538296910157  1.0000
  C   C64       1.0  0.9184384563533641  0.4360397018188921  0.2806306705171053  1.0000
  C   C65       1.0  0.4521107547288352  0.8810071040829399  0.8458515855708484  1.0000
  C   C66       1.0  0.1189941974792532  0.5478837919778954  0.6541484239036774  1.0000
  C   C67       1.0  0.5478890496685834  0.11899599865338235  0.1541485286191886  1.0000
  C   C68       1.0  0.8810055815870257  0.4521127670945971  0.3458494240797378  1.0000
  C   C69       1.0  0.4389592328637448  0.811052813208072  0.8593633627801296  1.0000
  C   C70       1.0  0.18894798311087874  0.5610367079294747  0.6406392725934609  1.0000
  C   C71       1.0  0.5610365367841084  0.18895162950040867  0.14063844162646427  1.0000
  C   C72       1.0  0.811047774225166  0.4389660928883788  0.3593600208375918  1.0000
  C   C73       1.0  0.3908646888147373  0.9260935868008032  0.6590304012457509  1.0000
  C   C74       1.0  0.07390727433454458  0.6091314181174995  0.8409699273507271  1.0000
  C   C75       1.0  0.6091356732618394  0.07390441704756513  0.3409678644214225  1.0000
  C   C76       1.0  0.9260948221591859  0.39086601669203  0.1590293176236202  1.0000
  C   C77       1.0  0.4817768240074187  0.9171632283340115  0.9017648592936568  1.0000
  C   C78       1.0  0.08283890251122018  0.5182193464697491  0.5982355379098792  1.0000
  C   C79       1.0  0.51822182753655  0.08284134357555226  0.0982347204695131  1.0000
  C   C80       1.0  0.917160307007542  0.4817790404554077  0.401763284749606  1.0000
  C   C81       1.0  0.11475915815022118  0.21000760990335013  0.0693487128221122  1.0000
  C   C82       1.0  0.7899954773327166  0.8852377464412627  0.4306502567482227  1.0000
  C   C83       1.0  0.8852371777085253  0.7899955448141966  0.9306505341727487  1.0000
  C   C84       1.0  0.2100043079633735  0.11475936205243194  0.5693491195777582  1.0000
  C   C85       1.0  0.1657115060702594  0.12989570095089684  0.0884975634866763  1.0000
  C   C86       1.0  0.8701025999385124  0.8342895574397957  0.41149902118785764  1.0000
  C   C87       1.0  0.8342871360866512  0.8701023432272805  0.9115049352002629  1.0000
  C   C88       1.0  0.1298954519435682  0.1657102938788668  0.5884977115056529  1.0000
  C   C89       1.0  0.24203811067093983  0.10056410199397457  0.0626520298586897  1.0000
  C   C90       1.0  0.899435017588985  0.7579666249649865  0.4373439553597649  1.0000
  C   C91       1.0  0.7579634161274456  0.8994357037164491  0.9373476440821449  1.0000
  C   C92       1.0  0.10056419104287072  0.2420350202495101  0.5626515930422044  1.0000
  C   C93       1.0  0.28712328517975283  0.024537367037233176  0.07982893759300679  1.0000
  C   C94       1.0  0.9754620479123659  0.7128792577434453  0.420169899242147  1.0000
  C   C95       1.0  0.7128759363551822  0.9754637478749971  0.9201713046228547  1.0000
  C   C96       1.0  0.024537163908313196  0.28712239065753653  0.5798266861858963  1.0000
  C   C97       1.0  0.2556326065162082  0.9774613923152348  0.12162171581172031  1.0000
  C   C98       1.0  0.022538557611739  0.7443666582505841  0.378379038568788  1.0000
  C   C99       1.0  0.744364302522321  0.022538308591464284  0.8783792306619135  1.0000
  C   C100      1.0  0.9774600897402693  0.2556357366863581  0.6216211684936113  1.0000
  C   C101      1.0  0.17916542025738377  0.006656606685574211  0.1484490360273369  1.0000
  C   C102      1.0  0.9933431540847621  0.8208387371774323  0.35155684278366545  1.0000
  C   C103      1.0  0.8208366892872405  0.9933397547734728  0.8515554484704921  1.0000
  C   C104      1.0  0.006654351131203402  0.17916676723012867  0.6484448223143885  1.0000
  C   C105      1.0  0.1348545954400251  0.08385422993586641  0.1321716201363969  1.0000
  C   C106      1.0  0.9161431204555015  0.8651491692131686  0.3678274912415134  1.0000
  C   C107      1.0  0.8651463445995589  0.916140324881383  0.8678299005486565  1.0000
  C   C108      1.0  0.0838543708542403  0.1348546917105224  0.6321711443679517  1.0000
  C   C109      1.0  0.1462621886824067  0.9609110341116252  0.19198915953352716  1.0000
  C   C110      1.0  0.0390954371103192  0.8537472029644847  0.308020494989904  1.0000
  C   C111      1.0  0.8537410938201332  0.039092026202951054  0.8080149329299146  1.0000
  C   C112      1.0  0.9609061271832077  0.14626133134861888  0.6919834104235107  1.0000
  C   C113      1.0  0.1137210693690776  0.9245077386330114  0.22975049333403763  1.0000
  C   C114      1.0  0.07550247346114249  0.8862883027238411  0.2702646864755494  1.0000
  C   C115      1.0  0.8862845385329551  0.07549620538482316  0.7702575886855314  1.0000
  C   C116      1.0  0.9245037112213695  0.11371653664866702  0.7297422848852122  1.0000
  C   C117      1.0  0.5009617802512949  0.16949706779487173  0.7792547380802899  1.0000
  C   C118      1.0  0.8305062583576301  0.499035619215448  0.720744500620377  1.0000
  C   C119      1.0  0.4990339728927822  0.83050355605036  0.22074518264998488  1.0000
  C   C120      1.0  0.16949642403957912  0.5009643496528896  0.27925510764463707  1.0000
  C   C121      1.0  0.5344421369723875  0.2230174582034509  0.6683343574045466  1.0000
  C   C122      1.0  0.7769827265733796  0.46555770796371143  0.8316664448674372  1.0000
  C   C123      1.0  0.46555591116118933  0.7769785869979204  0.3316646397169478  1.0000
  C   C124      1.0  0.22301707608181692  0.5344459362275914  0.16833260509997666  1.0000
  C   C125      1.0  0.4490919642979847  0.14228473169598033  0.6735755046824963  1.0000
  C   C126      1.0  0.8577175692046595  0.5509067762810888  0.8264257596320234  1.0000
  C   C127      1.0  0.5509055145837038  0.8577120552616078  0.3264255585342397  1.0000
  C   C128      1.0  0.1422845406040238  0.44909447420520376  0.17357433199256886  1.0000
  C   C129      1.0  0.05330322628342541  0.3742818426480596  0.8567201340115247  1.0000
  C   C130      1.0  0.6257188810717835  0.9466981589539359  0.6432797095882066  1.0000
  C   C131      1.0  0.9467000197271176  0.6257146628499657  0.14327806265401927  1.0000
  C   C132      1.0  0.37428207039272376  0.053301296043279905  0.3567210478148795  1.0000
  C   C133      1.0  0.06418717365519912  0.3794162844145036  0.7299546501225861  1.0000
  C   C134      1.0  0.6205827823157007  0.935812063933611  0.7700469467451184  1.0000
  C   C135      1.0  0.93581376898193  0.6205804457821318  0.27004572475020444  1.0000
  C   C136      1.0  0.3794181692966133  0.06418684801538893  0.2299543563675641  1.0000
  C   C137      1.0  0.9736590137974872  0.3212407458638183  0.7922977038684138  1.0000
  C   C138      1.0  0.6787608309223715  0.0263402287215868  0.7077040388373845  1.0000
  C   C139      1.0  0.026342513148719597  0.678758516798375  0.20770251578201027  1.0000
  C   C140      1.0  0.3212429953530958  0.9736560892211589  0.2922951756146119  1.0000
  C   C141      1.0  0.8860998038887402  0.2535146343069314  0.014716968774045807  1.0000
  C   C142      1.0  0.7464859137014344  0.1139001753362195  0.48528399563203806  1.0000
  C   C143      1.0  0.113899411712012  0.7464848450876502  0.9852828365184222  1.0000
  C   C144      1.0  0.2535144650267327  0.8861011043271747  0.5147166994210507  1.0000
  C   C145      1.0  0.8587619397202104  0.20727630681194148  0.906292852915449  1.0000
  C   C146      1.0  0.7927229682633269  0.1412384007949541  0.593708948474152  1.0000
  C   C147      1.0  0.1412355448000255  0.7927232017597419  0.09370755580550849  1.0000
  C   C148      1.0  0.2072751011572436  0.8587614680494013  0.4062934878627757  1.0000
  C   C149      1.0  0.7780862318831724  0.20416994425755067  0.0135515896991905  1.0000
  C   C150      1.0  0.7958314001646087  0.22191455609831942  0.48644869676395064  1.0000
  C   C151      1.0  0.2219129967369042  0.7958344369102406  0.9864479708243435  1.0000
  C   C152      1.0  0.2041695618694774  0.7780870822445042  0.5135535073920677  1.0000
  C   C153      1.0  0.26689784892490553  0.1411315198069262  0.8825610271528745  1.0000
  C   C154      1.0  0.8588721396546932  0.7331005829092023  0.6174378653934481  1.0000
  C   C155      1.0  0.7331036852542568  0.8588704660626122  0.11743905651480452  1.0000
  C   C156      1.0  0.1411288009445855  0.2668977748388599  0.3825603538375474  1.0000
  C   C157      1.0  0.13443042975217173  0.16308175580783058  0.8513481038712312  1.0000
  C   C158      1.0  0.8369153723262029  0.8655683377998926  0.6486534817819845  1.0000
  C   C159      1.0  0.8655693651103674  0.8369153622453283  0.14865438353298543  1.0000
  C   C160      1.0  0.163082687971368  0.13442989234032152  0.3513474806054688  1.0000
  C   C161      1.0  0.24410873054956284  0.08033783213797821  0.7798186303481741  1.0000
  C   C162      1.0  0.9196651884015381  0.7558904170673345  0.7201818657737178  1.0000
  C   C163      1.0  0.7558928024786412  0.9196625229936403  0.22018257193522564  1.0000
  C   C164      1.0  0.0803346018255979  0.2441061531578725  0.279819611800967  1.0000
  C   C165      1.0  0.37067537772287557  0.9941926931774817  0.055675941545622686  1.0000
  C   C166      1.0  0.005810706144160299  0.6293290538389797  0.44431829260484784  1.0000
  C   C167      1.0  0.6293267401740934  0.005813997350507833  0.9443218040613388  1.0000
  C   C168      1.0  0.9941856163680566  0.37067626032549594  0.5556746234473664  1.0000
  N   N1        1.0  0.49443410701507423  0.17918960423158128  0.7100924976231511  1.0000
  N   N2        1.0  0.8208117148280962  0.5055654570291638  0.7899077486426549  1.0000
  N   N3        1.0  0.5055633717187931  0.8208077257742302  0.28990801988400244  1.0000
  N   N4        1.0  0.17919097176106646  0.4944366888118026  0.21009123232312987  1.0000
  N   N5        1.0  0.0316869305236267  0.3589108923201465  0.7953059879428962  1.0000
  N   N6        1.0  0.6410907707638812  0.9683125242131397  0.704696489933319  1.0000
  N   N7        1.0  0.9683134409715777  0.6410876641359098  0.20469484309293048  1.0000
  N   N8        1.0  0.3589124862597047  0.031684535485823076  0.295304790613919  1.0000
  N   N9        1.0  0.8436980901692976  0.22131755992455027  0.980113930341787  1.0000
  N   N10       1.0  0.7786852152195608  0.15630035135261272  0.5198877519597218  1.0000
  N   N11       1.0  0.15629709776703749  0.7786865256977508  0.019886883474917696  1.0000
  N   N12       1.0  0.221314589769122  0.8437005791908238  0.48011454506865897  1.0000
  N   N13       1.0  0.2171571464303028  0.12790654360442494  0.8401185244961625  1.0000
  N   N14       1.0  0.8720939804911296  0.7828431729748504  0.6598814181570773  1.0000
  N   N15       1.0  0.7828438112640158  0.8720934608139927  0.1598837612495032  1.0000
  N   N16       1.0  0.1279052304742194  0.21715575859177255  0.34011737730586583  1.0000
  O   O1        1.0  0.4406078922237313  0.23767007106834373  0.9215860866073767  1.0000
  O   O2        1.0  0.7623341626009363  0.5593954334636705  0.5784121192943843  1.0000
  O   O3        1.0  0.5593901799422055  0.7623314301071673  0.0784157496268705  1.0000
  O   O4        1.0  0.2376696584478637  0.4406025088440018  0.4215839024897363  1.0000
  O   O5        1.0  0.347135074494318  0.2097243752211214  0.984150495720577  1.0000
  O   O6        1.0  0.7902752205917167  0.6528715695802206  0.5158476872834895  1.0000
  O   O7        1.0  0.6528618400349444  0.7902785903478959  0.01584925054768859  1.0000
  O   O8        1.0  0.2097245809125141  0.34713044387316944  0.4841524812996453  1.0000
  O   O9        1.0  0.09580573812746711  0.4132842282851288  0.025155992302124695  1.0000
  O   O10       1.0  0.5867198532671409  0.9041915619769655  0.4748394955274334  1.0000
  O   O11       1.0  0.904194621467802  0.5867170322593226  0.9748384805944923  1.0000
  O   O12       1.0  0.41328455327325747  0.09580456841049315  0.525160736711001  1.0000
  O   O13       1.0  0.08399794393682919  0.5374654699152047  0.001940735911979604  1.0000
  O   O14       1.0  0.4625371672679961  0.9160026043059445  0.4980565528892739  1.0000
  O   O15       1.0  0.9160001111340677  0.46253438458994384  0.9980570338076048  1.0000
  O   O16       1.0  0.5374643551906145  0.08399556748007345  0.5019432026412005  1.0000
  O   O17       1.0  0.35426892566229634  0.9020398217779119  0.6155939362699456  1.0000
  O   O18       1.0  0.0979583368835719  0.6457307993047436  0.8844052924230751  1.0000
  O   O19       1.0  0.6457308658636124  0.09795783613698458  0.3844069683986077  1.0000
  O   O20       1.0  0.902042604602606  0.35426430015397886  0.1155962010654363  1.0000
  O   O21       1.0  0.4132989845060706  0.9840596855094506  0.6437493290413343  1.0000
  O   O22       1.0  0.0159432035486944  0.5866947811386467  0.8562525231343017  1.0000
  O   O23       1.0  0.5866984966775277  0.015940362923963454  0.3562494969439598  1.0000
  O   O24       1.0  0.9840577538499886  0.4133063093762175  0.1437486711921849  1.0000
  O   O25       1.0  0.5012890782309327  0.878469830960583  0.9580219780561023  1.0000
  O   O26       1.0  0.1215315961303318  0.49871066445729195  0.5419778363227437  1.0000
  O   O27       1.0  0.4987078480188815  0.12153694869194709  0.041978096349375  1.0000
  O   O28       1.0  0.8784681949521341  0.5012886226022746  0.4580214312170483  1.0000
  O   O29       1.0  0.4847941783103876  0.9844475104547424  0.8878451060210893  1.0000
  O   O30       1.0  0.0155536463120285  0.5152033611593227  0.6121531099259769  1.0000
  O   O31       1.0  0.5152050471208725  0.015556867526555563  0.11215341747637099  1.0000
  O   O32       1.0  0.9844455520458697  0.48479501461311975  0.38784208314223884  1.0000
  O   O33       1.0  0.0592906347909192  0.2440540620560157  0.11144763574201022  1.0000
  O   O34       1.0  0.7559436702071238  0.9407055795469149  0.38855306986372534  1.0000
  O   O35       1.0  0.9407051183531648  0.7559465617892088  0.8885522849882718  1.0000
  O   O36       1.0  0.24404918932030026  0.05929110101371296  0.6114487473727692  1.0000
  O   O37       1.0  0.12581250438046251  0.2416544549425126  0.011217527764500796  1.0000
  O   O38       1.0  0.7583488150871105  0.8741837054327418  0.48877936477098427  1.0000
  O   O39       1.0  0.8741832390493514  0.7583467023914707  0.9887787361779558  1.0000
  O   O40       1.0  0.24165213029538532  0.12581465709504872  0.511220409999126  1.0000
  O   O41       1.0  0.39420486304300795  0.03511933663089912  0.011126351102476001  1.0000
  O   O42       1.0  0.96488541591264  0.6057972143743697  0.4888640748336854  1.0000
  O   O43       1.0  0.6057943703287236  0.9648910244403197  0.9888692806677639  1.0000
  O   O44       1.0  0.03511203772257689  0.3942044361185565  0.5111242993011942  1.0000
  O   O45       1.0  0.41235721673888287  0.9305395784568592  0.08271522257524573  1.0000
  O   O46       1.0  0.06946470517146962  0.587643785586792  0.41727876208001646  1.0000
  O   O47       1.0  0.5876431742695232  0.06946931822085405  0.9172824991609758  1.0000
  O   O48       1.0  0.930532764407829  0.41235788083857744  0.5827147971852468  1.0000
  O   O49       1.0  0.47143436805199457  0.12775596151333707  0.8153118028164528  1.0000
  O   O50       1.0  0.8722448301087198  0.5285615855660879  0.6846892066440589  1.0000
  O   O51       1.0  0.5285567673322262  0.8722445575281694  0.18468939044662142  1.0000
  O   O52       1.0  0.12775670132507597  0.4714387679722876  0.31531147712630053  1.0000
  O   O53       1.0  0.0274216812296189  0.3560858963907664  0.9134670923194008  1.0000
  O   O54       1.0  0.6439130048636629  0.9725793436847  0.5865354429528509  1.0000
  O   O55       1.0  0.9725775335158106  0.6439108661694635  0.0865349230079602  1.0000
  O   O56       1.0  0.3560856394473433  0.027422505017526147  0.413464272793064  1.0000
  O   O57       1.0  0.9403750427049786  0.2730881798098609  0.9868371725353171  1.0000
  O   O58       1.0  0.7269138694858129  0.059624208526997825  0.5131624916228574  1.0000
  O   O59       1.0  0.05962359567185159  0.726912033374724  0.013162106287197207  1.0000
  O   O60       1.0  0.2730870740066464  0.9403752385039966  0.48683567321504023  1.0000
  O   O61       1.0  0.3385168657289626  0.11252137891639084  0.8746572496223735  1.0000
  O   O62       1.0  0.8874839936451977  0.6614835827086697  0.6253395180181582  1.0000
  O   O63       1.0  0.661485238145538  0.8874782360522532  0.12534240507882538  1.0000
  O   O64       1.0  0.11252156441830148  0.3385159659395498  0.37465633726086617  1.0000
