data_image0
_chemical_formula_structural       NiH26C28S2N2O10
_chemical_formula_sum              "Ni1 H26 C28 S2 N2 O10"
_cell_length_a       4.765448186395354
_cell_length_b       10.934530409561933
_cell_length_c       12.992407261120814
_cell_angle_alpha    86.06741217642022
_cell_angle_beta     89.21151279621476
_cell_angle_gamma    98.67940997496451

_space_group_name_H-M_alt    "P 1"
_space_group_IT_number       1

loop_
  _space_group_symop_operation_xyz
  'x, y, z'

loop_
  _atom_site_type_symbol
  _atom_site_label
  _atom_site_symmetry_multiplicity
  _atom_site_fract_x
  _atom_site_fract_y
  _atom_site_fract_z
  _atom_site_occupancy
  Ni  Ni1       1.0  0.4999965303485682  0.49999841983804333  0.5000014533448933  1.0000
  H   H1        1.0  0.3664916471066989  0.6970796453583149  0.1000348933004105  1.0000
  H   H2        1.0  0.6335112192334762  0.3029193118640023  0.8999634796350762  1.0000
  H   H3        1.0  0.20347844967359668  0.5069599539220208  0.6602921827974056  1.0000
  H   H4        1.0  0.7965125879912236  0.4930417204817203  0.3397083183251368  1.0000
  H   H5        1.0  0.5476607117600808  0.49307370249484705  0.6856785215683773  1.0000
  H   H6        1.0  0.4523215598417352  0.5069207924241397  0.3143196446995661  1.0000
  H   H7        1.0  0.7271549536024439  0.8537803832880898  0.2761518872877247  1.0000
  H   H8        1.0  0.2728640846194423  0.14622295971457083  0.7238481804517249  1.0000
  H   H9        1.0  0.5584877019894279  0.057144242662815294  0.2901375723969437  1.0000
  H   H10       1.0  0.44152337603039626  0.942856851062089  0.7098685986682653  1.0000
  H   H11       1.0  0.19887349185575692  0.22576949908274463  0.0642927133261466  1.0000
  H   H12       1.0  0.8011276510392163  0.7742296465354315  0.935703318824672  1.0000
  H   H13       1.0  0.3561685485821542  0.025030371001562902  0.04957742535670211  1.0000
  H   H14       1.0  0.6438160644620226  0.9749634632504821  0.9504169195176715  1.0000
  H   H15       1.0  0.9905708139140971  0.38467644008901664  0.04635279557715679  1.0000
  H   H16       1.0  0.00942794519303906  0.6153162830929731  0.9536425180530372  1.0000
  H   H17       1.0  0.7855671786887087  0.48212086035027835  0.1063017337784871  1.0000
  H   H18       1.0  0.21443462978070474  0.5178738089291174  0.8936920495152522  1.0000
  H   H19       1.0  0.1896352076339269  0.6733838381882364  0.38843765284356385  1.0000
  H   H20       1.0  0.8103662055615788  0.326624015047294  0.6115659890193186  1.0000
  H   H21       1.0  0.1718981351399053  0.8942887403255784  0.3854300014729972  1.0000
  H   H22       1.0  0.8281005866624084  0.10571809239833391  0.6145751631988219  1.0000
  H   H23       1.0  0.8364496013300807  0.921160009019033  0.6125551992516165  1.0000
  H   H24       1.0  0.16354623266476415  0.07884168579688121  0.3874569439767512  1.0000
  H   H25       1.0  0.8029752991328253  0.6950917879077424  0.6157802518355524  1.0000
  H   H26       1.0  0.1970134526851837  0.30490578750247016  0.3842256778895816  1.0000
  C   C1        1.0  0.05484707944251707  0.9257004953525295  0.1635695889453359  1.0000
  C   C2        1.0  0.9451479251688469  0.074298006545753  0.8364232844450755  1.0000
  C   C3        1.0  0.8300762337073168  0.9369731172285186  0.2316788922854442  1.0000
  C   C4        1.0  0.16993140544034452  0.06302759769533849  0.768320291098263  1.0000
  C   C5        1.0  0.7378839225640875  0.049960394594997085  0.239549566420834  1.0000
  C   C6        1.0  0.2621266835091164  0.950038961287014  0.7604550772729582  1.0000
  C   C7        1.0  0.8684288804215967  0.15657550081970584  0.1798564745036586  1.0000
  C   C8        1.0  0.13156152095535126  0.8434172959736655  0.8201387305464821  1.0000
  C   C9        1.0  0.09256152107284521  0.1457196301314241  0.1114146359805943  1.0000
  C   C10       1.0  0.9074307921453197  0.8542778512552331  0.8885797602187611  1.0000
  C   C11       1.0  0.182405152322147  0.031101438466080798  0.10318013099726642  1.0000
  C   C12       1.0  0.8175942510911157  0.968899406733499  0.8968181725931785  1.0000
  C   C13       1.0  0.13998567547830731  0.8010980073376857  0.1629806873725244  1.0000
  C   C14       1.0  0.8600257845653584  0.19890174519469647  0.8370185578287206  1.0000
  C   C15       1.0  0.9315255423547556  0.4139172434277756  0.12156396201721263  1.0000
  C   C16       1.0  0.06846557496036355  0.5860774045371785  0.8784312279778987  1.0000
  C   C17       1.0  0.189896392845924  0.47929753069546893  0.1742092040281946  1.0000
  C   C18       1.0  0.810096336723312  0.5207064481945665  0.8257851123335556  1.0000
  C   C19       1.0  0.3232634737747305  0.7299957320995177  0.44013362917898047  1.0000
  C   C20       1.0  0.676750004069433  0.2700102728760285  0.5598686481825581  1.0000
  C   C21       1.0  0.3189481796841208  0.8569769503573712  0.4378857186512377  1.0000
  C   C22       1.0  0.6810535330984846  0.14302625654636356  0.5621179879942204  1.0000
  C   C23       1.0  0.5011901332084107  0.932009674276223  0.49992234671311314  1.0000
  C   C24       1.0  0.49881510890134717  0.0679964609750456  0.500079050855156  1.0000
  C   C25       1.0  0.6843527553050351  0.8717179339499881  0.5622683581868557  1.0000
  C   C26       1.0  0.31564698202255664  0.1282861036137035  0.43773685621251707  1.0000
  C   C27       1.0  0.6719757331354331  0.743764485281595  0.5638686177834771  1.0000
  C   C28       1.0  0.3280113851601386  0.2562363575599065  0.4361434243923554  1.0000
  S   S1        1.0  0.7146327235705955  0.28940478096049554  0.19574738787732573  1.0000
  S   S2        1.0  0.2853660195000316  0.7105894534070388  0.8042525379771632  1.0000
  N   N1        1.0  0.4941082509461339  0.6739600241457211  0.5036464092207709  1.0000
  N   N2        1.0  0.5058954212549907  0.3260438632836014  0.4963604018950676  1.0000
  O   O1        1.0  0.19598528495463086  0.46370831926012085  0.273375034738109  1.0000
  O   O2        1.0  0.8040085237536874  0.5362873492164582  0.7266186324480586  1.0000
  O   O3        1.0  0.3764685500132572  0.5463874618896511  0.1177499791520802  1.0000
  O   O4        1.0  0.6235337887847622  0.4536145171502355  0.8822452592029819  1.0000
  O   O5        1.0  0.04135077437923937  0.7165058688828907  0.22719960149824203  1.0000
  O   O6        1.0  0.9586887365852167  0.28350187975875935  0.772801444121974  1.0000
  O   O7        1.0  0.3296232864713319  0.7859571144831605  0.08910170865811301  1.0000
  O   O8        1.0  0.6703779228238747  0.2140468474598265  0.9108919450704676  1.0000
  O   O9        1.0  0.3630457669743451  0.46660332897204904  0.6378394425165227  1.0000
  O   O10       1.0  0.6369396599490289  0.5333946798942295  0.3621610344260445  1.0000
