data_image0
_chemical_formula_structural       Ag2H6C10N4O4
_chemical_formula_sum              "Ag2 H6 C10 N4 O4"
_cell_length_a       5.51496553508696
_cell_length_b       6.829288894359414
_cell_length_c       7.813071206665583
_cell_angle_alpha    105.02521262304366
_cell_angle_beta     87.11665081190904
_cell_angle_gamma    81.03456228948706

_space_group_name_H-M_alt    "P 1"
_space_group_IT_number       1

loop_
  _space_group_symop_operation_xyz
  'x, y, z'

loop_
  _atom_site_type_symbol
  _atom_site_label
  _atom_site_symmetry_multiplicity
  _atom_site_fract_x
  _atom_site_fract_y
  _atom_site_fract_z
  _atom_site_occupancy
  Ag  Ag1       1.0  0.9875784009430221  0.7847945241910497  0.606400548211795  1.0000
  Ag  Ag2       1.0  0.012417423106811005  0.21516759484632078  0.39356071511433294  1.0000
  H   H1        1.0  0.7198663253932625  0.1324503683802405  0.9732705315176275  1.0000
  H   H2        1.0  0.2801654677553884  0.8675365049669851  0.026706557697295404  1.0000
  H   H3        1.0  0.3165713836148285  0.3650652041742433  0.0775655172702372  1.0000
  H   H4        1.0  0.6834838050996553  0.6349569122909176  0.9224356441099458  1.0000
  H   H5        1.0  0.011554318255726118  0.3888099149614277  0.838857836360944  1.0000
  H   H6        1.0  0.988420764638754  0.6112347945169816  0.16120078341013058  1.0000
  C   C1        1.0  0.47048593615696194  0.05938096185774808  0.595352430423226  1.0000
  C   C2        1.0  0.5295070545519138  0.9406373149296743  0.4046662871471938  1.0000
  C   C3        1.0  0.5829679894846437  0.14766129648804588  0.879345314163757  1.0000
  C   C4        1.0  0.4169889575495775  0.852310238157365  0.12064248239088468  1.0000
  C   C5        1.0  0.3569351179916468  0.2783021526468588  0.9374667500524793  1.0000
  C   C6        1.0  0.6430801164833398  0.7217300953111447  0.06253906810155738  1.0000
  C   C7        1.0  0.19280834070762154  0.2908400271106686  0.8098779430759393  1.0000
  C   C8        1.0  0.8072099944564922  0.7091820781625842  0.190112456281895  1.0000
  C   C9        1.0  0.5202897058823908  0.5470095754927939  0.6000822887439836  1.0000
  C   C10       1.0  0.4797215251861716  0.4529673053749761  0.3999222316119102  1.0000
  N   N1        1.0  0.6407526689121426  0.036637960654026365  0.7093713383938932  1.0000
  N   N2        1.0  0.3591894536179368  0.9633566975642156  0.29062866417164906  1.0000
  N   N3        1.0  0.25004513806069184  0.1817625680216466  0.6394731001380762  1.0000
  N   N4        1.0  0.7499237301778128  0.8182207918376392  0.3605060835421908  1.0000
  O   O1        1.0  0.3459409886392707  0.6772615953159046  0.7000512127019363  1.0000
  O   O2        1.0  0.6540614308252799  0.3227141724848153  0.2999550161957103  1.0000
  O   O3        1.0  0.7261936868867379  0.48860436451818157  0.6518957589732608  1.0000
  O   O4        1.0  0.27383308290099956  0.5113973832166322  0.3481154524975736  1.0000
