data_image0
_chemical_formula_structural       NiH32C20N6O8
_chemical_formula_sum              "Ni1 H32 C20 N6 O8"
_cell_length_a       7.977369582143116
_cell_length_b       8.156197034719405
_cell_length_c       10.48958208701549
_cell_angle_alpha    73.24721108681076
_cell_angle_beta     64.34390932909983
_cell_angle_gamma    77.1971769669561

_space_group_name_H-M_alt    "P 1"
_space_group_IT_number       1

loop_
  _space_group_symop_operation_xyz
  'x, y, z'

loop_
  _atom_site_type_symbol
  _atom_site_label
  _atom_site_symmetry_multiplicity
  _atom_site_fract_x
  _atom_site_fract_y
  _atom_site_fract_z
  _atom_site_occupancy
  Ni  Ni1       1.0  0.010232102119040598  0.4993921837680872  0.5233258774209446  1.0000
  H   H1        1.0  0.8222966722497844  0.6237796149808688  0.06916313217494974  1.0000
  H   H2        1.0  0.16181173273905364  0.3823878321903749  0.9097160639954964  1.0000
  H   H3        1.0  0.615845778815924  0.8666943111651974  0.5176905933528034  1.0000
  H   H4        1.0  0.400451546251702  0.12690794268752367  0.49422848453717455  1.0000
  H   H5        1.0  0.679886863322224  0.7123377992977068  0.40871124892888855  1.0000
  H   H6        1.0  0.3349136297049853  0.2801311845029915  0.6035878815343666  1.0000
  H   H7        1.0  0.6066457398500945  0.4190788123856493  0.5242031465548609  1.0000
  H   H8        1.0  0.410122849353577  0.5735201366331423  0.48869389414193176  1.0000
  H   H9        1.0  0.518255882611008  0.3563322657733465  0.7173946937933168  1.0000
  H   H10       1.0  0.50072602664315  0.6369134031374699  0.2957727653319536  1.0000
  H   H11       1.0  0.6287718201277741  0.6255446341046635  0.8037401385822776  1.0000
  H   H12       1.0  0.36082742027384995  0.3716588770727681  0.2210369714802952  1.0000
  H   H13       1.0  0.4096820341655273  0.5528701035598403  0.8537901250451796  1.0000
  H   H14       1.0  0.582942117185695  0.44695859360895435  0.1553113178535739  1.0000
  H   H15       1.0  0.5106269256764548  0.9246051352525554  0.7277930331360523  1.0000
  H   H16       1.0  0.49169893811549753  0.07250058241479003  0.2824326426389732  1.0000
  H   H17       1.0  0.3020792881784615  0.8609323099978711  0.7437987310942233  1.0000
  H   H18       1.0  0.7067240612813988  0.13861640500246616  0.25132470658824957  1.0000
  H   H19       1.0  0.1928591328979863  0.7796745516307482  0.008441782954356856  1.0000
  H   H20       1.0  0.7881663080032126  0.22547863294568068  0.9910904759001298  1.0000
  H   H21       1.0  0.4182017509918409  0.7846120899751838  0.00013441246488802054  1.0000
  H   H22       1.0  0.5549807513265106  0.22369559814492854  0.013634419847690444  1.0000
  H   H23       1.0  0.9086344232639618  0.973657755986004  0.4181228349515962  1.0000
  H   H24       1.0  0.11217405783823149  0.022799104650665904  0.5657697043744037  1.0000
  H   H25       1.0  0.97275949305871  0.8575617549220098  0.28248255298947084  1.0000
  H   H26       1.0  0.037387909099315685  0.1209917908734539  0.714142403324928  1.0000
  H   H27       1.0  0.8510012981720506  0.1809005825388894  0.5009022932470019  1.0000
  H   H28       1.0  0.1869855321480003  0.8450287252654718  0.4667208060903221  1.0000
  H   H29       1.0  0.7445149359053571  0.11718539675008086  0.6949020534715943  1.0000
  H   H30       1.0  0.2751042225103361  0.8685763319209842  0.2762059453124195  1.0000
  H   H31       1.0  0.1012820692313596  0.17167044912716986  0.11766282513345061  1.0000
  H   H32       1.0  0.8616741239950015  0.8467329718963656  0.8806848460933027  1.0000
  C   C1        1.0  0.9394142627855612  0.5217580759024544  0.055346144940841654  1.0000
  C   C2        1.0  0.045651469838389906  0.4854104642341355  0.9248116031268766  1.0000
  C   C3        1.0  0.9733046982020139  0.43775570212683595  0.1907204467131934  1.0000
  C   C4        1.0  0.0016575379869934151  0.5706762253160207  0.794738571475712  1.0000
  C   C5        1.0  0.6747913480299417  0.7323940151241501  0.5104920435806407  1.0000
  C   C6        1.0  0.3409183162119759  0.26129060328847936  0.501104593320463  1.0000
  C   C7        1.0  0.6143807294495429  0.43900572763320156  0.6220790622889468  1.0000
  C   C8        1.0  0.4027986355893062  0.5553112698492484  0.3903615822519627  1.0000
  C   C9        1.0  0.5056951210844003  0.6477846159769597  0.7757577085059781  1.0000
  C   C10       1.0  0.49290966735474473  0.34970295977124977  0.23740198081256372  1.0000
  C   C11       1.0  0.2749288929427749  0.0300899654409506  0.9661447483598806  1.0000
  C   C12       1.0  0.7003771856938881  0.9783343552524144  0.03415179893399068  1.0000
  C   C13       1.0  0.4094357262382715  0.8293426518919207  0.7894007268947193  1.0000
  C   C14       1.0  0.5895167745451103  0.16990804472357723  0.21625378557395425  1.0000
  C   C15       1.0  0.3195369219615785  0.8457892218220593  0.9471673898131671  1.0000
  C   C16       1.0  0.6620741164828486  0.15952471352426303  0.0577186498794972  1.0000
  C   C17       1.0  0.9739659959768401  0.8480204168954301  0.38951215536318534  1.0000
  C   C18       1.0  0.04460949067405548  0.14373795298590147  0.6027713355673969  1.0000
  C   C19       1.0  0.8505469976840201  0.19394706740155948  0.6034302482832034  1.0000
  C   C20       1.0  0.17255725815896736  0.8045894901109207  0.37989265104392445  1.0000
  N   N1        1.0  0.8680118244309295  0.7111352467306206  0.49355669954915266  1.0000
  N   N2        1.0  0.15171879145222528  0.28427135998234115  0.5100744400649475  1.0000
  N   N3        1.0  0.8038741231285016  0.3742801012389236  0.6074515859716315  1.0000
  N   N4        1.0  0.21441381783215255  0.6198880976737229  0.40001612086945226  1.0000
  N   N5        1.0  0.5566641739308622  0.6163724342495412  0.6314802625133852  1.0000
  N   N6        1.0  0.46019850931234874  0.3774767549826876  0.37965120960964077  1.0000
  O   O1        1.0  0.9097729784011076  0.5268473590786089  0.2850173277473686  1.0000
  O   O2        1.0  0.064070682095192  0.47292200430656817  0.7026402788568191  1.0000
  O   O3        1.0  0.12004529547702697  0.054274307211919406  0.07980777943980401  1.0000
  O   O4        1.0  0.8474313609481852  0.9596110619310422  0.9120370369831082  1.0000
  O   O5        1.0  0.379203308288126  0.1431997829122906  0.8849673301807498  1.0000
  O   O6        1.0  0.6020140407633008  0.8622343231344801  0.1158369166091902  1.0000
  O   O7        1.0  0.06315472762003788  0.28590023570284734  0.20402536629519122  1.0000
  O   O8        1.0  0.9100900316783012  0.7174810723175115  0.7815746405479089  1.0000
