data_image0
_chemical_formula_structural       Na4Zn6H24C40O36
_chemical_formula_sum              "Na4 Zn6 H24 C40 O36"
_cell_length_a       7.391815274511428
_cell_length_b       10.457302847493354
_cell_length_c       16.542
_cell_angle_alpha    86.84728198215528
_cell_angle_beta     81.04777205738982
_cell_angle_gamma    69.30288993849189

_space_group_name_H-M_alt    "P 1"
_space_group_IT_number       1

loop_
  _space_group_symop_operation_xyz
  'x, y, z'

loop_
  _atom_site_type_symbol
  _atom_site_label
  _atom_site_symmetry_multiplicity
  _atom_site_fract_x
  _atom_site_fract_y
  _atom_site_fract_z
  _atom_site_occupancy
  Na  Na1       1.0  0.6400698358223097  0.7207325671748207  0.2500640522987467  1.0000
  Na  Na2       1.0  0.3599310570364126  0.2792686639126671  0.7499362659796631  1.0000
  Na  Na3       1.0  0.8698808151325751  0.26038374306168066  0.7499775566088829  1.0000
  Na  Na4       1.0  0.13011784978522914  0.7396164657826105  0.2500223476084145  1.0000
  Zn  Zn1       1.0  0.8690603770713213  0.9840838822420392  0.40151636329322576  1.0000
  Zn  Zn2       1.0  0.14680805764545105  0.9842239295602511  0.09852930119726722  1.0000
  Zn  Zn3       1.0  0.13093777672601453  0.0159173488454414  0.5984835409238372  1.0000
  Zn  Zn4       1.0  0.8531911183928288  0.015775257040836297  0.9014712075420804  1.0000
  Zn  Zn5       1.0  0.8479582812266175  0.304272732550487  0.250014712326994  1.0000
  Zn  Zn6       1.0  0.15204312275257342  0.695727476293797  0.7499850014298346  1.0000
  H   H1        1.0  0.5981365052400492  0.1563306301191076  0.3256042479312812  1.0000
  H   H2        1.0  0.24589351837143872  0.1563163187143317  0.1743580062300154  1.0000
  H   H3        1.0  0.40186164855727924  0.8436706009683732  0.6743962608076046  1.0000
  H   H4        1.0  0.7541051465463656  0.8436838901299594  0.8256418979872819  1.0000
  H   H5        1.0  0.5713431704608639  0.004690051795186899  0.3311961589576953  1.0000
  H   H6        1.0  0.42425828036526536  0.0046052056097068  0.1687709836962412  1.0000
  H   H7        1.0  0.4286536138057713  0.995311179292294  0.6688044450114319  1.0000
  H   H8        1.0  0.5757403845525387  0.9953950032345773  0.8312289205210561  1.0000
  H   H9        1.0  0.9163917344293324  0.4854632950164159  0.36397416235269026  1.0000
  H   H10       1.0  0.5979086425626791  0.4854224052884674  0.13620410659861196  1.0000
  H   H11       1.0  0.08361291973172774  0.5145358915846714  0.6360259654657129  1.0000
  H   H12       1.0  0.40209190300629427  0.5145767813126199  0.8637963069105012  1.0000
  H   H13       1.0  0.6366986451005799  0.7338898593840355  0.5767265236549903  1.0000
  H   H14       1.0  0.6296872760448693  0.7341515536428744  0.9236237730232588  1.0000
  H   H15       1.0  0.36330275887861774  0.2661103494602486  0.4232725855800084  1.0000
  H   H16       1.0  0.3703151501752729  0.265846610715009  0.0763753362122017  1.0000
  H   H17       1.0  0.6816487117021524  0.3114366128862898  0.5796288429989076  1.0000
  H   H18       1.0  0.006082298509753097  0.3114233237247106  0.9203981503993219  1.0000
  H   H19       1.0  0.3183513227463449  0.6885635959579943  0.4203709659881554  1.0000
  H   H20       1.0  0.9939204750001382  0.6885768851195734  0.079602072649088  1.0000
  H   H21       1.0  0.21669888708616017  0.0451903050806308  0.40154410807798513  1.0000
  H   H22       1.0  0.7383549447770792  0.04501959046645959  0.09836764011899392  1.0000
  H   H23       1.0  0.7833016584828132  0.9548088815204564  0.5984563054311353  1.0000
  H   H24       1.0  0.2616409810793314  0.9549806183778244  0.9016324545587793  1.0000
  C   C1        1.0  0.8417355285748727  0.4947329963413409  0.4267810678400181  1.0000
  C   C2        1.0  0.6633071852579918  0.4947064180181755  0.0734000953155274  1.0000
  C   C3        1.0  0.15826724493501837  0.5052672125029432  0.5732185506865692  1.0000
  C   C4        1.0  0.3366952409621505  0.505291746339708  0.9265996184417631  1.0000
  C   C5        1.0  0.6473707859803144  0.5240100415493244  0.5876104398731954  1.0000
  C   C6        1.0  0.8283288487749304  0.5241183993283727  0.9125524790322217  1.0000
  C   C7        1.0  0.35262787893748987  0.4759901672949596  0.412389464344102  1.0000
  C   C8        1.0  0.17167341361448513  0.47588283175910817  0.08744713949413101  1.0000
  C   C9        1.0  0.807572899172179  0.38252647164672027  0.46767021979891144  1.0000
  C   C10       1.0  0.8095005891295697  0.3824866041619757  0.032442654162146305  1.0000
  C   C11       1.0  0.19242901592748754  0.6174727149543671  0.5323307030017902  1.0000
  C   C12       1.0  0.19049944531892754  0.6175136046823084  0.9675577593467396  1.0000
  C   C13       1.0  0.8205970471308676  0.7403995040727409  0.42449206281885676  1.0000
  C   C14       1.0  0.4389877178732037  0.7404526607190647  0.0757575938538722  1.0000
  C   C15       1.0  0.17940298731763707  0.2596007047715503  0.5755101642554976  1.0000
  C   C16       1.0  0.5610100886343761  0.2595465258820226  0.9242411965502413  1.0000
  C   C17       1.0  0.6843026179616631  0.634866182978591  0.5470308861229398  1.0000
  C   C18       1.0  0.6809217834427344  0.6350184972151851  0.9532363748718994  1.0000
  C   C19       1.0  0.31569878601753504  0.365134025865693  0.45296882763388163  1.0000
  C   C20       1.0  0.3190830345490526  0.3649776226563048  0.046762639133795914  1.0000
  C   C21       1.0  0.711114653949501  0.3976587377156378  0.5481936055767778  1.0000
  C   C22       1.0  0.8906803630666006  0.3976730491204137  0.9519003430283703  1.0000
  C   C23       1.0  0.2888848693785278  0.6023424933718502  0.45180620341004385  1.0000
  C   C24       1.0  0.1093248022149282  0.6023251152374698  0.04809918026844431  1.0000
  C   C25       1.0  0.7813014705764376  0.6206549580316149  0.466816922015532  1.0000
  C   C26       1.0  0.598041291587137  0.6207162926235341  0.0334297376353732  1.0000
  C   C27       1.0  0.2187031835846227  0.3793442285694724  0.533182601281048  1.0000
  C   C28       1.0  0.4019592539818361  0.3792828939775532  0.9665688623082714  1.0000
  C   C29       1.0  0.5216929349631627  0.5409322554589906  0.6689856161458323  1.0000
  C   C30       1.0  0.9368345679790694  0.5408913657310492  0.8310862145495292  1.0000
  C   C31       1.0  0.47830761060581045  0.4590669311420967  0.3310135883196423  1.0000
  C   C32       1.0  0.06317656691742  0.4590975984380563  0.16891200447549437  1.0000
  C   C33       1.0  0.8679034818179903  0.24779992928687727  0.4259781430067875  1.0000
  C   C34       1.0  0.8842034398737084  0.24771814983098744  0.0740647138952895  1.0000
  C   C35       1.0  0.13209604151003862  0.7522013018006035  0.5740210614582182  1.0000
  C   C36       1.0  0.115798475225958  0.7522810367700998  0.9259349998617667  1.0000
  C   C37       1.0  0.2687725343704912  0.9547935478724767  0.3612706205201448  1.0000
  C   C38       1.0  0.7766401766466658  0.9546310112039008  0.13866091474930903  1.0000
  C   C39       1.0  0.7312275000780133  0.045206660971807394  0.6387297929887409  1.0000
  C   C40       1.0  0.22335832444041165  0.0453722643699805  0.8613382897152277  1.0000
  O   O1        1.0  0.8283018271121423  0.15067046952844979  0.4661742113294451  1.0000
  O   O2        1.0  0.020954137700037703  0.1507001145812055  0.033787692653504606  1.0000
  O   O3        1.0  0.17169957686705575  0.8493297393158414  0.5338267114710221  1.0000
  O   O4        1.0  0.9790464078689354  0.8492990720198819  0.9662121163337857  1.0000
  O   O5        1.0  0.14176909709126317  0.9052903987369446  0.34503593734216764  1.0000
  O   O6        1.0  0.9531419950287159  0.905112528420389  0.1548946639840381  1.0000
  O   O7        1.0  0.8582304262367657  0.0947108323505361  0.6549638716446607  1.0000
  O   O8        1.0  0.04685341970722591  0.09488870266709877  0.8451054306935006  1.0000
  O   O9        1.0  0.7955582262141335  0.8436644675091854  0.4700470418589759  1.0000
  O   O10       1.0  0.3607136730057903  0.8436358446996195  0.030147096538954095  1.0000
  O   O11       1.0  0.20444317776505738  0.1563357413351056  0.5299538809414913  1.0000
  O   O12       1.0  0.6392877309734075  0.1563643641446646  0.9698526172178675  1.0000
  O   O13       1.0  0.6660274179464737  0.05648507018199209  0.3269567118919028  1.0000
  O   O14       1.0  0.2777838003989218  0.0564922258843765  0.17299418867359154  1.0000
  O   O15       1.0  0.33397073585085496  0.9435161609054957  0.6730444013688057  1.0000
  O   O16       1.0  0.72221725629052  0.9435059384735068  0.8270062248357563  1.0000
  O   O17       1.0  0.9572257503199637  0.2329375354223941  0.3525175625301884  1.0000
  O   O18       1.0  0.8101866255273437  0.2326625520019689  0.14756226463936173  1.0000
  O   O19       1.0  0.04277342571831611  0.7670616511786932  0.6474829462091664  1.0000
  O   O20       1.0  0.18981340892115386  0.767337656842315  0.8524375443476941  1.0000
  O   O21       1.0  0.4191745048851416  0.6662572271212852  0.6919365209330195  1.0000
  O   O22       1.0  0.9146421014061306  0.6661774921517888  0.8082251040039026  1.0000
  O   O23       1.0  0.5808268990940489  0.3337429817229989  0.308063192823802  1.0000
  O   O24       1.0  0.0853625527549298  0.3338216944492913  0.1917744192926776  1.0000
  O   O25       1.0  0.8757811614065931  0.7362931531439472  0.3485088871019499  1.0000
  O   O26       1.0  0.38797606949904656  0.7363647101678552  0.1517343247301994  1.0000
  O   O27       1.0  0.12421785080096023  0.2637091001867304  0.6514903173628213  1.0000
  O   O28       1.0  0.6120172811267042  0.2636324319468386  0.8482654511171575  1.0000
  O   O29       1.0  0.5091798627829149  0.4386466010068091  0.7090315757056517  1.0000
  O   O30       1.0  0.05064394907856955  0.4385382432277537  0.790872458217244  1.0000
  O   O31       1.0  0.4908196605451067  0.5613546300806789  0.29096883780299976  1.0000
  O   O32       1.0  0.9493494211754836  0.5614670768325212  0.2091300545466552  1.0000
  O   O33       1.0  0.4474812215305519  0.9058628549281664  0.3340134679648585  1.0000
  O   O34       1.0  0.6468371739278141  0.9057391635011313  0.16593539711360714  1.0000
  O   O35       1.0  0.5525169322667765  0.0941383761593215  0.6659870407740273  1.0000
  O   O36       1.0  0.3531555017467341  0.09426206758634947  0.8340654925462232  1.0000
