data_image0
_chemical_formula_structural       SrB2H28C24N16O2
_chemical_formula_sum              "Sr1 B2 H28 C24 N16 O2"
_cell_length_a       9.389011671388515
_cell_length_b       9.882265754998922
_cell_length_c       10.439750179127714
_cell_angle_alpha    93.974481418401
_cell_angle_beta     107.5253939542591
_cell_angle_gamma    118.53813536544058

_space_group_name_H-M_alt    "P 1"
_space_group_IT_number       1

loop_
  _space_group_symop_operation_xyz
  'x, y, z'

loop_
  _atom_site_type_symbol
  _atom_site_label
  _atom_site_symmetry_multiplicity
  _atom_site_fract_x
  _atom_site_fract_y
  _atom_site_fract_z
  _atom_site_occupancy
  Sr  Sr1       1.0  0.5000002694595338  0.4999991517536202  0.5000002019392581  1.0000
  B   B1        1.0  0.7643515573971699  0.12448875554770923  0.8548251389174765  1.0000
  B   B2        1.0  0.23564697281381117  0.8755119027096331  0.14517487192537712  1.0000
  H   H1        1.0  0.13186143471855163  0.24783189510130646  0.017989132903991793  1.0000
  H   H2        1.0  0.8681386609167917  0.7521675903357805  0.9820112277020667  1.0000
  H   H3        1.0  0.5177311362620288  0.883857498639273  0.9530840662135488  1.0000
  H   H4        1.0  0.4822669292112353  0.11613841676316382  0.04691359092662852  1.0000
  H   H5        1.0  0.8213494128326317  0.16620842071354502  0.5985519503457082  1.0000
  H   H6        1.0  0.17865135845529803  0.8337922542211446  0.40144963038414255  1.0000
  H   H7        1.0  0.7990156040857812  0.3935753603444496  0.7435505931387281  1.0000
  H   H8        1.0  0.20098381269264834  0.6064229340531925  0.2564495042490407  1.0000
  H   H9        1.0  0.2485241266214899  0.10322172254785039  0.5702308549529674  1.0000
  H   H10       1.0  0.7514766478707673  0.8967789539286741  0.4297697688713739  1.0000
  H   H11       1.0  0.38230495427149  0.9389659728838781  0.7155186929632364  1.0000
  H   H12       1.0  0.6176958202207744  0.06103470359264662  0.2844819308611122  1.0000
  H   H13       1.0  0.7893734713834137  0.40859431041665334  0.9841892329703581  1.0000
  H   H14       1.0  0.2106284284538162  0.5914063767113049  0.015810740439228303  1.0000
  H   H15       1.0  0.8748538035695788  0.04969655618658921  0.11763771452213932  1.0000
  H   H16       1.0  0.12513931403574224  0.9503004969981318  0.8823634579101379  1.0000
  H   H17       1.0  0.4139676036248617  0.5767357877033348  0.8330080467622876  1.0000
  H   H18       1.0  0.586032951315879  0.4232625235130882  0.16698757258868818  1.0000
  H   H19       1.0  0.9150427767594422  0.47694227871954814  0.27125162205993547  1.0000
  H   H20       1.0  0.08495755444909757  0.5230595796868301  0.7287489584919554  1.0000
  H   H21       1.0  0.33478403308178883  0.3091921152050929  0.8593360071913947  1.0000
  H   H22       1.0  0.6652160625535545  0.690807370231994  0.1406643534146568  1.0000
  H   H23       1.0  0.7945407436313021  0.8956163186304809  0.6965783972385535  1.0000
  H   H24       1.0  0.2054631927766692  0.1043879416158049  0.3034223658258952  1.0000
  H   H25       1.0  0.9194227430571833  0.7001793190931381  0.6071944589274378  1.0000
  H   H26       1.0  0.08057555158060856  0.2998189661949129  0.39280533196958334  1.0000
  H   H27       1.0  0.846969502833474  0.7016001890897172  0.4454633741464064  1.0000
  H   H28       1.0  0.15303059280186915  0.2983992963473696  0.5545369864596523  1.0000
  C   C1        1.0  0.09787477020343263  0.24027362142286535  0.9077583832810984  1.0000
  C   C2        1.0  0.9021253222275762  0.7597258624723865  0.09224293423046252  1.0000
  C   C3        1.0  0.5600724041287181  0.8408898922633058  0.8826634584346349  1.0000
  C   C4        1.0  0.43992657897899085  0.15910958868970232  0.11733372496415476  1.0000
  C   C5        1.0  0.9355417455437163  0.19866590268500772  0.6901512276944144  1.0000
  C   C6        1.0  0.06445857925614723  0.8013359526376931  0.3098512666684882  1.0000
  C   C7        1.0  0.6662644876751572  0.2928872556779823  0.7142105068870632  1.0000
  C   C8        1.0  0.33373492910327235  0.7071110387196597  0.28578959050070546  1.0000
  C   C9        1.0  0.3839078781580127  0.13926918942014055  0.6265923085478916  1.0000
  C   C10       1.0  0.6160915354160824  0.8607291034356667  0.3734087457453796  1.0000
  C   C11       1.0  0.4489184930834327  0.056951560021090614  0.6992621344099419  1.0000
  C   C12       1.0  0.5510809204906623  0.9430467328347164  0.30073891988333656  1.0000
  C   C13       1.0  0.8269173624233802  0.3452636489342992  0.05446257499624342  1.0000
  C   C14       1.0  0.17308521306642902  0.6547382276912685  0.9455386185371351  1.0000
  C   C15       1.0  0.8706692253218475  0.157824378050357  0.12277787812935503  1.0000
  C   C16       1.0  0.12933043343844747  0.8421762924002536  0.8772205253932269  1.0000
  C   C17       1.0  0.5102048049111758  0.6888566568515131  0.8227024245544569  1.0000
  C   C18       1.0  0.4897957436208956  0.3111416512812398  0.17729510860753808  1.0000
  C   C19       1.0  0.8909531704265988  0.37839469696869105  0.19715363718226092  1.0000
  C   C20       1.0  0.1090476040656584  0.6216059795078337  0.8028469866420876  1.0000
  C   C21       1.0  0.1974077963171369  0.2712032909158141  0.8277021958718433  1.0000
  C   C22       1.0  0.8025911771775756  0.7287961854116747  0.17229785824347493  1.0000
  C   C23       1.0  0.7057240251117564  0.8492376706294422  0.7505852750690349  1.0000
  C   C24       1.0  0.29427855358238736  0.1507642075379607  0.2494149615588341  1.0000
  N   N1        1.0  0.6301375274544797  0.15560777461069364  0.7550167244652782  1.0000
  N   N2        1.0  0.36986144604022575  0.8443917017167949  0.2449833296500401  1.0000
  N   N3        1.0  0.6854874008839078  0.943469506441865  0.8361603603216919  1.0000
  N   N4        1.0  0.31451449895332223  0.05653118068609331  0.16383961308788736  1.0000
  N   N5        1.0  0.8128595282859196  0.20318705572204723  0.006959775180185078  1.0000
  N   N6        1.0  0.1871383262724821  0.7968124130376923  0.9930390155388764  1.0000
  N   N7        1.0  0.9301919622129233  0.19430518713385683  0.8192512294640009  1.0000
  N   N8        1.0  0.06980880907499923  0.8056954878008328  0.18075035126584987  1.0000
  N   N9        1.0  0.5214088678751381  0.2874412446142501  0.6360276053094863  1.0000
  N   N10       1.0  0.47859122776020513  0.7125582408228297  0.36397275529656525  1.0000
  N   N11       1.0  0.6024893103816853  0.6949616978582754  0.7398505682738798  1.0000
  N   N12       1.0  0.39751147372357565  0.30503898324376894  0.26014718483394006  1.0000
  N   N13       1.0  0.918203325969209  0.2602914052472016  0.23908242427101087  1.0000
  N   N14       1.0  0.08179497187291679  0.7397068815826913  0.7609164097205009  1.0000
  N   N15       1.0  0.09439754888855849  0.24508462453254515  0.6914288529170846  1.0000
  N   N16       1.0  0.9056032223993644  0.7549160504021446  0.30857272781276635  1.0000
  O   O1        1.0  0.8097331314730811  0.6661044873161545  0.5242655259507456  1.0000
  O   O2        1.0  0.19026584202162417  0.33389498901134124  0.47573452816456546  1.0000
