data_image0
_chemical_formula_structural       Dy2H20C22N2O14
_chemical_formula_sum              "Dy2 H20 C22 N2 O14"
_cell_length_a       8.305579292404067
_cell_length_b       8.948871618979283
_cell_length_c       10.50549058409418
_cell_angle_alpha    105.2676025008235
_cell_angle_beta     100.83969175734454
_cell_angle_gamma    95.3566740064209

_space_group_name_H-M_alt    "P 1"
_space_group_IT_number       1

loop_
  _space_group_symop_operation_xyz
  'x, y, z'

loop_
  _atom_site_type_symbol
  _atom_site_label
  _atom_site_symmetry_multiplicity
  _atom_site_fract_x
  _atom_site_fract_y
  _atom_site_fract_z
  _atom_site_occupancy
  Dy  Dy1       1.0  0.41727046012722724  0.2940212749101221  0.029386535901572582  1.0000
  Dy  Dy2       1.0  0.5827283876981185  0.7059793312660503  0.9706137309040344  1.0000
  H   H1        1.0  0.746814867885206  0.18661188293685882  0.3779980948192687  1.0000
  H   H2        1.0  0.25318361740331613  0.8133863790634666  0.622000641552866  1.0000
  H   H3        1.0  0.6523963747091059  0.29063411935879196  0.5862918661362642  1.0000
  H   H4        1.0  0.3475994711050845  0.7093629732887408  0.41370619419106464  1.0000
  H   H5        1.0  0.7609510157628349  0.7599630238219603  0.5624674583697455  1.0000
  H   H6        1.0  0.23904866720287998  0.24003523837983914  0.43753337069156123  1.0000
  H   H7        1.0  0.8580603649002043  0.6608402395480937  0.35394440195778293  1.0000
  H   H8        1.0  0.141941769287925  0.3391580202672485  0.646056812881625  1.0000
  H   H9        1.0  0.9423121809707027  0.15038364568982127  0.278220194796873  1.0000
  H   H10       1.0  0.05768895775914733  0.8496157849659485  0.7217782677200121  1.0000
  H   H11       1.0  0.995603876563642  0.1840031200575254  0.13375395933449138  1.0000
  H   H12       1.0  0.004393613266593387  0.815996312783227  0.8662420247151204  1.0000
  H   H13       1.0  0.9979747899806883  0.3999750302675338  0.09001681635695048  1.0000
  H   H14       1.0  0.0020303601855928997  0.6000267423791001  0.9099856550606731  1.0000
  H   H15       1.0  0.03391135555148137  0.5604785477275412  0.23572827497105917  1.0000
  H   H16       1.0  0.9660938085818033  0.43952322422174467  0.7642732465465016  1.0000
  H   H17       1.0  0.5500764878950906  0.1489028275094171  0.7913247505945338  1.0000
  H   H18       1.0  0.44991565315147136  0.8510942701125045  0.2086746308657652  1.0000
  H   H19       1.0  0.533994803578139  0.3234683382064105  0.7838351692105762  1.0000
  H   H20       1.0  0.46600345155744805  0.676528754146716  0.2161661265950414  1.0000
  C   C1        1.0  0.8180983229222888  0.415379689614646  0.3511839353769731  1.0000
  C   C2        1.0  0.181904013484754  0.584619741242598  0.6488166198290841  1.0000
  C   C3        1.0  0.7544323788240843  0.312810922141729  0.4183729735152255  1.0000
  C   C4        1.0  0.24556752032755466  0.6871885104046173  0.5816262460126682  1.0000
  C   C5        1.0  0.7004371485697335  0.371423683345327  0.5360302550497237  1.0000
  C   C6        1.0  0.29956133671878143  0.628574578654998  0.46396848132241797  1.0000
  C   C7        1.0  0.7046953208739877  0.5331209851963548  0.591653698441128  1.0000
  C   C8        1.0  0.29530332473243703  0.4668784499379228  0.4083472279978367  1.0000
  C   C9        1.0  0.7604228517791257  0.634524749245301  0.5218273740090851  1.0000
  C   C10       1.0  0.239578042830793  0.3654735124606177  0.4781745978413383  1.0000
  C   C11       1.0  0.815015267193843  0.5780064068552734  0.40417693255056264  1.0000
  C   C12       1.0  0.18498685302727585  0.42199185365741704  0.5958252321889079  1.0000
  C   C13       1.0  0.6564632065410194  0.5942628168074935  0.7203106922554029  1.0000
  C   C14       1.0  0.34353243705425035  0.40573310479814506  0.2796880277052836  1.0000
  C   C15       1.0  0.8987432485181303  0.1962112870936537  0.19257997907366334  1.0000
  C   C16       1.0  0.10125789021171978  0.8037881435621158  0.8074184834432218  1.0000
  C   C17       1.0  0.741038265149612  0.08896996166120628  0.10324795219290915  1.0000
  C   C18       1.0  0.2589541160693543  0.9110435399072685  0.8967513076228926  1.0000
  C   C19       1.0  0.9382325998001589  0.4643306112515049  0.1681800063842829  1.0000
  C   C20       1.0  0.061770301362628274  0.5356723348234879  0.831821419621889  1.0000
  C   C21       1.0  0.8070901043956766  0.5389560884934924  0.09538238892942276  1.0000
  C   C22       1.0  0.1929125805811864  0.46104568723695394  0.9046206466101624  1.0000
  N   N1        1.0  0.8817885458160789  0.35960665483548127  0.23925783570190623  1.0000
  N   N2        1.0  0.11821521842109213  0.6403939458704289  0.7607422527598402  1.0000
  O   O1        1.0  0.6172767090798601  0.1512348124345806  0.06447396663693893  1.0000
  O   O2        1.0  0.3827269713552823  0.8487657924554313  0.9355318212251689  1.0000
  O   O3        1.0  0.7479102702851891  0.9437804550506641  0.07322169823776647  1.0000
  O   O4        1.0  0.2520862643184785  0.05621311979118811  0.9267737843783834  1.0000
  O   O5        1.0  0.6514879910525622  0.4879054193642176  0.07135478104252978  1.0000
  O   O6        1.0  0.34851811434029395  0.5121022112813165  0.9286481918085556  1.0000
  O   O7        1.0  0.8564520547420144  0.6553565990202443  0.05793636251785727  1.0000
  O   O8        1.0  0.14355247646981442  0.34464868794531617  0.9420639371106461  1.0000
  O   O9        1.0  0.6091110207994889  0.49919034579927063  0.7854284543111875  1.0000
  O   O10       1.0  0.3908878130588461  0.5008102610742567  0.2145727623944822  1.0000
  O   O11       1.0  0.664882088086074  0.7417536618696162  0.7752332823236757  1.0000
  O   O12       1.0  0.33511028311341556  0.2582446053995043  0.22476353970314733  1.0000
  O   O13       1.0  0.4814042163620513  0.2311732962078068  0.8073430344730639  1.0000
  O   O14       1.0  0.5185935941039972  0.7688284829008508  0.19265732971019386  1.0000
