data_image0
_chemical_formula_structural       Cu6H6C24O18
_chemical_formula_sum              "Cu6 H6 C24 O18"
_cell_length_a       6.26448007947567
_cell_length_b       15.22293624406479
_cell_length_c       15.200794407010772
_cell_angle_alpha    118.17200076936325
_cell_angle_beta     97.86908536308354
_cell_angle_gamma    97.88511414945732

_space_group_name_H-M_alt    "P 1"
_space_group_IT_number       1

loop_
  _space_group_symop_operation_xyz
  'x, y, z'

loop_
  _atom_site_type_symbol
  _atom_site_label
  _atom_site_symmetry_multiplicity
  _atom_site_fract_x
  _atom_site_fract_y
  _atom_site_fract_z
  _atom_site_occupancy
  Cu  Cu1       1.0  0.4317583205963444  0.2633363863893905  0.5727837577791065  1.0000
  Cu  Cu2       1.0  0.16768778672568627  0.30906490851704393  0.7372251252393482  1.0000
  Cu  Cu3       1.0  0.8575609045831952  0.427212020595654  0.6902261443539146  1.0000
  Cu  Cu4       1.0  0.5692889890683261  0.7375980857854926  0.4290566856928209  1.0000
  Cu  Cu5       1.0  0.8330555705944606  0.6904126416084607  0.2637175209207998  1.0000
  Cu  Cu6       1.0  0.14028004249895798  0.5722290921792706  0.308718463380906  1.0000
  H   H1        1.0  0.8320066878172128  0.43250318533898746  0.45630762250417695  1.0000
  H   H2        1.0  0.398369621677368  0.023763142847037993  0.5686157689813811  1.0000
  H   H3        1.0  0.37424336996402735  0.5453408160616534  0.9759258577048301  1.0000
  H   H4        1.0  0.1715359385012505  0.569186347700601  0.5458976856216609  1.0000
  H   H5        1.0  0.6008902668035105  0.9756103650900627  0.43122761689939915  1.0000
  H   H6        1.0  0.6251955813283133  0.4551495240102882  0.02351747274168062  1.0000
  C   C1        1.0  0.21098360728450422  0.42729235243143654  0.5970529085691896  1.0000
  C   C2        1.0  0.7823852652089727  0.16912216012546108  0.5731113455793064  1.0000
  C   C3        1.0  0.6133990281571258  0.40386834200758415  0.8302432661924899  1.0000
  C   C4        1.0  0.7903549244681753  0.5735918075142479  0.4040317089560546  1.0000
  C   C5        1.0  0.21698659008384896  0.8303580534882331  0.42713942199998217  1.0000
  C   C6        1.0  0.38635068944045514  0.5968410946274787  0.16938958980839672  1.0000
  C   C7        1.0  0.3675689270516145  0.4658196806197026  0.5511709209034167  1.0000
  C   C8        1.0  0.9001642182127726  0.08461789721863511  0.534197246582508  1.0000
  C   C9        1.0  0.815545050387321  0.4496863125708687  0.9146670958218978  1.0000
  C   C10       1.0  0.6340798634869529  0.5346048744105191  0.4496538670166289  1.0000
  C   C11       1.0  0.09914374485035908  0.9147608952321138  0.46554216433079915  1.0000
  C   C12       1.0  0.18391642482027493  0.5508753118673226  0.08488813618009769  1.0000
  C   C13       1.0  0.5593241764158562  0.4270862376154341  0.5266795212104614  1.0000
  C   C14       1.0  0.1311580550523317  0.0992522812836683  0.5725742349529385  1.0000
  C   C15       1.0  0.03158869390013318  0.4738671894696013  0.9000969198257424  1.0000
  C   C16       1.0  0.4412020945479753  0.5726632261680962  0.4732857669385738  1.0000
  C   C17       1.0  0.868426323502611  0.900135392215205  0.42674761833987435  1.0000
  C   C18       1.0  0.9678016172268471  0.5262555668332141  0.09925696036549429  1.0000
  C   C19       1.0  0.686233208045735  0.46221637371277785  0.4751021743691768  1.0000
  C   C20       1.0  0.22301390628353351  0.0126473150495698  0.5384793179134135  1.0000
  C   C21       1.0  0.20984483904489792  0.5260976574561481  0.9868108578919462  1.0000
  C   C22       1.0  0.31650912091666333  0.5389979942468698  0.526393184523343  1.0000
  C   C23       1.0  0.776310330770649  0.9867575094481682  0.4612601503423978  1.0000
  C   C24       1.0  0.7894352429247887  0.47436121368193795  0.012509241064698475  1.0000
  O   O1        1.0  0.20007840508415603  0.33893610737604263  0.589072820066967  1.0000
  O   O2        1.0  0.8593976107311717  0.24900189297894573  0.6620301364820592  1.0000
  O   O3        1.0  0.6104846866740276  0.41310593735664014  0.7503444104644147  1.0000
  O   O4        1.0  0.8026050111251309  0.6626566235935628  0.41368918683484424  1.0000
  O   O5        1.0  0.14037705243442408  0.7504261748992181  0.3381406489331343  1.0000
  O   O6        1.0  0.3886772984091778  0.5889362914291425  0.2499795478625942  1.0000
  O   O7        1.0  0.0787328989659955  0.4821890680019224  0.6396629116090794  1.0000
  O   O8        1.0  0.5963373310666356  0.1572520847879275  0.5177610680823719  1.0000
  O   O9        1.0  0.4395586208457234  0.36028021453503817  0.8420817219085919  1.0000
  O   O10       1.0  0.9205130326121561  0.5181169191364958  0.3600152889686259  1.0000
  O   O11       1.0  0.40267471649520564  0.842402970884578  0.48284385270304164  1.0000
  O   O12       1.0  0.5612818398498477  0.6393110506599059  0.15723600525797837  1.0000
  O   O13       1.0  0.6323088618985294  0.362349568722813  0.553441817981728  1.0000
  O   O14       1.0  0.2673241018097627  0.19137165432885447  0.6351160235704542  1.0000
  O   O15       1.0  0.07590659734928101  0.44419154750878687  0.8076772613259707  1.0000
  O   O16       1.0  0.3669208893974698  0.6346930323942459  0.4428253181825357  1.0000
  O   O17       1.0  0.731928223570648  0.8081581532861152  0.36377247766996873  1.0000
  O   O18       1.0  0.9212939407951312  0.5534422888421985  0.19080801251573834  1.0000
