data_image0
_chemical_formula_structural       Zn2H10C28N2O8
_chemical_formula_sum              "Zn2 H10 C28 N2 O8"
_cell_length_a       13.213513265583055
_cell_length_b       14.488533146019368
_cell_length_c       16.082933772554032
_cell_angle_alpha    90.03559717803454
_cell_angle_beta     89.8382114176298
_cell_angle_gamma    90.00609803403978

_space_group_name_H-M_alt    "P 1"
_space_group_IT_number       1

loop_
  _space_group_symop_operation_xyz
  'x, y, z'

loop_
  _atom_site_type_symbol
  _atom_site_label
  _atom_site_symmetry_multiplicity
  _atom_site_fract_x
  _atom_site_fract_y
  _atom_site_fract_z
  _atom_site_occupancy
  Zn  Zn1       1.0  0.39480975949440716  0.4999925841951693  0.5002508832939158  1.0000
  Zn  Zn2       1.0  0.6051888023386168  0.5000038683595349  0.49974947407304177  1.0000
  H   H1        1.0  0.5847129432702686  0.6395787532399313  0.9489816487234393  1.0000
  H   H2        1.0  0.4152886461103406  0.3604239112787511  0.051018707966001414  1.0000
  H   H3        1.0  0.40905137187642976  0.6362839010159861  0.051224998573467004  1.0000
  H   H4        1.0  0.5909494593353627  0.36371945388017923  0.9487759806905063  1.0000
  H   H5        1.0  0.7586551679889763  0.5048441845658901  0.009736417032797802  1.0000
  H   H6        1.0  0.7154389691889588  0.5654043769746979  0.09963716328580573  1.0000
  H   H7        1.0  0.7181673527580158  0.4428144567970166  0.09962565775174433  1.0000
  H   H8        1.0  0.24134566311057165  0.4951570997269884  0.9902645616535396  1.0000
  H   H9        1.0  0.2818334797450531  0.557186827280951  0.9003746991552151  1.0000
  H   H10       1.0  0.28456337551602207  0.4345969073952318  0.9003638141953233  1.0000
  C   C1        1.0  0.5000150447975071  0.7801083737290924  0.49998909525022833  1.0000
  C   C2        1.0  0.4999857930203148  0.21988738788044057  0.5000087729988467  1.0000
  C   C3        1.0  0.5000065235209162  0.6804647454556586  0.5000023375581649  1.0000
  C   C4        1.0  0.49999430864541944  0.3195303268124263  0.4999980176158871  1.0000
  C   C5        1.0  0.4999374762295615  0.500051585732443  0.6613227741278536  1.0000
  C   C6        1.0  0.5000603288755768  0.4999462471859319  0.3386775842268008  1.0000
  C   C7        1.0  0.5000075682426796  0.8648381440751438  0.4999953320966526  1.0000
  C   C8        1.0  0.4999947831057411  0.1351562372092445  0.500002534562114  1.0000
  C   C9        1.0  0.85133939590807  0.49999860700081195  0.499997421134708  1.0000
  C   C10       1.0  0.14865613753506315  0.5000019868212888  0.500003561577323  1.0000
  C   C11       1.0  0.500003549930092  0.957389962543296  0.5000006397492244  1.0000
  C   C12       1.0  0.4999980516706159  0.0426051078291039  0.4999941188077841  1.0000
  C   C13       1.0  0.44964083958164736  0.5758258814179058  0.027654562351592908  1.0000
  C   C14       1.0  0.5503599930336661  0.42417747326335586  0.9723457951330019  1.0000
  C   C15       1.0  0.5468852507824308  0.5776483806111161  0.9725045459156619  1.0000
  C   C16       1.0  0.4531163386355883  0.42235497410867145  0.027495810966328804  1.0000
  C   C17       1.0  0.9537534619968894  0.49999902899951826  0.5000315232596861  1.0000
  C   C18       1.0  0.046243583648148984  0.5000015651145446  0.49997008002652166  1.0000
  C   C19       1.0  0.500134952607837  0.5000701311256108  0.7508624141549947  1.0000
  C   C20       1.0  0.49986512032289426  0.4999318435447506  0.24913918710587524  1.0000
  C   C21       1.0  0.4024548961720668  0.4981820989400988  0.9719656519972022  1.0000
  C   C22       1.0  0.5975459363684121  0.5018198753389669  0.0280347051023  1.0000
  C   C23       1.0  0.5007515685127685  0.5000253000245182  0.9145524842916473  1.0000
  C   C24       1.0  0.4992507763792843  0.4999794353508946  0.08544849415221022  1.0000
  C   C25       1.0  0.5013509913591675  0.5000826095083896  0.8266966280415959  1.0000
  C   C26       1.0  0.4986498398152149  0.49992005518668503  0.1733043510298344  1.0000
  C   C27       1.0  0.7031335212330487  0.5038278599929387  0.0608631535676523  1.0000
  C   C28       1.0  0.29686806666921933  0.49617342433846545  0.9391378245160809  1.0000
  N   N1        1.0  0.7630482206715924  0.5000043956582019  0.4998656480081536  1.0000
  N   N2        1.0  0.23694958454578335  0.4999955078634671  0.5001347109241365  1.0000
  O   O1        1.0  0.41349484525739644  0.6416579588136457  0.5001549064820809  1.0000
  O   O2        1.0  0.5865090099092497  0.3583371142532741  0.49984731161970336  1.0000
  O   O3        1.0  0.5865184292437249  0.6416680980180374  0.4998753712522229  1.0000
  O   O4        1.0  0.4134846748091049  0.3583283545529028  0.5001243607197239  1.0000
  O   O5        1.0  0.4135522148500214  0.5000397342064318  0.6258594191172906  1.0000
  O   O6        1.0  0.5864471050021577  0.49995326716638994  0.3741403149049561  1.0000
  O   O7        1.0  0.5862954851954001  0.5000463376212069  0.6253761628538257  1.0000
  O   O8        1.0  0.4137038335899915  0.49995287577641534  0.37462419468070624  1.0000
