data_image0
_chemical_formula_structural       Nd2H30C36O24
_chemical_formula_sum              "Nd2 H30 C36 O24"
_cell_length_a       8.081606935950225
_cell_length_b       10.001170735210454
_cell_length_c       12.735673509103464
_cell_angle_alpha    92.63955118808838
_cell_angle_beta     95.7148486483151
_cell_angle_gamma    92.97986739333362

_space_group_name_H-M_alt    "P 1"
_space_group_IT_number       1

loop_
  _space_group_symop_operation_xyz
  'x, y, z'

loop_
  _atom_site_type_symbol
  _atom_site_label
  _atom_site_symmetry_multiplicity
  _atom_site_fract_x
  _atom_site_fract_y
  _atom_site_fract_z
  _atom_site_occupancy
  Nd  Nd1       1.0  0.4160095186488634  0.6082508307497179  0.6748543788687299  1.0000
  Nd  Nd2       1.0  0.583990739109133  0.3917513322927419  0.32514392531511754  1.0000
  H   H1        1.0  0.48374525799575707  0.08896354123049828  0.7288552597764236  1.0000
  H   H2        1.0  0.5162542078206515  0.911044673962273  0.27114631419063057  1.0000
  H   H3        1.0  0.2744785625743518  0.3343675851620561  0.9633893623898188  1.0000
  H   H4        1.0  0.7255141396636233  0.6656326684211747  0.03661627728223486  1.0000
  H   H5        1.0  0.2716630757986849  0.9025240629247478  0.9832228616207955  1.0000
  H   H6        1.0  0.7283483980082508  0.0974781370881601  0.016780054065627284  1.0000
  H   H7        1.0  0.2662644418375066  0.9747052782862795  0.16279822583730655  1.0000
  H   H8        1.0  0.7337405315960197  0.0252929251410237  0.8372049615191199  1.0000
  H   H9        1.0  0.07276345877999552  0.9521849973290061  0.08005810635663829  1.0000
  H   H10       1.0  0.9272410828432172  0.047807190924139306  0.9199448785713712  1.0000
  H   H11       1.0  0.1375461125886304  0.1277343499338386  0.2861303091037256  1.0000
  H   H12       1.0  0.8624561530326106  0.8722608386927745  0.7138718395709701  1.0000
  H   H13       1.0  0.9483815282377749  0.12013508254651836  0.19839543314662927  1.0000
  H   H14       1.0  0.051616877787665834  0.8798581307845839  0.8016087779391936  1.0000
  H   H15       1.0  0.9164073826013206  0.7239220911394852  0.3451271179321579  1.0000
  H   H16       1.0  0.08359391753934628  0.2760770904687817  0.6548735182648782  1.0000
  H   H17       1.0  0.6408241345525171  0.9041723011893339  0.582775244832028  1.0000
  H   H18       1.0  0.3591574363688466  0.0958298122602699  0.4172164212441344  1.0000
  H   H19       1.0  0.606416297812416  0.2419788775692951  0.6539229506660432  1.0000
  H   H20       1.0  0.3935802915864102  0.7580242726725503  0.3460735881558746  1.0000
  H   H21       1.0  0.8887223170187681  0.1534561332587927  0.37174108003303263  1.0000
  H   H22       1.0  0.1112664565515544  0.8465420187708403  0.6282556208857812  1.0000
  H   H23       1.0  0.0670429004109394  0.5989631321666025  0.753346608866259  1.0000
  H   H24       1.0  0.9329535746533395  0.4010380671278  0.2466545772642377  1.0000
  H   H25       1.0  0.05224236248900379  0.5379133549300334  0.6368425847136263  1.0000
  H   H26       1.0  0.947760679983368  0.46209283446057015  0.36315757768748097  1.0000
  H   H27       1.0  0.7127372610429674  0.7038334606643701  0.8443868373774278  1.0000
  H   H28       1.0  0.28726820136814973  0.29617173341082287  0.15561422875313005  1.0000
  H   H29       1.0  0.6135609784258804  0.5757199982794674  0.8749517213209115  1.0000
  H   H30       1.0  0.3864441566420638  0.4242811135321318  0.1250429234777215  1.0000
  C   C1        1.0  0.40586848005831644  0.8529534414710512  0.8007928066315058  1.0000
  C   C2        1.0  0.5941343563763013  0.14704975836934148  0.19920882615030416  1.0000
  C   C3        1.0  0.38042593411442027  0.9864154423866155  0.8523596153831929  1.0000
  C   C4        1.0  0.6195829087823128  0.013584754373070503  0.14764308115702104  1.0000
  C   C5        1.0  0.42683575017082387  0.10119796073887946  0.8020700442480686  1.0000
  C   C6        1.0  0.5731707644903636  0.8988042699389851  0.19793492549058556  1.0000
  C   C7        1.0  0.3899383472755176  0.22690824263304424  0.8429333917657258  1.0000
  C   C8        1.0  0.6100683113224507  0.7730959931028778  0.15707164544906496  1.0000
  C   C9        1.0  0.42429930449689823  0.3522433105246705  0.787202377539124  1.0000
  C   C10       1.0  0.5757085009508742  0.6477598766876368  0.21279877278535506  1.0000
  C   C11       1.0  0.30944462571043363  0.23643184069194234  0.9349691091955206  1.0000
  C   C12       1.0  0.6905606503977425  0.7635703999067758  0.06503657050555489  1.0000
  C   C13       1.0  0.269911989968186  0.12120567245408857  0.9876377612567563  1.0000
  C   C14       1.0  0.7300967287265934  0.8787925553212829  0.012368010997135977  1.0000
  C   C15       1.0  0.3032998054296526  0.994931250981942  0.9459886228169406  1.0000
  C   C16       1.0  0.6967102858875052  0.005068953893768901  0.054014935355759484  1.0000
  C   C17       1.0  0.15266820863989491  0.023224148705800505  0.13397796724882474  1.0000
  C   C18       1.0  0.8473355065058072  0.9767740285686132  0.866022786880208  1.0000
  C   C19       1.0  0.0579119370443451  0.06512948146911411  0.22574599173081816  1.0000
  C   C20       1.0  0.9420916341645906  0.934866690747249  0.7742546949220708  1.0000
  C   C21       1.0  0.9148245770876784  0.9391141014713894  0.3492208356409633  1.0000
  C   C22       1.0  0.08516785497440078  0.06088304532197239  0.6507760590448795  1.0000
  C   C23       1.0  0.873192535060916  0.8125020517056  0.38457937202988285  1.0000
  C   C24       1.0  0.12680247074408874  0.1874961228672731  0.6154200654564617  1.0000
  C   C25       1.0  0.7745667653807402  0.7990560075398251  0.4678008230418128  1.0000
  C   C26       1.0  0.2254206306335078  0.2009401583710329  0.5321973061607392  1.0000
  C   C27       1.0  0.7237390322284512  0.6598715954589309  0.4974616042106063  1.0000
  C   C28       1.0  0.2762559587754366  0.34012655205863496  0.502535475883377  1.0000
  C   C29       1.0  0.7180986615407933  0.9137375343103786  0.5178343839465994  1.0000
  C   C30       1.0  0.2818925990029584  0.08626061591442638  0.4821624686422864  1.0000
  C   C31       1.0  0.7595806304649882  0.03991748736029171  0.4813233160237969  1.0000
  C   C32       1.0  0.24040931955736508  0.9600796702563273  0.5186742127894346  1.0000
  C   C33       1.0  0.700723351409401  0.16541326575447357  0.5284456535361881  1.0000
  C   C34       1.0  0.29927225770774146  0.834593850413725  0.47154701541570165  1.0000
  C   C35       1.0  0.8576429971581803  0.05357529906810041  0.39709764867678377  1.0000
  C   C36       1.0  0.14235067345691022  0.9464218378044152  0.6028985360466377  1.0000
  O   O1        1.0  0.3318056705145692  0.7476080962302875  0.8307357358828111  1.0000
  O   O2        1.0  0.668205798358663  0.25239409476418473  0.16926639400615776  1.0000
  O   O3        1.0  0.4976265033306361  0.8479470719033556  0.7244763118578488  1.0000
  O   O4        1.0  0.5023725779753293  0.15205608555210406  0.2755211644315877  1.0000
  O   O5        1.0  0.5150972986419616  0.3549170346422983  0.7100596032955763  1.0000
  O   O6        1.0  0.48490867770460977  0.6450781152033329  0.28993962969440185  1.0000
  O   O7        1.0  0.35782972141220887  0.458296142281192  0.8182476650500942  1.0000
  O   O8        1.0  0.6421719957376552  0.5417090274459254  0.18175081618300473  1.0000
  O   O9        1.0  0.195256264551638  0.14127042807461984  0.0795767142005204  1.0000
  O   O10       1.0  0.8047448394186816  0.8587257820203009  0.9204269639721258  1.0000
  O   O11       1.0  0.008661801120382536  0.9395148008100879  0.2662668817018171  1.0000
  O   O12       1.0  0.9913403826650652  0.06047936725062901  0.7337336616398957  1.0000
  O   O13       1.0  0.7588164573773353  0.5614717917033899  0.4379016635535675  1.0000
  O   O14       1.0  0.24117972981340333  0.4385253974749049  0.5620993876246487  1.0000
  O   O15       1.0  0.6461128109203785  0.6461290829440857  0.5785083264477604  1.0000
  O   O16       1.0  0.3538774220418191  0.35387207577021224  0.4214885515202979  1.0000
  O   O17       1.0  0.6949046018843178  0.2709462784791939  0.4803157670437769  1.0000
  O   O18       1.0  0.3050937597377867  0.7290468536860004  0.519681371864955  1.0000
  O   O19       1.0  0.6578322320125807  0.15701460012870433  0.6251388329680124  1.0000
  O   O20       1.0  0.3421602720178853  0.8429835491936901  0.374858095455906  1.0000
  O   O21       1.0  0.0944822188942638  0.6162636485891895  0.6823017636437425  1.0000
  O   O22       1.0  0.9055170310169912  0.3837415590164995  0.31769970910910666  1.0000
  O   O23       1.0  0.6673360093157399  0.6140290105280997  0.8170770276607155  1.0000
  O   O24       1.0  0.33266950039524795  0.3859771409839396  0.18292014322064173  1.0000
