data_image0
_chemical_formula_structural       Zn4H40C66N16O13
_chemical_formula_sum              "Zn4 H40 C66 N16 O13"
_cell_length_a       18.5620300195152
_cell_length_b       20.624863122866497
_cell_length_c       19.63905853452087
_cell_angle_alpha    106.59752637664859
_cell_angle_beta     109.72523622274797
_cell_angle_gamma    109.98628434052404

_space_group_name_H-M_alt    "P 1"
_space_group_IT_number       1

loop_
  _space_group_symop_operation_xyz
  'x, y, z'

loop_
  _atom_site_type_symbol
  _atom_site_label
  _atom_site_symmetry_multiplicity
  _atom_site_fract_x
  _atom_site_fract_y
  _atom_site_fract_z
  _atom_site_occupancy
  Zn  Zn1       1.0  0.09899928134461079  0.4990918498537056  0.1046616674828442  1.0000
  Zn  Zn2       1.0  0.909925930959247  0.5219329475646362  0.9039070423619152  1.0000
  Zn  Zn3       1.0  0.8874248453405615  0.3770507369370933  0.9697178208767739  1.0000
  Zn  Zn4       1.0  0.12337651631472112  0.6360711378774937  0.024665930725710487  1.0000
  H   H1        1.0  0.1252140442393498  0.3575861406062161  0.14898563229737505  1.0000
  H   H2        1.0  0.8316585663975147  0.8908202044613204  0.02479836206583738  1.0000
  H   H3        1.0  0.8295431135503151  0.005690190320478989  0.009765679186223583  1.0000
  H   H4        1.0  0.7840421912894867  0.4001304251210269  0.7075579118235993  1.0000
  H   H5        1.0  0.1938086066416389  0.4245923779828971  0.03380947862527962  1.0000
  H   H6        1.0  0.8893301693492434  0.22319828310151027  0.9153627420929524  1.0000
  H   H7        1.0  0.2411648686962523  0.612862678212018  0.2907130433788084  1.0000
  H   H8        1.0  0.7813395634546582  0.29493100456537763  0.16018890006419892  1.0000
  H   H9        1.0  0.8372884477524211  0.23892066485674945  0.1640357857300286  1.0000
  H   H10       1.0  0.7326972887832213  0.20065760048937162  0.07772402679746901  1.0000
  H   H11       1.0  0.8490518312738544  0.7764152430959541  0.9295995059880511  1.0000
  H   H12       1.0  0.8175917838967806  0.600220011196427  0.9834042529081229  1.0000
  H   H13       1.0  0.8013801420597064  0.7225665217608892  0.9745636123617774  1.0000
  H   H14       1.0  0.7454956069883211  0.688561652304955  0.8665608728546772  1.0000
  H   H15       1.0  0.09502298718445706  0.523444834305721  0.32769266885055265  1.0000
  H   H16       1.0  0.3527410045397943  0.8332603456264067  0.24243462227743615  1.0000
  H   H17       1.0  0.698052964852586  0.3933606246992055  0.043701195001702255  1.0000
  H   H18       1.0  0.8323486427121409  0.1974277730038381  0.4250904265825142  1.0000
  H   H19       1.0  0.7845181313006079  0.25998791975430174  0.42782501227512876  1.0000
  H   H20       1.0  0.7893494373201974  0.21469458709835706  0.4937230585392739  1.0000
  H   H21       1.0  0.13237409179787818  0.45422392835214964  0.407695065836549  1.0000
  H   H22       1.0  0.6743849051767725  0.02260795382708384  0.6714944451866955  1.0000
  H   H23       1.0  0.11210203314694672  0.7744010032790174  0.13617762265251795  1.0000
  H   H24       1.0  0.6001917678370036  0.18758054672954225  0.48289809257631333  1.0000
  H   H25       1.0  0.4897023300873543  0.11359554317613883  0.40819751480274397  1.0000
  H   H26       1.0  0.5615596771951206  0.16680970908845444  0.3780226247710274  1.0000
  H   H27       1.0  0.49208598040011975  0.9775785938785333  0.3078798959946739  1.0000
  H   H28       1.0  0.7540243939009841  0.1715986467687216  0.7398047101933828  1.0000
  H   H29       1.0  0.25724367803185555  0.558219945758836  0.8626041235059746  1.0000
  H   H30       1.0  0.36772458109305023  0.6070545901343041  0.9446975135606906  1.0000
  H   H31       1.0  0.3239087604994423  0.6604360112317522  0.9022376114259387  1.0000
  H   H32       1.0  0.219126965084925  0.7332258111527494  0.9467920276964321  1.0000
  H   H33       1.0  0.1187384993116041  0.7231520989261995  0.8776953166775385  1.0000
  H   H34       1.0  0.8809633420852024  0.2861970667094269  0.37857197510285806  1.0000
  H   H35       1.0  0.21292989486394012  0.7534889190494454  0.8623030381782328  1.0000
  H   H36       1.0  0.9594725320229144  0.40940344376870297  0.799522510157587  1.0000
  H   H37       1.0  0.17121702275866815  0.4984234068066229  0.6092225743321791  1.0000
  H   H38       1.0  0.5668214542948108  0.9125544167654455  0.5560561152100477  1.0000
  H   H39       1.0  0.10353728760586019  0.14584026141823608  0.1863107392309189  1.0000
  H   H40       1.0  0.1062720978097644  0.030842168103227204  0.20059608889823724  1.0000
  C   C1        1.0  0.07031914134196175  0.33651108291002885  0.09008898354967698  1.0000
  C   C2        1.0  0.023744909600601716  0.4667461777908457  0.21308771242714644  1.0000
  C   C3        1.0  0.26428397935474374  0.730648550416788  0.20732414245360078  1.0000
  C   C4        1.0  0.0024692900101185578  0.47011106978407463  0.8202977022189301  1.0000
  C   C5        1.0  0.7790077249546244  0.4473493068153971  0.015672072724576904  1.0000
  C   C6        1.0  0.30138832680054867  0.7204136787356674  0.2770454540778858  1.0000
  C   C7        1.0  0.75675442716949  0.5066392094083271  0.015018632366185692  1.0000
  C   C8        1.0  0.9649814418431364  0.39816481289187783  0.2087809678477228  1.0000
  C   C9        1.0  0.9848514100672291  0.7561708490891945  0.04472730275702461  1.0000
  C   C10       1.0  0.3342353610931426  0.505958571938514  0.0009361508114195658  1.0000
  C   C11       1.0  0.4015611995984685  0.5040029230163086  0.0065915535904749745  1.0000
  C   C12       1.0  0.05701171455728391  0.5024180206006436  0.7905885066681082  1.0000
  C   C13       1.0  0.47643102617298894  0.5051570453728261  0.01414776080312655  1.0000
  C   C14       1.0  0.5463123228863793  0.5078645795073271  0.02101446854189256  1.0000
  C   C15       1.0  0.6206141017102028  0.5101004383919873  0.025039613505171737  1.0000
  C   C16       1.0  0.7953156393547403  0.28085104553800727  0.7863248766640395  1.0000
  C   C17       1.0  0.6872597918331068  0.5115155725778564  0.024156228778288387  1.0000
  C   C18       1.0  0.9445149765866534  0.3313049246498919  0.4297570749592622  1.0000
  C   C19       1.0  0.006817843000320108  0.37774407879560107  0.4141733205903932  1.0000
  C   C20       1.0  0.09083000210180356  0.4351207839196078  0.47985338486520135  1.0000
  C   C21       1.0  0.10819587067079087  0.4510346026727845  0.5589887461143306  1.0000
  C   C22       1.0  0.043985300700057864  0.40922654973433475  0.5753367834693606  1.0000
  C   C23       1.0  0.769093700775109  0.28920387744891224  0.7140574219143829  1.0000
  C   C24       1.0  0.9628214648851312  0.3455962837507087  0.5089769738283536  1.0000
  C   C25       1.0  0.9879968726145947  0.37477590030779584  0.3371693864687656  1.0000
  C   C26       1.0  0.05631181797844668  0.4352621601134529  0.6551436306010885  1.0000
  C   C27       1.0  0.06034109123714157  0.4650634940484864  0.7207568336343401  1.0000
  C   C28       1.0  0.2419126958349905  0.5728142861887234  0.99270630233314  1.0000
  C   C29       1.0  0.97459084688996  0.3826847318688706  0.27517280886716833  1.0000
  C   C30       1.0  0.6307801056763439  0.028437942841037494  0.5704331221949701  1.0000
  C   C31       1.0  0.6365934348827053  0.07856245004423804  0.5332573658991037  1.0000
  C   C32       1.0  0.5840708707923952  0.04424165308405042  0.4482154719479539  1.0000
  C   C33       1.0  0.5255768955347051  0.9649584171299495  0.4032285872399086  1.0000
  C   C34       1.0  0.2628260405457681  0.5142429626528795  0.0011047411792404962  1.0000
  C   C35       1.0  0.5169077203904422  0.9165785529289963  0.4417534671527931  1.0000
  C   C36       1.0  0.5726252457140433  0.9497070469183626  0.5260318497580272  1.0000
  C   C37       1.0  0.6889470702400757  0.15873445811097037  0.5841708149729143  1.0000
  C   C38       1.0  0.44835555412643663  0.8398715393748333  0.39417568779241213  1.0000
  C   C39       1.0  0.38049581375136626  0.7791196013378607  0.3451009759325529  1.0000
  C   C40       1.0  0.791210982372931  0.36788200383631414  0.742155940044178  1.0000
  C   C41       1.0  0.7266620480827157  0.22477441285168703  0.6386913618078935  1.0000
  C   C42       1.0  0.04564629983088511  0.025476585858392308  0.1590412099101286  1.0000
  C   C43       1.0  0.9704800276207521  0.9515943991216959  0.1097477046742129  1.0000
  C   C44       1.0  0.8913316668247759  0.9467140327252253  0.059700730994571016  1.0000
  C   C45       1.0  0.24073388957231148  0.6449326593170923  0.2555008117292061  1.0000
  C   C46       1.0  0.8900647484932521  0.010930862884507116  0.05136711088146482  1.0000
  C   C47       1.0  0.967755868279724  0.08284318622117577  0.09339851471482058  1.0000
  C   C48       1.0  0.044221985304964996  0.08970496539862441  0.1509976432265532  1.0000
  C   C49       1.0  0.975529776246134  0.8830592671640075  0.101096269806625  1.0000
  C   C50       1.0  0.9722264465992794  0.14479552688693081  0.07452493094505287  1.0000
  C   C51       1.0  0.9831930797780829  0.19687983187614583  0.05451610127723679  1.0000
  C   C52       1.0  0.20189499325543644  0.4741711139526715  0.021999885591540678  1.0000
  C   C53       1.0  0.9801388515676734  0.8235608378467488  0.07824371229259695  1.0000
  C   C54       1.0  0.09547620327330704  0.583634837347823  0.8393587155670446  1.0000
  C   C55       1.0  0.9498797591995826  0.26731452641261205  0.97045754370766  1.0000
  C   C56       1.0  0.8133096770650713  0.5501028234007778  0.9928202342375273  1.0000
  C   C57       1.0  0.9994786267342304  0.2606712774980124  0.03788736316187174  1.0000
  C   C58       1.0  0.7943609875860247  0.2532014924258945  0.12412159930367749  1.0000
  C   C59       1.0  0.8095413222449255  0.7181116899022015  0.9207807840360048  1.0000
  C   C60       1.0  0.823568183303628  0.2406590471873855  0.4647458479901303  1.0000
  C   C61       1.0  0.5577350230239305  0.14199766570945374  0.4199525782719605  1.0000
  C   C62       1.0  0.3089575845993906  0.6121679932920826  0.9175508410546627  1.0000
  C   C63       1.0  0.1767288607401482  0.717057070569595  0.8830938313629916  1.0000
  C   C64       1.0  0.904156376665206  0.3544394394523351  0.12423656880468308  1.0000
  C   C65       1.0  0.0531677756766271  0.7400594878222222  0.07749075283695817  1.0000
  C   C66       1.0  0.9274712908452545  0.6911098587509343  0.9662569806595444  1.0000
  N   N1        1.0  0.06211521123949382  0.3835000666444941  0.056597076826747625  1.0000
  N   N2        1.0  0.8304271704112409  0.34847472105136035  0.8510016304346594  1.0000
  N   N3        1.0  0.17634252705416031  0.5675458972386096  0.009138045075637587  1.0000
  N   N4        1.0  0.8272070738760889  0.4030163902932743  0.8232100881362285  1.0000
  N   N5        1.0  0.15150218424376052  0.5070440860346537  0.02741532179270218  1.0000
  N   N6        1.0  0.06624315760714686  0.5983243937379186  0.8924104535681039  1.0000
  N   N7        1.0  0.9871415743918561  0.34146812905757423  0.9823932933914962  1.0000
  N   N8        1.0  0.17444703959584737  0.6135097462471181  0.17998157357014585  1.0000
  N   N9        1.0  0.8631366019057012  0.5185115395129999  0.9809462518461559  1.0000
  N   N10       1.0  0.9261853089937232  0.3940366398888316  0.08511252464500531  1.0000
  N   N11       1.0  0.03768216790289363  0.6730854773767021  0.023577853690667977  1.0000
  N   N12       1.0  0.9597717324129106  0.6424143872688574  0.9542925107591386  1.0000
  N   N13       1.0  0.0016856902042406135  0.46471414910897835  0.13984474604021097  1.0000
  N   N14       1.0  0.18886063546376156  0.6673667638381601  0.14999271504226644  1.0000
  N   N15       1.0  0.8417428757603316  0.4547076439877741  0.9948083339339532  1.0000
  N   N16       1.0  0.006649507557206445  0.5267586241320714  0.8793523800719215  1.0000
  O   O1        1.0  0.8327941785489585  0.283943601455654  0.08035211127103277  1.0000
  O   O2        1.0  0.4731636134688203  0.9342986196778966  0.3209963815473672  1.0000
  O   O3        1.0  0.7862697340906236  0.21632955217680205  0.7941826576473046  1.0000
  O   O4        1.0  0.277803770038389  0.6302133769570375  0.9750935634706153  1.0000
  O   O5        1.0  0.15121814778868967  0.639041054833754  0.8312713481388626  1.0000
  O   O6        1.0  0.849411266056869  0.6706384770918633  0.9056833113161318  1.0000
  O   O7        1.0  0.09678219542121975  0.5280689942810213  0.2800378757294055  1.0000
  O   O8        1.0  0.2953417639632647  0.7931871635541654  0.19503676864655264  1.0000
  O   O9        1.0  0.743908256417413  0.3886947474158404  0.03237185309257034  1.0000
  O   O10       1.0  0.9057755957556279  0.3043758828162877  0.5293167411450596  1.0000
  O   O11       1.0  0.15461690437208378  0.47841084108915777  0.46650517845085904  1.0000
  O   O12       1.0  0.6842008355087899  0.06270632162793525  0.6535665452144457  1.0000
  O   O13       1.0  0.5871317769318055  0.08552094764839772  0.4037031815950201  1.0000
