data_image0
_chemical_formula_structural       Zn8H68C64N8O26
_chemical_formula_sum              "Zn8 H68 C64 N8 O26"
_cell_length_a       17.778000936342117
_cell_length_b       18.59746842098724
_cell_length_c       19.898979520586874
_cell_angle_alpha    61.787761771941476
_cell_angle_beta     64.75577207057931
_cell_angle_gamma    89.96995023516004

_space_group_name_H-M_alt    "P 1"
_space_group_IT_number       1

loop_
  _space_group_symop_operation_xyz
  'x, y, z'

loop_
  _atom_site_type_symbol
  _atom_site_label
  _atom_site_symmetry_multiplicity
  _atom_site_fract_x
  _atom_site_fract_y
  _atom_site_fract_z
  _atom_site_occupancy
  Zn  Zn1       1.0  0.12653664928605213  0.5404801692129554  0.9254179612918705  1.0000
  Zn  Zn2       1.0  0.9604071819733588  0.5490030645003616  0.06976393599705943  1.0000
  Zn  Zn3       1.0  0.9691580178779231  0.3828200817536853  0.06356606090579221  1.0000
  Zn  Zn4       1.0  0.9523665316465258  0.5446597002546482  0.9117121305809235  1.0000
  Zn  Zn5       1.0  0.37806285897480046  0.9712906765295769  0.0619252212021451  1.0000
  Zn  Zn6       1.0  0.5402546327518465  0.12592669368613946  0.9189176410960159  1.0000
  Zn  Zn7       1.0  0.5348907832216266  0.9594215134730458  0.9149356738610522  1.0000
  Zn  Zn8       1.0  0.5550903287448108  0.9642233136284303  0.06972560671587048  1.0000
  H   H1        1.0  0.22096913393082224  0.8357105897663715  0.30763477482987167  1.0000
  H   H2        1.0  0.29134009474653055  0.6488180688938384  0.677862925695024  1.0000
  H   H3        1.0  0.6684915191620104  0.28886418563575206  0.6707238627489363  1.0000
  H   H4        1.0  0.8553220179390592  0.2179259741596766  0.31508123507743596  1.0000
  H   H5        1.0  0.2119819993386685  0.3162888598958985  0.8849865332724747  1.0000
  H   H6        1.0  0.12918612460681075  0.23199326375160456  0.984504278169837  1.0000
  H   H7        1.0  0.22080982109693514  0.14206419883215174  0.9783878830512267  1.0000
  H   H8        1.0  0.30381243318164036  0.22751415609761935  0.8802185318091703  1.0000
  H   H9        1.0  0.2024166307381208  0.1110048625024049  0.1227309803628174  1.0000
  H   H10       1.0  0.2740956760872777  0.17168314047569316  0.12762659848689847  1.0000
  H   H11       1.0  0.1132568713557944  0.20357180929070037  0.1275260607388162  1.0000
  H   H12       1.0  0.18713655747983887  0.2651635849907663  0.1293430041725969  1.0000
  H   H13       1.0  0.31735282615199617  0.406617281354812  0.8868857606236562  1.0000
  H   H14       1.0  0.30656586008715425  0.3875049987601215  0.9861638000832613  1.0000
  H   H15       1.0  0.3952088961260143  0.294448509293808  0.9860310785574316  1.0000
  H   H16       1.0  0.40809357544735975  0.3156643949685501  0.8854668225429452  1.0000
  H   H17       1.0  0.903058920353459  0.8149202879541945  0.8790591053155339  1.0000
  H   H18       1.0  0.8869637987946744  0.7897908289032143  0.9825240190314234  1.0000
  H   H19       1.0  0.7973244307236838  0.8817636391643545  0.9840851050262887  1.0000
  H   H20       1.0  0.8131939926195528  0.9056438041368509  0.8809912052299894  1.0000
  H   H21       1.0  0.6768331204140239  0.7609788539489414  0.1209647437634445  1.0000
  H   H22       1.0  0.6055022258733231  0.699671263930945  0.1163991774388933  1.0000
  H   H23       1.0  0.7652890448245772  0.6677663493177519  0.1193094325628792  1.0000
  H   H24       1.0  0.6945281478290183  0.6081614182004029  0.1125155878745545  1.0000
  H   H25       1.0  0.8034214314653596  0.7284547311360113  0.8684411817604811  1.0000
  H   H26       1.0  0.7188330068451376  0.6432655871199912  0.9631489801293186  1.0000
  H   H27       1.0  0.6277581596684241  0.7336886039847172  0.9672757779050514  1.0000
  H   H28       1.0  0.7119898071695158  0.818477523283313  0.8718948760886323  1.0000
  H   H29       1.0  0.1706392528980841  0.8026567017077112  0.9200295094493995  1.0000
  H   H30       1.0  0.2601362596250496  0.7708309211748767  0.8679427665285218  1.0000
  H   H31       1.0  0.3504015259621839  0.8673817667002408  0.862250945046867  1.0000
  H   H32       1.0  0.26020804722757856  0.8977286078604009  0.9157242287075817  1.0000
  H   H33       1.0  0.399063649094792  0.7476262408343857  0.9492426014513811  1.0000
  H   H34       1.0  0.3451056714968104  0.6940392389110527  0.06397817703021501  1.0000
  H   H35       1.0  0.3073004579340404  0.6501455341695247  0.9568405841066436  1.0000
  H   H36       1.0  0.2526937659444286  0.598490733835675  0.0715011020482805  1.0000
  H   H37       1.0  0.0902744043888717  0.7263396447685152  0.0859795315344343  1.0000
  H   H38       1.0  0.12376751875595453  0.6426999455939962  0.14733573150250126  1.0000
  H   H39       1.0  0.21535499495243465  0.7379222652228419  0.1419460346534152  1.0000
  H   H40       1.0  0.18151408122935206  0.8214909519059859  0.0810109338148735  1.0000
  H   H41       1.0  0.9120661580032418  0.2812888663535275  0.9052214223245301  1.0000
  H   H42       1.0  0.8727322745249777  0.3626410417116261  0.8476088355422036  1.0000
  H   H43       1.0  0.7863974011912587  0.26315911672583064  0.8528297710418187  1.0000
  H   H44       1.0  0.8236847924531998  0.18196656325662972  0.913407752364627  1.0000
  H   H45       1.0  0.6571249851925741  0.30531496030049243  0.9302481264437931  1.0000
  H   H46       1.0  0.6011832976806629  0.25183096777139  0.0449219092412534  1.0000
  H   H47       1.0  0.7446266287281488  0.40233359338985497  0.9273355852610123  1.0000
  H   H48       1.0  0.689252605476973  0.34703689960586803  0.04208206671571452  1.0000
  H   H49       1.0  0.8330867723477978  0.2001251021393244  0.0712999070339464  1.0000
  H   H50       1.0  0.7435662080856104  0.22795497399160783  0.12758495719393176  1.0000
  H   H51       1.0  0.6522280262889665  0.13314249823356755  0.1323821113742127  1.0000
  H   H52       1.0  0.7416604522326083  0.1028123455213859  0.0792743261774405  1.0000
  H   H53       1.0  0.44768818835408536  0.7018325303427415  0.4832957717910206  1.0000
  H   H54       1.0  0.4244644612697498  0.699252099997338  0.5744002808157732  1.0000
  H   H55       1.0  0.4867803913216304  0.8726089395978389  0.2915975815606232  1.0000
  H   H56       1.0  0.46761446220671843  0.8255762711330874  0.40075800285656277  1.0000
  H   H57       1.0  0.06563262708397134  0.6907710796577787  0.5036575671588182  1.0000
  H   H58       1.0  0.08830854012799698  0.7786673202013787  0.4113760604871998  1.0000
  H   H59       1.0  0.026841134525000036  0.6760333279086124  0.6921089959076313  1.0000
  H   H60       1.0  0.04641782199031752  0.7363474993198834  0.5822844192767249  1.0000
  H   H61       1.0  0.8039898756196634  0.0662074314927068  0.5160480285641853  1.0000
  H   H62       1.0  0.8067819961136562  0.08721732861092588  0.4242550601078038  1.0000
  H   H63       1.0  0.6245453308134825  0.028630475840188227  0.6979019095393613  1.0000
  H   H64       1.0  0.6765118415704021  0.047383947655596434  0.5899294367696301  1.0000
  H   H65       1.0  0.8225544971663012  0.4379907170540847  0.47468803928650527  1.0000
  H   H66       1.0  0.7336349897714383  0.41875598453429314  0.5625940091298958  1.0000
  H   H67       1.0  0.8328870261403836  0.478644410819534  0.2847799847578614  1.0000
  H   H68       1.0  0.7746763705651316  0.46034755497602464  0.39231397495697007  1.0000
  C   C1        1.0  0.13773184074889142  0.633613191708413  0.0074800431488028975  1.0000
  C   C2        1.0  0.8785803008097516  0.38026080781681054  0.22999101618462706  1.0000
  C   C3        1.0  0.14552493042787518  0.36528685746534956  0.0011262352758408005  1.0000
  C   C4        1.0  0.8648216225005707  0.37118048922308566  0.9828780225509421  1.0000
  C   C5        1.0  0.1256178181051623  0.6243860656890519  0.7555118681239961  1.0000
  C   C6        1.0  0.8610203913304698  0.6449266432180776  0.9869067305791006  1.0000
  C   C7        1.0  0.3634129767259679  0.14477752042559888  0.9947423155027552  1.0000
  C   C8        1.0  0.608568549253796  0.127156859301074  0.7537794134737228  1.0000
  C   C9        1.0  0.35770012516932315  0.8633865383401369  0.995999916497759  1.0000
  C   C10       1.0  0.642545525837043  0.8665376948225971  0.9910983734339496  1.0000
  C   C11       1.0  0.3860626574974689  0.8895065045904005  0.22932867020931977  1.0000
  C   C12       1.0  0.6488736083154906  0.13980650340492662  0.9913976330971792  1.0000
  C   C13       1.0  0.36290704118234635  0.8109893243222854  0.3852186810584399  1.0000
  C   C14       1.0  0.24233010873250296  0.816165724396157  0.3560953760851859  1.0000
  C   C15       1.0  0.1828544207572022  0.7714007573055354  0.44306797682916255  1.0000
  C   C16       1.0  0.21099385534242276  0.7447979176173548  0.5071798747529642  1.0000
  C   C17       1.0  0.15020517213022075  0.7048097008965754  0.5994707340642834  1.0000
  C   C18       1.0  0.2702036497065023  0.6784844437881998  0.6292241624705497  1.0000
  C   C19       1.0  0.3299933821549814  0.7215820506036364  0.542264092559968  1.0000
  C   C20       1.0  0.3021465895917644  0.7592494821974682  0.4777588786948641  1.0000
  C   C21       1.0  0.33151762067541307  0.8388465172202472  0.3248524672037902  1.0000
  C   C22       1.0  0.18106145041179628  0.6704593842822674  0.660239272801576  1.0000
  C   C23       1.0  0.6904187639793374  0.14967747144060428  0.6017776177915267  1.0000
  C   C24       1.0  0.6878569358806033  0.26796827049156485  0.6243890946325834  1.0000
  C   C25       1.0  0.7359297280627004  0.3258949944342503  0.5368164504683933  1.0000
  C   C26       1.0  0.7618290323166403  0.298116753435437  0.4757538908414603  1.0000
  C   C27       1.0  0.8023250801138034  0.3574549516054831  0.3824779634452042  1.0000
  C   C28       1.0  0.8260670647372946  0.23896272953709288  0.360899186939335  1.0000
  C   C29       1.0  0.7832661260402957  0.18079744904882483  0.4487849038664394  1.0000
  C   C30       1.0  0.7452881039814371  0.20876041771664686  0.5092260617362286  1.0000
  C   C31       1.0  0.6618941509414356  0.18082727259077552  0.6587428342019663  1.0000
  C   C32       1.0  0.8343525290526157  0.3263953173578357  0.3255821212130173  1.0000
  C   C33       1.0  0.19663299974024523  0.2663261097585232  0.9512222002311149  1.0000
  C   C34       1.0  0.25716235483212546  0.2066385327031098  0.9480493438458596  1.0000
  C   C35       1.0  0.30633855087908995  0.2055294263603215  0.9965231220836374  1.0000
  C   C36       1.0  0.23984767902663146  0.17527918675475004  0.09173540001895471  1.0000
  C   C37       1.0  0.1811401135722903  0.23664012434988987  0.09383863713422612  1.0000
  C   C38       1.0  0.20601945721180928  0.30743481360240565  0.0001277761323948  1.0000
  C   C39       1.0  0.30008312492093836  0.3560523168959763  0.9533129023406985  1.0000
  C   C40       1.0  0.3594086761814664  0.2953399363188609  0.9523604531450616  1.0000
  C   C41       1.0  0.8534072553066279  0.7927663249278963  0.946308070108401  1.0000
  C   C42       1.0  0.793650883660632  0.8535104925931734  0.9476043597504715  1.0000
  C   C43       1.0  0.6994515204968077  0.8050749778860506  0.9904559329171294  1.0000
  C   C44       1.0  0.6730931227213333  0.7333376170630146  0.0841038713334186  1.0000
  C   C45       1.0  0.7321983653739822  0.6722580226033441  0.08234932658739783  1.0000
  C   C46       1.0  0.800369727341412  0.702942615797859  0.9875102439045663  1.0000
  C   C47       1.0  0.7549266633171496  0.7071076539161467  0.9357093206276588  1.0000
  C   C48       1.0  0.694723468462527  0.7671105035896132  0.9379724772090016  1.0000
  C   C49       1.0  0.22674630144667424  0.7796353787954685  0.9233224127568533  1.0000
  C   C50       1.0  0.2866370649725523  0.8431645907212442  0.919916547411006  1.0000
  C   C51       1.0  0.2969781557717042  0.7996771569657851  0.0026569704772683002  1.0000
  C   C52       1.0  0.33527549459037687  0.724124033843566  0.006649947680372699  1.0000
  C   C53       1.0  0.27442404714842883  0.660341840910526  0.011261546815234199  1.0000
  C   C54       1.0  0.19517203616472048  0.6930368945373997  0.008828168907193401  1.0000
  C   C55       1.0  0.1474561607879039  0.7044514556122222  0.0867217500959896  1.0000
  C   C56       1.0  0.20794567500850994  0.767514616576932  0.08322214424166667  1.0000
  C   C57       1.0  0.8530802311488725  0.30046955097407857  0.9068362922559673  1.0000
  C   C58       1.0  0.7947661979168  0.23492987373185759  0.9108988724891064  1.0000
  C   C59       1.0  0.7052056600524564  0.20038124660398163  0.9926492288813622  1.0000
  C   C60       1.0  0.6657334702336682  0.2756349087349079  0.9881308961597384  1.0000
  C   C61       1.0  0.7241652027354346  0.3395559399968632  0.9858847841587065  1.0000
  C   C62       1.0  0.8042565790940515  0.308868964068786  0.9874155477344929  1.0000
  C   C63       1.0  0.7758012630699512  0.22152809309315552  0.07042423456772441  1.0000
  C   C64       1.0  0.7158593110929912  0.1577313032878251  0.0743480398600056  1.0000
  N   N1        1.0  0.4188028364141586  0.7284411164546112  0.5192857082689315  1.0000
  N   N2        1.0  0.4486426574536749  0.8327769545127025  0.3568870957698991  1.0000
  N   N3        1.0  0.09401903134276071  0.753937268809466  0.4663937275776888  1.0000
  N   N4        1.0  0.06501159877492313  0.7007971745848849  0.627062195477663  1.0000
  N   N5        1.0  0.7768220707092863  0.09355803447345318  0.47697072142902647  1.0000
  N   N6        1.0  0.6659338478448686  0.06607249287490184  0.6329864323295028  1.0000
  N   N7        1.0  0.7576682414746185  0.4127607205005786  0.5094694382247982  1.0000
  N   N8        1.0  0.8085141266989382  0.4413185837833636  0.3503952687597476  1.0000
  O   O1        1.0  0.0008005352546049774  0.5058664616381988  0.9913326334841841  1.0000
  O   O2        1.0  0.17476496516846385  0.6141939253439331  0.9497600225879596  1.0000
  O   O3        1.0  0.888755316436587  0.461137087415615  0.19361174788987512  1.0000
  O   O4        1.0  0.06521865600660698  0.329580340481293  0.048502862245975116  1.0000
  O   O5        1.0  0.05773094426666599  0.6092399146382518  0.062013677043545115  1.0000
  O   O6        1.0  0.1789150437614706  0.44451218125745123  0.9537076924734225  1.0000
  O   O7        1.0  0.9054336669080456  0.3430693407790528  0.18719778497514744  1.0000
  O   O8        1.0  0.8986029676317598  0.3388493101816366  0.031898844859853205  1.0000
  O   O9        1.0  0.043068572465926956  0.6142365745830815  0.7882307759694029  1.0000
  O   O10       1.0  0.8787204247387235  0.4499682100079877  0.92992805725347  1.0000
  O   O11       1.0  0.163465918014694  0.5956508985110175  0.8015878267146874  1.0000
  O   O12       1.0  0.8923887844829962  0.6292640057557009  0.0380073483888452  1.0000
  O   O13       1.0  0.8766144272927221  0.6174003001185396  0.9357876209870001  1.0000
  O   O14       1.0  0.5035172212298132  0.0030113468059339774  0.9928364827085191  1.0000
  O   O15       1.0  0.32572190443515575  0.0670038160149034  0.03470225425051151  1.0000
  O   O16       1.0  0.5847751757112221  0.16468702178166691  0.7965199330843121  1.0000
  O   O17       1.0  0.43686671445860964  0.8838948868420142  0.9397293587485295  1.0000
  O   O18       1.0  0.4443352107524701  0.17578330160829841  0.9533540296235756  1.0000
  O   O19       1.0  0.32514711829732335  0.8922463968469997  0.045906679988299004  1.0000
  O   O20       1.0  0.5885531852134133  0.04598476189971018  0.7900167312323775  1.0000
  O   O21       1.0  0.6167152113352329  0.892104717347294  0.9349158433729345  1.0000
  O   O22       1.0  0.4689790526864283  0.9066452159393917  0.19529873570037645  1.0000
  O   O23       1.0  0.6265310784035093  0.888592577780528  0.0467464683090739  1.0000
  O   O24       1.0  0.3465946932443271  0.9135977907946395  0.18463318942207252  1.0000
  O   O25       1.0  0.6291527149112351  0.17303932603768857  0.9304634906196156  1.0000
  O   O26       1.0  0.6264715761869013  0.0616372945383787  0.0494043702480909  1.0000
