data_image0
_chemical_formula_structural       Zn8H48C80N8O26
_chemical_formula_sum              "Zn8 H48 C80 N8 O26"
_cell_length_a       23.83820915950552
_cell_length_b       23.839051113969358
_cell_length_c       23.837895480139547
_cell_angle_alpha    66.98528193243837
_cell_angle_beta     72.27567874528599
_cell_angle_gamma    107.73298334645153

_space_group_name_H-M_alt    "P 1"
_space_group_IT_number       1

loop_
  _space_group_symop_operation_xyz
  'x, y, z'

loop_
  _atom_site_type_symbol
  _atom_site_label
  _atom_site_symmetry_multiplicity
  _atom_site_fract_x
  _atom_site_fract_y
  _atom_site_fract_z
  _atom_site_occupancy
  Zn  Zn1       1.0  0.056986922617831205  0.9572331318771106  0.4866233611739547  1.0000
  Zn  Zn2       1.0  0.05699399951954121  0.09975397904411662  0.4563898987461741  1.0000
  Zn  Zn3       1.0  0.9429940304063746  0.9866066940706446  0.4572320786160732  1.0000
  Zn  Zn4       1.0  0.9429970193226533  0.9563782100235084  0.599767645988628  1.0000
  Zn  Zn5       1.0  0.9438514209998627  0.543609387626866  0.013386772851205812  1.0000
  Zn  Zn6       1.0  0.0561525035871141  0.513384418417388  0.04362179151813459  1.0000
  Zn  Zn7       1.0  0.9438454486644968  0.4002388185503988  0.04276880734209251  1.0000
  Zn  Zn8       1.0  0.05613777792985532  0.5427613317189426  0.9002451627048487  1.0000
  H   H1        1.0  0.9231593374396353  0.6512619842408115  0.11336880926360501  1.0000
  H   H2        1.0  0.9229510989482247  0.7144082749592613  0.17600365647879795  1.0000
  H   H3        1.0  0.07706084457610972  0.6760135500189506  0.21442508441526092  1.0000
  H   H4        1.0  0.0768443794337087  0.6133612112161586  0.15129567913831482  1.0000
  H   H5        1.0  0.924348116553389  0.8263049802733561  0.28439237350041696  1.0000
  H   H6        1.0  0.9249611640080031  0.889428795614144  0.3470923477154175  1.0000
  H   H7        1.0  0.07502661943276204  0.847096894891507  0.3894602688621093  1.0000
  H   H8        1.0  0.0756288772753349  0.7843652824457832  0.326362468920941  1.0000
  H   H9        1.0  0.07684589956632229  0.4634738565869512  0.77189016043085  1.0000
  H   H10       1.0  0.07706923540205673  0.4010488312580236  0.708532941459346  1.0000
  H   H11       1.0  0.9229412882058197  0.20852223406106418  0.9010469543402878  1.0000
  H   H12       1.0  0.9231503041292157  0.2718697159215824  0.9634803271358123  1.0000
  H   H13       1.0  0.0756448932604954  0.2912564533291402  0.5980279720169649  1.0000
  H   H14       1.0  0.07503716937426214  0.22793386563036222  0.5355236807127782  1.0000
  H   H15       1.0  0.9249622325736907  0.03551420489979782  0.7279375581215177  1.0000
  H   H16       1.0  0.9243539680209948  0.09802225115308981  0.7912589093315318  1.0000
  H   H17       1.0  0.7365437737182885  0.46447340966232536  0.1105675604354205  1.0000
  H   H18       1.0  0.6107152429585979  0.40197244379697855  0.17366820051667278  1.0000
  H   H19       1.0  0.6107048456210221  0.20874006100265072  0.21561304565997827  1.0000
  H   H20       1.0  0.7365325505859416  0.2720544889237433  0.15290846408097986  1.0000
  H   H21       1.0  0.390427767838183  0.2914601533077388  0.28557504605434764  1.0000
  H   H22       1.0  0.26464769052779497  0.22812057461520405  0.34871596694133444  1.0000
  H   H23       1.0  0.264624205865303  0.0365138501613629  0.38662465944869945  1.0000
  H   H24       1.0  0.3904069698970645  0.09893690876693043  0.323972095247683  1.0000
  H   H25       1.0  0.263459518887764  0.6105566753877909  0.9644782935975938  1.0000
  H   H26       1.0  0.3892854723955494  0.6736605711669769  0.901969872425923  1.0000
  H   H27       1.0  0.38927276686943896  0.7156032304636922  0.7087434474850268  1.0000
  H   H28       1.0  0.26344590108070054  0.6529030282912132  0.7720666521921589  1.0000
  H   H29       1.0  0.609574976049984  0.78557651287894  0.7914649389260404  1.0000
  H   H30       1.0  0.7353560237305385  0.8487212677174013  0.7281142304477444  1.0000
  H   H31       1.0  0.7353454051148773  0.8866140069689694  0.536523688470183  1.0000
  H   H32       1.0  0.6095624171976507  0.823960518293994  0.5989476874215499  1.0000
  H   H33       1.0  0.9164798869206052  0.8420610743079493  0.749713496932152  1.0000
  H   H34       1.0  0.909347852415294  0.8030236357459585  0.8311372569045973  1.0000
  H   H35       1.0  0.09174950859814847  0.6661645072965213  0.7502937335762782  1.0000
  H   H36       1.0  0.13415609252699998  0.7404719816814163  0.6688782517081935  1.0000
  H   H37       1.0  0.908218847075318  0.6579342268465568  0.925585672289671  1.0000
  H   H38       1.0  0.8658317734443627  0.6969675394479536  0.8936751928924097  1.0000
  H   H39       1.0  0.08354968248485034  0.8338304323847436  0.5744136036530848  1.0000
  H   H40       1.0  0.09065746860640894  0.7595249648753679  0.6063218508308454  1.0000
  H   H41       1.0  0.9164476760602297  0.07440894939546899  0.3338018821458347  1.0000
  H   H42       1.0  0.9093360323995086  0.10632360303507947  0.25949456345540517  1.0000
  H   H43       1.0  0.09178210148437657  0.42558108129250627  0.15796862064941317  1.0000
  H   H44       1.0  0.13416555587883744  0.39366452213350556  0.1970105782990714  1.0000
  H   H45       1.0  0.9082392637472196  0.250304286931261  0.16616434953675707  1.0000
  H   H46       1.0  0.8658428651504121  0.16887727142177766  0.24045500873198486  1.0000
  H   H47       1.0  0.08351935083923219  0.2496842514749105  0.34207477742683773  1.0000
  H   H48       1.0  0.09064307822402637  0.3311066090311954  0.30305861360947267  1.0000
  C   C1        1.0  0.18227446055008295  0.09114052222463441  0.4088559976398686  1.0000
  C   C2        1.0  0.9999833970216015  0.1393740067961391  0.36060394836409415  1.0000
  C   C3        1.0  0.9999872625633014  0.9093738254926649  0.40938348333615004  1.0000
  C   C4        1.0  0.8177119261545229  0.9088427800251323  0.5911446644721255  1.0000
  C   C5        1.0  1.8525963476168893e-05  0.8606170088336854  0.6393914854079981  1.0000
  C   C6        1.0  2.2760776303941715e-06  0.09061628142129757  0.59062025911021  1.0000
  C   C7        1.0  1.1767195930165194e-07  0.5911256873777617  0.09115529606989982  1.0000
  C   C8        1.0  1.4181413291698428e-05  0.3606142303896078  0.13939920367477754  1.0000
  C   C9        1.0  0.8187566940524673  0.40937440467699554  0.0906248787166249  1.0000
  C   C10       1.0  0.9999986528497473  0.4088523645803904  0.9088685886758865  1.0000
  C   C11       1.0  0.9999804692274806  0.6393747546653972  0.8606097218766136  1.0000
  C   C12       1.0  0.18124064657160227  0.5906266395221849  0.9093831036661301  1.0000
  C   C13       1.0  1.8420794113232488e-05  0.8045697801027956  0.6954388116386881  1.0000
  C   C14       1.0  0.9999840566597551  0.6954265040119693  0.8045612398817852  1.0000
  C   C15       1.0  0.9567962701871476  0.7774109425928729  0.7668157927100125  1.0000
  C   C16       1.0  0.0442205339053669  0.7236022905775668  0.7331785507478376  1.0000
  C   C17       1.0  0.9557702257294094  0.7225955588882869  0.8206142344786188  1.0000
  C   C18       1.0  0.043226278660810476  0.7763978358218607  0.6793834629555208  1.0000
  C   C19       1.0  0.999990951386877  0.19542972477226078  0.3045560586496451  1.0000
  C   C20       1.0  9.84443928329816e-06  0.3045585857024946  0.19543937666999517  1.0000
  C   C21       1.0  0.9567795836306345  0.17937631194698891  0.27638008610345816  1.0000
  C   C22       1.0  0.044230974760473885  0.3206127347546186  0.22260737836624864  1.0000
  C   C23       1.0  0.9557788729619074  0.23317707369515975  0.22359618583325175  1.0000
  C   C24       1.0  0.0432112786942724  0.26680962606418746  0.27740992910366913  1.0000
  C   C25       1.0  1.0861974082824422e-05  0.62865026460441  0.12865580166305088  1.0000
  C   C26       1.0  0.956570377023787  0.6571052683235409  0.13572890028840612  1.0000
  C   C27       1.0  0.9564813570799016  0.6921139408433276  0.1705260335494857  1.0000
  C   C28       1.0  1.0234874444674948e-05  0.6993853203578907  0.19938313921154108  1.0000
  C   C29       1.0  0.04353079270141063  0.6705267562526415  0.19212578001969408  1.0000
  C   C30       1.0  0.04344552176303991  0.6357290242116135  0.15711692367329294  1.0000
  C   C31       1.0  4.2059433992000965e-07  0.7349271460945418  0.23494879591792986  1.0000
  C   C32       1.0  0.9999854662005419  0.7656335947512221  0.2656849161354345  1.0000
  C   C33       1.0  0.999979597888135  0.8011850594677765  0.3012376153075923  1.0000
  C   C34       1.0  0.9572980371228823  0.8311000232361752  0.30741189941400654  1.0000
  C   C35       1.0  0.9575754030484301  0.866101775422649  0.3422021431832153  1.0000
  C   C36       1.0  0.9999878938022917  0.8719002617331385  0.3719113227795036  1.0000
  C   C37       1.0  0.04240140819861412  0.8421905136871073  0.3661368495559359  1.0000
  C   C38       1.0  0.04267176806658313  0.8073793627349843  0.33115586677601533  1.0000
  C   C39       1.0  0.9999965908446101  0.3713353929634809  0.8713568417294155  1.0000
  C   C40       1.0  0.04343540505389851  0.4076978930565005  0.7994590522259913  1.0000
  C   C41       1.0  0.043533595203697886  0.3729922824140601  0.7643616825375972  1.0000
  C   C42       1.0  2.7496672813115005e-06  0.3006115559397812  0.8006165392224672  1.0000
  C   C43       1.0  0.9564782415459089  0.26435153112641535  0.8729925211794696  1.0000
  C   C44       1.0  0.956560936177702  0.2994421577951059  0.9077078628397999  1.0000
  C   C45       1.0  5.75118853867102e-07  0.26505983675431816  0.7650558920886112  1.0000
  C   C46       1.0  1.535058324015246e-06  0.234335811140653  0.7343411598224494  1.0000
  C   C47       1.0  0.9999966294312869  0.1987876322884718  0.6987872442653041  1.0000
  C   C48       1.0  0.04267474187827241  0.23528983731260666  0.6261918511018507  1.0000
  C   C49       1.0  0.042413208254771476  0.20021612423138177  0.5914754410652349  1.0000
  C   C50       1.0  1.644705683570542e-06  0.1280898605261882  0.6280982866920369  1.0000
  C   C51       1.0  0.957587183481479  0.0914674009151498  0.7002226171313595  1.0000
  C   C52       1.0  0.9573220983422173  0.12619034345588187  0.735291639101348  1.0000
  C   C53       1.0  0.7438088529925292  0.37190135826821796  0.12809992809189924  1.0000
  C   C54       1.0  0.708311796400011  0.4085267820098155  0.13388636703232493  1.0000
  C   C55       1.0  0.6385223531483247  0.3738138884505419  0.16886376198323205  1.0000
  C   C56       1.0  0.6024253481693904  0.30121271074171574  0.1987798320630247  1.0000
  C   C57       1.0  0.6385164007693689  0.2647090952922115  0.19260424109180008  1.0000
  C   C58       1.0  0.7083096558579454  0.2997797892459388  0.15780591785810574  1.0000
  C   C59       1.0  0.5313166594114662  0.26565737685908886  0.23432712041861947  1.0000
  C   C60       1.0  0.46987391415498075  0.23493650192447998  0.26504247517889473  1.0000
  C   C61       1.0  0.39875881191223067  0.19937531275003553  0.3006040792246054  1.0000
  C   C62       1.0  0.3626389885149308  0.23563072575866792  0.30787265957625454  1.0000
  C   C63       1.0  0.29283347338720483  0.20053584760060522  0.34288766906931295  1.0000
  C   C64       1.0  0.2572995199819061  0.1286469393465097  0.37133685413602535  1.0000
  C   C65       1.0  0.2928324056582525  0.09228666041641993  0.36425691091785956  1.0000
  C   C66       1.0  0.36263647537461446  0.12699174939172753  0.3294602119775618  1.0000
  C   C67       1.0  0.2561838814950334  0.6280945591470868  0.8719081112874889  1.0000
  C   C68       1.0  0.29168173538913306  0.6338824337522125  0.9085333865213913  1.0000
  C   C69       1.0  0.3614728389080141  0.6688611117173124  0.873813428111724  1.0000
  C   C70       1.0  0.397572365633124  0.6987746023867275  0.8012103637473801  1.0000
  C   C71       1.0  0.36146548078627205  0.6926050039786987  0.7647093239933371  1.0000
  C   C72       1.0  0.29167379762193235  0.6578021430418844  0.799785699598452  1.0000
  C   C73       1.0  0.4686769104070051  0.7343195319874526  0.7656583553536508  1.0000
  C   C74       1.0  0.5301184879365832  0.7650407883401229  0.7349381707878421  1.0000
  C   C75       1.0  0.6012263832139907  0.8005932243333475  0.6993826140536542  1.0000
  C   C76       1.0  0.6373543558673446  0.8078714054793678  0.7356380980977022  1.0000
  C   C77       1.0  0.7071606780697549  0.8428903367765204  0.7005398609973954  1.0000
  C   C78       1.0  0.7426871972677346  0.871334053644482  0.6286499331932447  1.0000
  C   C79       1.0  0.7071489040464483  0.8642449262845987  0.5922914348044941  1.0000
  C   C80       1.0  0.6373436120841587  0.8294472621110741  0.6269969580359602  1.0000
  N   N1        1.0  0.9120004744086424  0.8000136654330416  0.7890345868899404  1.0000
  N   N2        1.0  0.08903801526557215  0.7010191846897981  0.7109647625111678  1.0000
  N   N3        1.0  0.9109436534066901  0.699983033534906  0.8880169782080569  1.0000
  N   N4        1.0  0.08802179850989929  0.798978790379543  0.6119819962566667  1.0000
  N   N5        1.0  0.9119743186160321  0.11197906897978532  0.29895261164419656  1.0000
  N   N6        1.0  0.08905582979818398  0.3880092130658781  0.20001578752467003  1.0000
  N   N7        1.0  0.9109587010229842  0.21097183554852  0.20100524077391663  1.0000
  N   N8        1.0  0.08800284793422006  0.289016533174987  0.3000294490744723  1.0000
  O   O1        1.0  0.9999884190705753  0.9999938770657549  0.5000010460906169  1.0000
  O   O2        1.0  0.15309210226351405  0.02635059254631503  0.43081067880824964  1.0000
  O   O3        1.0  0.04354850459892386  0.15555600415829218  0.38079358763266674  1.0000
  O   O4        1.0  0.9628843357523207  0.9384199920749126  0.409444710550794  1.0000
  O   O5        1.0  0.15310358075200978  0.1267571749718499  0.41608657130973375  1.0000
  O   O6        1.0  0.03708374033397603  0.9094503768214962  0.43844142631098765  1.0000
  O   O7        1.0  0.9564076136771219  0.07562536263762366  0.38797813371404277  1.0000
  O   O8        1.0  0.8468866991044948  0.9308085183885169  0.5263508177907922  1.0000
  O   O9        1.0  0.9564447077032052  0.880789163303305  0.6555804071425231  1.0000
  O   O10       1.0  0.846887219151604  0.9160596711174095  0.6267643845088035  1.0000
  O   O11       1.0  0.0435976866403321  0.8880072264698881  0.5756453935958136  1.0000
  O   O12       1.0  0.037109613922815796  0.1276518759412113  0.5244681099982104  1.0000
  O   O13       1.0  0.9628953283839008  0.02446492800609689  0.6276540174305297  1.0000
  O   O14       1.0  1.7251080847226583e-06  0.4999988488909324  7.750456134755784e-06  1.0000
  O   O15       1.0  0.9571629620062435  0.5839051154215368  0.06919724543176643  1.0000
  O   O16       1.0  0.0363932226350769  0.4243634898199318  0.11922194851707961  1.0000
  O   O17       1.0  0.8478728356019757  0.3723411600349494  0.0905549358513582  1.0000
  O   O18       1.0  0.04283681684658779  0.5691680790214305  0.08394685614979387  1.0000
  O   O19       1.0  0.8478786456381326  0.47552580500203606  0.061567844038826494  1.0000
  O   O20       1.0  0.9636378833220716  0.3444341136261287  0.11201867340761143  1.0000
  O   O21       1.0  0.9571578175470632  0.37323415164671286  0.9736594422841164  1.0000
  O   O22       1.0  0.036339579779294626  0.6119860876275566  0.8444210994028724  1.0000
  O   O23       1.0  0.042832846435480625  0.47364478893949513  0.8732509676811732  1.0000
  O   O24       1.0  0.9636155314940279  0.6192016125445152  0.9243579571157737  1.0000
  O   O25       1.0  0.15212469892350805  0.561572813428036  0.9755354304580096  1.0000
  O   O26       1.0  0.15210816481444306  0.5905514644466692  0.8723622175950254  1.0000
