data_image0
_chemical_formula_structural       Zn2H26C40N12O8
_chemical_formula_sum              "Zn2 H26 C40 N12 O8"
_cell_length_a       10.258778783632845
_cell_length_b       9.938037199960187
_cell_length_c       11.105331076004706
_cell_angle_alpha    76.87854218078384
_cell_angle_beta     63.83394013644114
_cell_angle_gamma    60.306403242169544

_space_group_name_H-M_alt    "P 1"
_space_group_IT_number       1

loop_
  _space_group_symop_operation_xyz
  'x, y, z'

loop_
  _atom_site_type_symbol
  _atom_site_label
  _atom_site_symmetry_multiplicity
  _atom_site_fract_x
  _atom_site_fract_y
  _atom_site_fract_z
  _atom_site_occupancy
  Zn  Zn1       1.0  0.0585378958089393  0.07603942202749892  0.2761428317314483  1.0000
  Zn  Zn2       1.0  0.9414522467296748  0.9239678625692137  0.7238559589551559  1.0000
  H   H1        1.0  0.74107384937475  0.1677596422631495  0.5633378109556589  1.0000
  H   H2        1.0  0.2589174080944901  0.8322477982531282  0.4366569164810414  1.0000
  H   H3        1.0  0.9428108413463506  0.4550468580987611  0.2965841047546508  1.0000
  H   H4        1.0  0.057187450135039224  0.544956966014965  0.7034139176260229  1.0000
  H   H5        1.0  0.6813855430756562  0.6301540798057345  0.5145930595711123  1.0000
  H   H6        1.0  0.318615371899007  0.3698532735461129  0.48540334613974784  1.0000
  H   H7        1.0  0.11303391907297555  0.7655071808885553  0.13775750599529607  1.0000
  H   H8        1.0  0.8869620706634154  0.23450109692073093  0.862245157454936  1.0000
  H   H9        1.0  0.43213734280442395  0.9443593709070797  0.0758444107610928  1.0000
  H   H10       1.0  0.5678619695384626  0.055636662373856886  0.924175266259667  1.0000
  H   H11       1.0  0.5706081664772283  0.7468013593221201  0.865085939132982  1.0000
  H   H12       1.0  0.42940259473481046  0.25319150380115474  0.13492533310873261  1.0000
  H   H13       1.0  0.18163022640129614  0.3349191090954733  0.14417560950892755  1.0000
  H   H14       1.0  0.8183671521926498  0.6650777834067798  0.8558221423862021  1.0000
  H   H15       1.0  0.06837814752412898  0.0973569773831429  0.9662780437238115  1.0000
  H   H16       1.0  0.931624590368543  0.9026398430366315  0.03372124764939595  1.0000
  H   H17       1.0  0.2232583675535196  0.254308622922352  0.7655340365644038  1.0000
  H   H18       1.0  0.7767542388608534  0.7456813701277695  0.23446168869219972  1.0000
  H   H19       1.0  0.5849784122428832  0.6237962667548588  0.7337378056876389  1.0000
  H   H20       1.0  0.4150214776311145  0.37620623611607584  0.26626432739273304  1.0000
  H   H21       1.0  0.17505805870784025  0.5651041371888469  0.046346461415659235  1.0000
  H   H22       1.0  0.8249495282012305  0.4348889324226376  0.9536596981247458  1.0000
  H   H23       1.0  0.4644150091449787  0.282164492048409  0.6936092278715622  1.0000
  H   H24       1.0  0.535579995820214  0.7178416196841014  0.3063896796628782  1.0000
  H   H25       1.0  0.5743350591880301  0.0904869099917676  0.2657917643088867  1.0000
  H   H26       1.0  0.4256825189102995  0.9094804823367114  0.7341896539589713  1.0000
  C   C1        1.0  0.757718219436299  0.27007069304865183  0.5157830692913308  1.0000
  C   C2        1.0  0.24227297512229742  0.7299415484890092  0.4842072620598046  1.0000
  C   C3        1.0  0.8601226445510692  0.4218548042406881  0.3831300065249226  1.0000
  C   C4        1.0  0.13987939886334996  0.5781502335466797  0.6168663552894529  1.0000
  C   C5        1.0  0.7312189286662799  0.5104559226788085  0.4899499857245361  1.0000
  C   C6        1.0  0.2687749612693367  0.4895550825622692  0.5100422143870277  1.0000
  C   C7        1.0  0.2190557366122903  0.7859496843727103  0.093885087677549  1.0000
  C   C8        1.0  0.7809407993977829  0.21405736468097566  0.9061193751350772  1.0000
  C   C9        1.0  0.3871599220006913  0.877225527837247  0.055630538105034995  1.0000
  C   C10       1.0  0.6128422339238  0.12276228053512746  0.9443921378726046  1.0000
  C   C11       1.0  0.4568633047586132  0.779376842657257  0.9522645360012305  1.0000
  C   C12       1.0  0.5431365806783077  0.22062311775626856  0.047743437743186096  1.0000
  C   C13       1.0  0.16183582709605565  0.3005939291257249  0.06986113877942299  1.0000
  C   C14       1.0  0.8381663240945159  0.6994064850736664  0.9301350658439276  1.0000
  C   C15       1.0  0.10912300703295585  0.17575681722658493  0.9740272792226964  1.0000
  C   C16       1.0  0.8908812798507881  0.8242410114877288  0.025975746118056867  1.0000
  C   C17       1.0  0.18684004218816605  0.25178302851910667  0.8731950924198699  1.0000
  C   C18       1.0  0.813162104565329  0.7482148432228686  0.12680695286753266  1.0000
  C   C19       1.0  0.5326459243078006  0.4542299291729465  0.699481898051815  1.0000
  C   C20       1.0  0.4673479388074638  0.5457759201799491  0.3005238046984715  1.0000
  C   C21       1.0  0.5042863806001421  0.5692188467824195  0.7734639718347013  1.0000
  C   C22       1.0  0.4957063674855463  0.4307918960790503  0.22653502349271554  1.0000
  C   C23       1.0  0.37522443895642255  0.6090466986252211  0.8986230098797847  1.0000
  C   C24       1.0  0.6247793016536461  0.3909523588447002  0.10137821609858833  1.0000
  C   C25       1.0  0.27585721457385387  0.5350607000166719  0.9491205950237572  1.0000
  C   C26       1.0  0.7241481917765425  0.4649347776464836  0.0508832970758276  1.0000
  C   C27       1.0  0.3093094843235988  0.41816567797995663  0.874694148614914  1.0000
  C   C28       1.0  0.6906844416033735  0.5818404197796953  0.12530517954816384  1.0000
  C   C29       1.0  0.4363816998920455  0.3767841478117333  0.7489203955485806  1.0000
  C   C30       1.0  0.5636111380235961  0.623221900488396  0.2510802638984445  1.0000
  C   C31       1.0  0.27595242026189476  0.12497543553595854  0.36128161891866745  1.0000
  C   C32       1.0  0.7240438792938236  0.875021442993443  0.6387165536050999  1.0000
  C   C33       1.0  0.3844552883356371  0.05741756787332971  0.4399435692341245  1.0000
  C   C34       1.0  0.6155515427647131  0.9425666664295206  0.5600517686890925  1.0000
  C   C35       1.0  0.34429288356344057  0.0038207343100538026  0.5744178573304026  1.0000
  C   C36       1.0  0.6557094248048047  0.99617272676403  0.42557856683408374  1.0000
  C   C37       1.0  0.1870732181711289  0.9935150735371963  0.6632023428786057  1.0000
  C   C38       1.0  0.8129273077075396  0.006486555444943991  0.3367924830109958  1.0000
  C   C39       1.0  0.538932712034999  0.05144520076883201  0.36998003621077663  1.0000
  C   C40       1.0  0.46108147630700114  0.948526595795677  0.6300073544105944  1.0000
  N   N1        1.0  0.8757129755568586  0.27306112836792107  0.40013083226304513  1.0000
  N   N2        1.0  0.12428040853350802  0.7269487406047548  0.5998608558735938  1.0000
  N   N3        1.0  0.6658040537267951  0.4132175574724998  0.5738033060131046  1.0000
  N   N4        1.0  0.33418650482712314  0.5867955579539554  0.4261943325288017  1.0000
  N   N5        1.0  0.23928359673060123  0.8806089605645869  0.1427238239101953  1.0000
  N   N6        1.0  0.7607097875576656  0.11939080955179546  0.8572894055719973  1.0000
  N   N7        1.0  0.3493320286338245  0.7204142258235182  0.9773007061391611  1.0000
  N   N8        1.0  0.6506739779277951  0.27957518657597547  0.0227102920636924  1.0000
  N   N9        1.0  0.09431625730969269  0.20758291656582634  0.09555095111140591  1.0000
  N   N10       1.0  0.905684684683223  0.7924194938179171  0.9044534933062777  1.0000
  N   N11       1.0  0.21900665619201473  0.3322142912328801  0.9353084659609863  1.0000
  N   N12       1.0  0.7810015667217344  0.6677779044898103  0.06469038638864806  1.0000
  O   O1        1.0  0.23476367766538425  0.2649558184925099  0.3257495052485453  1.0000
  O   O2        1.0  0.7652494480044114  0.7350378887701154  0.6742399806636216  1.0000
  O   O3        1.0  0.24813485158309595  0.029967389031760695  0.32666423261351707  1.0000
  O   O4        1.0  0.7518553762494524  0.9700377079743419  0.6733312921839669  1.0000
  O   O5        1.0  0.1711506370056169  0.9357440280497689  0.7792289960539807  1.0000
  O   O6        1.0  0.8288468747035936  0.06427020102215408  0.22076936265697364  1.0000
  O   O7        1.0  0.07997919267181432  0.03907063339076441  0.6126462135948288  1.0000
  O   O8        1.0  0.9200158347756042  0.9609330423443726  0.3873558026377071  1.0000
