data_image0
_chemical_formula_structural       Sm2H18C18N2O22
_chemical_formula_sum              "Sm2 H18 C18 N2 O22"
_cell_length_a       7.729698079681803
_cell_length_b       8.073099171948273
_cell_length_c       10.592079759155494
_cell_angle_alpha    103.74931981543082
_cell_angle_beta     99.62764889134627
_cell_angle_gamma    93.21935269562357

_space_group_name_H-M_alt    "P 1"
_space_group_IT_number       1

loop_
  _space_group_symop_operation_xyz
  'x, y, z'

loop_
  _atom_site_type_symbol
  _atom_site_label
  _atom_site_symmetry_multiplicity
  _atom_site_fract_x
  _atom_site_fract_y
  _atom_site_fract_z
  _atom_site_occupancy
  Sm  Sm1       1.0  0.6949907118799388  0.6811228475060743  0.8720968259138927  1.0000
  Sm  Sm2       1.0  0.30501794117418507  0.3188729489458026  0.1279017842903585  1.0000
  H   H1        1.0  0.6732115214011999  0.9416123071867661  0.6464348126709182  1.0000
  H   H2        1.0  0.32678326854504997  0.0583897748212436  0.3535614382463165  1.0000
  H   H3        1.0  0.8155669527493143  0.14741336270156322  0.32963799046159176  1.0000
  H   H4        1.0  0.1844314755010075  0.852584925777073  0.6703627199056255  1.0000
  H   H5        1.0  0.8594723603367809  0.6334349564208708  0.3109370291946404  1.0000
  H   H6        1.0  0.1405264446379633  0.3665671809326483  0.6890653597669142  1.0000
  H   H7        1.0  0.871158953092376  0.875605045296858  0.22378047475962143  1.0000
  H   H8        1.0  0.1288411398711844  0.1243970944255679  0.7762201749327245  1.0000
  H   H9        1.0  0.3051805729967043  0.5953116926873748  0.8484392750264502  1.0000
  H   H10       1.0  0.6948213186472427  0.4046955839170678  0.15156250440313804  1.0000
  H   H11       1.0  0.3209871426103561  0.6003766522062649  0.7025465131412075  1.0000
  H   H12       1.0  0.6790120849364313  0.3996305915210741  0.29745212057983383  1.0000
  H   H13       1.0  0.5442148684448753  0.30144344386794597  0.8471975386577026  1.0000
  H   H14       1.0  0.4557817611250598  0.6985497077286738  0.15280204197227215  1.0000
  H   H15       1.0  0.625919702554519  0.30534960218838597  0.7183488128648036  1.0000
  H   H16       1.0  0.3740709554909855  0.6946499014364704  0.2816502750358437  1.0000
  H   H17       1.0  0.7323224644780096  0.3260690991631279  0.5252981779168521  1.0000
  H   H18       1.0  0.26767488077526014  0.6739317381235636  0.47470192093881974  1.0000
  C   C1        1.0  0.7277948486082336  0.6118087355386096  0.5365088570621097  1.0000
  C   C2        1.0  0.2722037972223604  0.3881921081368844  0.4634904488453414  1.0000
  C   C3        1.0  0.7583114746947642  0.7674002183746395  0.4855104426775937  1.0000
  C   C4        1.0  0.2416844486025482  0.2325993309049181  0.5144902050351801  1.0000
  C   C5        1.0  0.7198930806494417  0.9272527447057825  0.5531360546350752  1.0000
  C   C6        1.0  0.28009935089944793  0.0727518877612923  0.4468622703608246  1.0000
  C   C7        1.0  0.7425355747880145  0.0711419869929131  0.5020031092522286  1.0000
  C   C8        1.0  0.2574634477670016  0.9288627055574638  0.4979978752495666  1.0000
  C   C9        1.0  0.7988325295630574  0.04644454723923991  0.38024705186478497  1.0000
  C   C10       1.0  0.20116469431157916  0.9535550084291273  0.619752802899768  1.0000
  C   C11       1.0  0.8206715937470931  0.7516715345615665  0.3675208796767818  1.0000
  C   C12       1.0  0.17932202958897386  0.2483318266958747  0.6324773546007805  1.0000
  C   C13       1.0  0.5221929240737849  0.045636842548077504  0.9467224806849825  1.0000
  C   C14       1.0  0.4778141007039948  0.9543422767859225  0.053269171050793235  1.0000
  C   C15       1.0  0.0481227182757848  0.5042751582860632  0.94159772591329  1.0000
  C   C16       1.0  0.9518837310187321  0.4957257237222238  0.05839682230487848  1.0000
  C   C17       1.0  0.990233375508076  0.9976506505482234  0.07074894774792273  1.0000
  C   C18       1.0  0.009769406729653  0.0023515300911043  0.9292567402949601  1.0000
  N   N1        1.0  0.8359203654749476  0.889817969663916  0.31950609542246156  1.0000
  N   N2        1.0  0.16407853570142808  0.11018544126812907  0.6804946449882221  1.0000
  O   O1        1.0  0.666677808111814  0.6298565829443137  0.6415559491469551  1.0000
  O   O2        1.0  0.3333217363946729  0.3701404102052877  0.3584389925759551  1.0000
  O   O3        1.0  0.7626484399484139  0.46873931269209385  0.4678283301809714  1.0000
  O   O4        1.0  0.2373472990277392  0.5312589348696335  0.5321673418357092  1.0000
  O   O5        1.0  0.7097234964360766  0.22441924562971144  0.5697135066637953  1.0000
  O   O6        1.0  0.2902704074227884  0.7755866909240937  0.4302880547589821  1.0000
  O   O7        1.0  0.6083981518957131  0.9688020910967338  0.8638454409247555  1.0000
  O   O8        1.0  0.3916050340926204  0.031177029170365196  0.13615332126064314  1.0000
  O   O9        1.0  0.4675399780875153  0.1925905441166478  0.9510736922993315  1.0000
  O   O10       1.0  0.5324624009201742  0.8073949416741969  0.048918566400900004  1.0000
  O   O11       1.0  0.9603904631340826  0.5398409512294506  0.8417054729853459  1.0000
  O   O12       1.0  0.0396209124533229  0.4601561396183556  0.15829179541359648  1.0000
  O   O13       1.0  0.20955047514563327  0.4749123737986025  0.9549346469569641  1.0000
  O   O14       1.0  0.7904645355680556  0.5250950028729379  0.04506771987944088  1.0000
  O   O15       1.0  0.8965107125490022  0.8656427434136588  0.07810768577603254  1.0000
  O   O16       1.0  0.10349289866859832  0.13436715909484317  0.9219070373815015  1.0000
  O   O17       1.0  0.06371242036355798  0.1185522951093461  0.16594719754640147  1.0000
  O   O18       1.0  0.9363005043934578  0.8814589618784012  0.8340688433117194  1.0000
  O   O19       1.0  0.3655666201631789  0.659535103073054  0.7966359145646746  1.0000
  O   O20       1.0  0.6344297634716867  0.34046956464001715  0.2033638168705565  1.0000
  O   O21       1.0  0.5748267354445887  0.3755922353504815  0.7895810156614829  1.0000
  O   O22       1.0  0.42516227047618577  0.6244034210504879  0.21041907923503084  1.0000
