data_image0
_chemical_formula_structural       Nd4Cr4H16C24N4O24
_chemical_formula_sum              "Nd4 Cr4 H16 C24 N4 O24"
_cell_length_a       6.785633962001637
_cell_length_b       7.2276206280096815
_cell_length_c       19.38846596203002
_cell_angle_alpha    90.00018680843664
_cell_angle_beta     89.99992135314665
_cell_angle_gamma    90.0000011692727

_space_group_name_H-M_alt    "P 1"
_space_group_IT_number       1

loop_
  _space_group_symop_operation_xyz
  'x, y, z'

loop_
  _atom_site_type_symbol
  _atom_site_label
  _atom_site_symmetry_multiplicity
  _atom_site_fract_x
  _atom_site_fract_y
  _atom_site_fract_z
  _atom_site_occupancy
  Nd  Nd1       1.0  0.8818169523831044  0.13933314970947916  0.22381180139235818  1.0000
  Nd  Nd2       1.0  0.6181825496185172  0.8606639967446835  0.7238106045255819  1.0000
  Nd  Nd3       1.0  0.11818002394146278  0.6393333222478574  0.2761898242462379  1.0000
  Nd  Nd4       1.0  0.3818169115302866  0.36066426455825235  0.7761878890796226  1.0000
  Cr  Cr1       1.0  0.3289694573761608  0.11922164888091659  0.27988959368543215  1.0000
  Cr  Cr2       1.0  0.1710274637464124  0.8807607507820023  0.7798925218299501  1.0000
  Cr  Cr3       1.0  0.6710260451056201  0.619226884825963  0.22010839702034699  1.0000
  Cr  Cr4       1.0  0.8289719975474696  0.3807716129504185  0.7201075436177503  1.0000
  H   H1        1.0  0.958722349013989  0.8462941033279278  0.0828562454248853  1.0000
  H   H2        1.0  0.5412747518974682  0.15370596601873387  0.5828588651625992  1.0000
  H   H3        1.0  0.041276102542738585  0.34629420458201565  0.41714253814710384  1.0000
  H   H4        1.0  0.4587232340192031  0.6537059936563879  0.9171424705125943  1.0000
  H   H5        1.0  0.8855440021054124  0.8266565844051356  0.955523538735555  1.0000
  H   H6        1.0  0.6144560755143758  0.173346731255549  0.4555259386010633  1.0000
  H   H7        1.0  0.1144569324935247  0.3266520580926482  0.5444754291372433  1.0000
  H   H8        1.0  0.3855409010607433  0.6733476609963986  0.0444757285452155  1.0000
  H   H9        1.0  0.4993621107475478  0.21474476121080943  0.11462692261430618  1.0000
  H   H10       1.0  0.0006383983123754  0.7852597197180059  0.6146282697130445  1.0000
  H   H11       1.0  0.500636339840149  0.7147417462756067  0.3853717004243933  1.0000
  H   H12       1.0  0.9993640096802849  0.2852554239574231  0.8853721949540798  1.0000
  H   H13       1.0  0.4113200059797322  0.21291947319755875  0.988859078292947  1.0000
  H   H14       1.0  0.0886775789168084  0.7870868840954156  0.4888601765588731  1.0000
  H   H15       1.0  0.588677980378101  0.7129173518620529  0.5111397507871374  1.0000
  H   H16       1.0  0.9113223459024127  0.2870793255879606  0.011140082068422397  1.0000
  C   C1        1.0  0.8375148536814622  0.9245742585790921  0.05994631001861708  1.0000
  C   C2        1.0  0.662482336030429  0.0754256111865956  0.5599461964626897  1.0000
  C   C3        1.0  0.162483598447885  0.42457456326877  0.4400546321620524  1.0000
  C   C4        1.0  0.33751417560895897  0.5754258345573291  0.9400545279158692  1.0000
  C   C5        1.0  0.7961462465860762  0.9123045582462623  0.9896010895718417  1.0000
  C   C6        1.0  0.7038536989579997  0.0876921363515208  0.48960179415144006  1.0000
  C   C7        1.0  0.203853214940132  0.41230803942026006  0.5103990143646726  1.0000
  C   C8        1.0  0.29614622439147803  0.5876913828257242  0.0103987369265397  1.0000
  C   C9        1.0  0.5811378866971424  0.1305841249335913  0.07777091851638568  1.0000
  C   C10       1.0  0.9188636550338458  0.8694214344290286  0.577771133493762  1.0000
  C   C11       1.0  0.41886203696927277  0.6305800448748683  0.4222291491306578  1.0000
  C   C12       1.0  0.081138753578756  0.36941604693111424  0.9222294338763459  1.0000
  C   C13       1.0  0.6444066043948811  0.021884156661442895  0.96277019847939  1.0000
  C   C14       1.0  0.8555934451393841  0.9781233728657097  0.4627719159024011  1.0000
  C   C15       1.0  0.3555958016597173  0.5218794880084161  0.5372289132457198  1.0000
  C   C16       1.0  0.1444035336807303  0.47811601721642905  0.0372301231617698  1.0000
  C   C17       1.0  0.5321698628984136  0.12899131923209237  0.008212048271119  1.0000
  C   C18       1.0  0.9678348958306486  0.8710122506290645  0.5082143044709682  1.0000
  C   C19       1.0  0.46783448186524607  0.6289906138143236  0.491785954350938  1.0000
  C   C20       1.0  0.0321689864943266  0.3710074674864784  0.9917867806110082  1.0000
  C   C21       1.0  0.6060787194505224  0.03670336241908959  0.8865831681602857  1.0000
  C   C22       1.0  0.8939245727734788  0.9632952019579689  0.38658588040435393  1.0000
  C   C23       1.0  0.39392516041792197  0.5367076601335938  0.6134144143423228  1.0000
  C   C24       1.0  0.10607977444472279  0.46329819381818976  0.11341665633988639  1.0000
  N   N1        1.0  0.7352383982600729  0.03483073370794901  0.1030776210723019  1.0000
  N   N2        1.0  0.764763045381919  0.9651708953682814  0.6030800908811073  1.0000
  N   N3        1.0  0.2647615247040136  0.5348291954531489  0.396920782415485  1.0000
  N   N4        1.0  0.23523936393399944  0.46516805947459255  0.8969216248760075  1.0000
  O   O1        1.0  0.6449800991266983  0.8992014270914975  0.8484434833909729  1.0000
  O   O2        1.0  0.8550233409254843  0.10080787368806196  0.34844361472062957  1.0000
  O   O3        1.0  0.355025257109574  0.39919507405415533  0.6515566045481832  1.0000
  O   O4        1.0  0.1449824773281918  0.6007986599139699  0.1515564165854997  1.0000
  O   O5        1.0  0.5366850956020884  0.19114552452342076  0.8664001455976234  1.0000
  O   O6        1.0  0.9633123800438241  0.8088611655204047  0.36640160410951944  1.0000
  O   O7        1.0  0.4633128905963488  0.6911416987768391  0.6335981411398207  1.0000
  O   O8        1.0  0.0366860712321397  0.3088546459245407  0.13359971263133727  1.0000
  O   O9        1.0  0.5342001821187523  0.1526155774590521  0.2361615043327916  1.0000
  O   O10       1.0  0.9657992720158219  0.8473844437397913  0.736161153836818  1.0000
  O   O11       1.0  0.4657982680082996  0.6526142698929718  0.2638385902015797  1.0000
  O   O12       1.0  0.0342046101371309  0.3473859764933421  0.763838870874565  1.0000
  O   O13       1.0  0.3754925935095912  0.060127852930939696  0.3579091278078366  1.0000
  O   O14       1.0  0.124506972629284  0.9398690621657052  0.857910087604388  1.0000
  O   O15       1.0  0.6245043822375252  0.5601268734423924  0.14208930655141216  1.0000
  O   O16       1.0  0.8754924890999689  0.43987371187689916  0.6420900499701645  1.0000
  O   O17       1.0  0.18487983014479437  0.9572247860164678  0.24103508044291996  1.0000
  O   O18       1.0  0.31512461008693293  0.042778028885813106  0.7410343370824819  1.0000
  O   O19       1.0  0.8151215696293619  0.4572221504221047  0.2589653858085441  1.0000
  O   O20       1.0  0.6848748487162837  0.5427808365877879  0.7589658316861048  1.0000
  O   O21       1.0  0.18427259335903304  0.3066470763876623  0.2767987302275898  1.0000
  O   O22       1.0  0.3157243397498561  0.6933532828914364  0.776798264710294  1.0000
  O   O23       1.0  0.8157273316052951  0.8066468095449222  0.22320103650315556  1.0000
  O   O24       1.0  0.684273646462856  0.1933530987565746  0.7232010562646563  1.0000
