data_image0
_chemical_formula_structural       Gd2H30C44S4N4O14
_chemical_formula_sum              "Gd2 H30 C44 S4 N4 O14"
_cell_length_a       8.921676934612787
_cell_length_b       11.31389771298441
_cell_length_c       12.14403512932895
_cell_angle_alpha    117.06129077922904
_cell_angle_beta     92.10115489261098
_cell_angle_gamma    101.70151937799682

_space_group_name_H-M_alt    "P 1"
_space_group_IT_number       1

loop_
  _space_group_symop_operation_xyz
  'x, y, z'

loop_
  _atom_site_type_symbol
  _atom_site_label
  _atom_site_symmetry_multiplicity
  _atom_site_fract_x
  _atom_site_fract_y
  _atom_site_fract_z
  _atom_site_occupancy
  Gd  Gd1       1.0  0.14204149817594214  0.4056693418335228  0.4962043254831058  1.0000
  Gd  Gd2       1.0  0.8579597252362916  0.594330664735331  0.5037957604721867  1.0000
  H   H1        1.0  0.8039166061921675  0.35832304909383333  0.5339944591299783  1.0000
  H   H2        1.0  0.19608461523834106  0.6416769554349101  0.4660064493544878  1.0000
  H   H3        1.0  0.2806334096647162  0.17370924974624558  0.2529482201865534  1.0000
  H   H4        1.0  0.7193641634925213  0.8262897319976618  0.747051328328176  1.0000
  H   H5        1.0  0.39278088942865  0.969474553920378  0.18502557681641452  1.0000
  H   H6        1.0  0.607216400494309  0.030523405694701498  0.814972705758322  1.0000
  H   H7        1.0  0.3930326608294266  0.8570912245567612  0.322160385285997  1.0000
  H   H8        1.0  0.6069646290935325  0.14290673505831816  0.6778378972887396  1.0000
  H   H9        1.0  0.19886551449650364  0.9400162065446122  0.7065665143125269  1.0000
  H   H10       1.0  0.8011326310744948  0.05998482557724569  0.29343309849466687  1.0000
  H   H11       1.0  0.3253176030956482  0.8513570774461812  0.516388907204309  1.0000
  H   H12       1.0  0.6746816621732776  0.1486439528542505  0.48361155947530676  1.0000
  H   H13       1.0  0.9891724820171888  0.4219133344344925  0.7539998800174741  1.0000
  H   H14       1.0  0.010827906913128398  0.5780876981247188  0.24599979547621578  1.0000
  H   H15       1.0  0.9618643112745103  0.31799492073878344  0.899402473653808  1.0000
  H   H16       1.0  0.03813607567407466  0.6820061097803246  0.10059802436905572  1.0000
  H   H17       1.0  0.0650732641650791  0.11399872944505772  0.8502228539832046  1.0000
  H   H18       1.0  0.9349274079995241  0.8860033252429818  0.1497780874504785  1.0000
  H   H19       1.0  0.5888206628230036  0.27995979715007013  0.16607766217119035  1.0000
  H   H20       1.0  0.41117944089130287  0.7200402112402102  0.8339215699116805  1.0000
  H   H21       1.0  0.9052694977969296  0.0193196187516662  0.062211851839435894  1.0000
  H   H22       1.0  0.09473200884958999  0.9806814099460085  0.9377895000558494  1.0000
  H   H23       1.0  0.688450748227446  0.8155264909650412  0.9317684560875888  1.0000
  H   H24       1.0  0.31154935350512863  0.184473515385136  0.06823159852445569  1.0000
  H   H25       1.0  0.32784481792834436  0.5098919657197027  0.8089452246105536  1.0000
  H   H26       1.0  0.6721564054838893  0.49010804084915083  0.19105486134473879  1.0000
  H   H27       1.0  0.7822936430392388  0.43458583424052216  0.7889735231120267  1.0000
  H   H28       1.0  0.21770674192761413  0.5654151942384756  0.21102779744001038  1.0000
  H   H29       1.0  0.7924232445755521  0.44864706676388255  9.039510391763385e-05  1.0000
  H   H30       1.0  0.20757993499827165  0.5513519140332901  0.9999101326562181  1.0000
  C   C1        1.0  0.28088540597067885  0.12139458775458681  0.3092376713873576  1.0000
  C   C2        1.0  0.7191132888662252  0.8786043942079895  0.6907619084706195  1.0000
  C   C3        1.0  0.3444541547831719  0.0073359853924160005  0.2720750764159163  1.0000
  C   C4        1.0  0.6555442568194466  0.9926619744413402  0.7279232375020682  1.0000
  C   C5        1.0  0.34456529534822516  0.9456457999625769  0.34740924716170696  1.0000
  C   C6        1.0  0.655433686686422  0.05435420820903403  0.6525899535779159  1.0000
  C   C7        1.0  0.2793220570308321  0.9976294701627492  0.45902179627487516  1.0000
  C   C8        1.0  0.7206780466834743  0.0023705382275380996  0.5409774358079957  1.0000
  C   C9        1.0  0.2168600717677052  0.11279501185425289  0.4885677066550683  1.0000
  C   C10       1.0  0.7831403171626121  0.8872060207049586  0.5114319688386217  1.0000
  C   C11       1.0  0.1483863992698886  0.16766671900924018  0.6014623186371749  1.0000
  C   C12       1.0  0.8516139896604286  0.8323343135499711  0.3985373568565149  1.0000
  C   C13       1.0  0.14190233314111106  0.10378989268433965  0.6793747802272563  1.0000
  C   C14       1.0  0.8580972193255575  0.8962121638251259  0.3206253073340049  1.0000
  C   C15       1.0  0.20587048125833007  0.9879222707859654  0.6461969866389693  1.0000
  C   C16       1.0  0.7941273790966505  0.012077737166968899  0.3538021827574056  1.0000
  C   C17       1.0  0.2735325724406721  0.9377335392055883  0.5407007514382797  1.0000
  C   C18       1.0  0.7264666948099858  0.0622674931349465  0.45929889271216234  1.0000
  C   C19       1.0  0.02779144535775663  0.32979317817756754  0.7335774561157676  1.0000
  C   C20       1.0  0.9722078218929014  0.6702078541629745  0.2664221880346742  1.0000
  C   C21       1.0  0.014454468784109099  0.2727496262576068  0.8151612731975247  1.0000
  C   C22       1.0  0.985544515232263  0.7272503839541073  0.18483710501291725  1.0000
  C   C23       1.0  0.0723314015624723  0.1598810683033847  0.7882242237660079  1.0000
  C   C24       1.0  0.9276692706021307  0.8401209863846546  0.21177671766768197  1.0000
  C   C25       1.0  0.6098114727620753  0.17911643397022198  0.11135916651218025  1.0000
  C   C26       1.0  0.390188630952231  0.8208835744200652  0.8886400655706904  1.0000
  C   C27       1.0  0.7872220078422387  0.029663779639648197  0.05336817391984279  1.0000
  C   C28       1.0  0.2127792155700021  0.9703362269292057  0.9466319120354426  1.0000
  C   C29       1.0  0.4853955221718919  0.06673614172241568  0.033050673703428395  1.0000
  C   C30       1.0  0.514605418006063  0.9332628427176172  0.9669481463118712  1.0000
  C   C31       1.0  0.7570699047319706  0.16059715344158573  0.11927406935924977  1.0000
  C   C32       1.0  0.24293019501887875  0.8394028508684885  0.8807268077819758  1.0000
  C   C33       1.0  0.6672995186499477  0.9175224474784894  0.9805702137350705  1.0000
  C   C34       1.0  0.33270170476228605  0.08247755909036408  0.0194298722202149  1.0000
  C   C35       1.0  0.5539142724579094  0.4718861481380684  0.7887413914946321  1.0000
  C   C36       1.0  0.4460830115198534  0.5281118053566943  0.2112593586676326  1.0000
  C   C37       1.0  0.42926805514407823  0.49797356234262935  0.8518037911711929  1.0000
  C   C38       1.0  0.5707348392137277  0.5020243942856126  0.14819629317813107  1.0000
  C   C39       1.0  0.685973115822172  0.4535650881496025  0.8411977054528774  1.0000
  C   C40       1.0  0.3140281075900688  0.5464349184192514  0.15880238050241494  1.0000
  C   C41       1.0  0.43331285057604424  0.5091225976421541  0.972935726810789  1.0000
  C   C42       1.0  0.5666889221021024  0.49087535876741123  0.027064326195286918  1.0000
  C   C43       1.0  0.691580240423171  0.46238968123117263  0.9580811536751455  1.0000
  C   C44       1.0  0.30842069182786247  0.5376092950484334  0.04192095645684886  1.0000
  S   S1        1.0  0.5506801169519661  0.4569020091807231  0.6366296965152214  1.0000
  S   S2        1.0  0.4493205360282459  0.5430959490502756  0.3633695026184326  1.0000
  S   S3        1.0  0.913889813107744  0.30541470660585185  0.20800274936812707  1.0000
  S   S4        1.0  0.08611028862483038  0.6945852997443254  0.7919973052439173  1.0000
  N   N1        1.0  0.09254365679828416  0.27974692747604013  0.6298467991443599  1.0000
  N   N2        1.0  0.9074564469160222  0.72025308091424  0.3701524329385037  1.0000
  N   N3        1.0  0.21880230726065972  0.17339803142480287  0.41403955637952805  1.0000
  N   N4        1.0  0.7811955530943208  0.8266019765281315  0.5859596130168468  1.0000
  O   O1        1.0  0.005884011449829458  0.26497845625236477  0.2834702918485376  1.0000
  O   O2        1.0  0.994116092264477  0.7350215521379226  0.7165289402343332  1.0000
  O   O3        1.0  0.8396163244223159  0.41527753212450585  0.28440557151714774  1.0000
  O   O4        1.0  0.1603829428283419  0.5847235002160361  0.7155940726332944  1.0000
  O   O5        1.0  0.9976323963912604  0.33092026540360553  0.11696197088621564  1.0000
  O   O6        1.0  0.0023677073230459196  0.6690797429866819  0.8830372611966552  1.0000
  O   O7        1.0  0.39487385743061754  0.46742909895730356  0.6045646315809704  1.0000
  O   O8        1.0  0.6051273639998911  0.5325709055714398  0.39543627690349575  1.0000
  O   O9        1.0  0.6718549645816126  0.5738021931266316  0.6481028729611039  1.0000
  O   O10       1.0  0.3281459736146104  0.4261967892732911  0.35189676958336946  1.0000
  O   O11       1.0  0.5817719274355183  0.324246927324971  0.5561048895777531  1.0000
  O   O12       1.0  0.4182278890810451  0.6757520548562823  0.44389472162347227  1.0000
  O   O13       1.0  0.8962597617675455  0.4126889147060809  0.5232122103339591  1.0000
  O   O14       1.0  0.10374062518103946  0.5873121158130273  0.4767882876889046  1.0000
