data_image0
_chemical_formula_structural       Al4H20C72O32F12
_chemical_formula_sum              "Al4 H20 C72 O32 F12"
_cell_length_a       6.670806666563159
_cell_length_b       21.922519301933217
_cell_length_c       25.01022029887663
_cell_angle_alpha    96.58929857014027
_cell_angle_beta     90.00019297315691
_cell_angle_gamma    89.99850124621057

_space_group_name_H-M_alt    "P 1"
_space_group_IT_number       1

loop_
  _space_group_symop_operation_xyz
  'x, y, z'

loop_
  _atom_site_type_symbol
  _atom_site_label
  _atom_site_symmetry_multiplicity
  _atom_site_fract_x
  _atom_site_fract_y
  _atom_site_fract_z
  _atom_site_occupancy
  Al  Al1       1.0  0.2018593268229338  0.7507811867078045  0.7519239234454744  1.0000
  Al  Al2       1.0  0.7991489804907346  0.2493095180989043  0.24801181237436506  1.0000
  Al  Al3       1.0  0.7018573716371108  0.7492213106345889  0.7480756813428826  1.0000
  Al  Al4       1.0  0.2991494449944483  0.2506936457264927  0.2519857093658544  1.0000
  H   H1        1.0  0.7190930814260953  0.0976025363261144  0.459492299977569  1.0000
  H   H2        1.0  0.2794748427552634  0.8998527656654574  0.5384042368947846  1.0000
  H   H3        1.0  0.2191092629522942  0.40241829723965594  0.0405064839874072  1.0000
  H   H4        1.0  0.7794824509068617  0.6001598188498463  0.9616006474446621  1.0000
  H   H5        1.0  0.21268964049001943  0.09175908575036121  0.9134863214858769  1.0000
  H   H6        1.0  0.6824137155427438  0.911584796161044  0.07403111414544129  1.0000
  H   H7        1.0  0.7127093875087169  0.4082617132724947  0.5865302166782911  1.0000
  H   H8        1.0  0.18229997141614973  0.5884138853410832  0.42598732724923843  1.0000
  H   H9        1.0  0.7782353639868589  0.10735433770499013  0.929936825703031  1.0000
  H   H10       1.0  0.329390437312817  0.9113450417277491  0.0714590849005106  1.0000
  H   H11       1.0  0.2782662503274765  0.3926429223813415  0.5700780235366095  1.0000
  H   H12       1.0  0.8293386659636184  0.588654811528393  0.4285453020245455  1.0000
  H   H13       1.0  0.3617406301196339  0.9556985379807514  0.9061851988255681  1.0000
  H   H14       1.0  0.6351124316322724  0.10288445727140777  0.046652104534011606  1.0000
  H   H15       1.0  0.8617889656025284  0.5442794221786968  0.5938107155864357  1.0000
  H   H16       1.0  0.13514470831628964  0.3970999208124439  0.45335256324661793  1.0000
  H   H17       1.0  0.4517058675189459  0.8242903686320558  0.7323414273029555  1.0000
  H   H18       1.0  0.5487164046576751  0.1724607410597656  0.2605904802095509  1.0000
  H   H19       1.0  0.951719511981942  0.6757095482425726  0.7676533767308128  1.0000
  H   H20       1.0  0.0487025669848649  0.3275398349941767  0.23939975361187754  1.0000
  C   C1        1.0  0.4456948514259551  0.6714706442422624  0.6737378301611159  1.0000
  C   C2        1.0  0.5551096513980553  0.3271820295884993  0.3272710116852835  1.0000
  C   C3        1.0  0.9457064951189977  0.8285272920319146  0.8262625976614117  1.0000
  C   C4        1.0  0.05511586726876771  0.17282204584121527  0.17272567314140017  1.0000
  C   C5        1.0  0.4547151587351835  0.6831041523975685  0.8201589064652096  1.0000
  C   C6        1.0  0.545967781332152  0.3188108626976671  0.1813305931432083  1.0000
  C   C7        1.0  0.9546945047614415  0.8168898585406906  0.6798326571996185  1.0000
  C   C8        1.0  0.045997576832022  0.18119495827799878  0.31866851076441793  1.0000
  C   C9        1.0  0.18669848271235173  0.060982441102112296  0.41117071957135914  1.0000
  C   C10       1.0  0.8143608496638067  0.937682001946051  0.5879626486487481  1.0000
  C   C11       1.0  0.6866946089510646  0.43902232052926854  0.0888360446265821  1.0000
  C   C12       1.0  0.3144065928091919  0.5623070310956351  0.9120240479636195  1.0000
  C   C13       1.0  0.19647945436296513  0.10039565811607791  0.371384478792244  1.0000
  C   C14       1.0  0.8043610263219136  0.8979419060094926  0.6274680509395836  1.0000
  C   C15       1.0  0.6964749897469532  0.39960836722606524  0.1286242955404688  1.0000
  C   C16       1.0  0.30441183287936724  0.6020447211382205  0.8725170258797377  1.0000
  C   C17       1.0  0.0372285810180841  0.1399151041210018  0.36221841640627167  1.0000
  C   C18       1.0  0.9630542585500308  0.8580818878652324  0.6362880503912223  1.0000
  C   C19       1.0  0.5372276502523903  0.36009256089476344  0.1377839116093327  1.0000
  C   C20       1.0  0.46308801411682776  0.6419089129734202  0.8637002839240749  1.0000
  C   C21       1.0  0.8682258549273244  0.13729420285395832  0.39585762983379885  1.0000
  C   C22       1.0  0.13162076023755986  0.8605651076197915  0.6024467625465064  1.0000
  C   C23       1.0  0.3682312737416211  0.3627148048909348  0.1041363035211376  1.0000
  C   C24       1.0  0.6316421601338787  0.639433531989944  0.8975467828191911  1.0000
  C   C25       1.0  0.8542219968435489  0.0980199200275749  0.4351897996427212  1.0000
  C   C26       1.0  0.1453637762196749  0.8999417235831971  0.5631700960798725  1.0000
  C   C27       1.0  0.35423252142035727  0.4019898574979876  0.0648057437775478  1.0000
  C   C28       1.0  0.6453725829411852  0.600062588674163  0.9368295073153377  1.0000
  C   C29       1.0  0.015161816559484  0.05848063626967811  0.4434650233988365  1.0000
  C   C30       1.0  0.9851929624800775  0.9399310140718953  0.5553781323006319  1.0000
  C   C31       1.0  0.5151783108954291  0.4415244643856511  0.0565336709587996  1.0000
  C   C32       1.0  0.4852198179626654  0.5600665088014621  0.9446178744544723  1.0000
  C   C33       1.0  0.005337446780878  0.017255026312732007  0.4826823737414188  1.0000
  C   C34       1.0  0.9950667944388558  0.9813474485006495  0.5163465637793294  1.0000
  C   C35       1.0  0.5053768683953166  0.48274761626478824  0.017314298353071  1.0000
  C   C36       1.0  0.49510671461715106  0.518649641484977  0.9836502473794297  1.0000
  C   C37       1.0  0.8915297883055544  0.02461198940274302  0.9616759792400202  1.0000
  C   C38       1.0  0.11079625220526881  0.9742895508540454  0.03826369169262019  1.0000
  C   C39       1.0  0.3915336312005167  0.47538255067757257  0.5383280142078704  1.0000
  C   C40       1.0  0.6107743265922281  0.5257072099291237  0.4617386399568558  1.0000
  C   C41       1.0  0.10564200560519771  0.046459372465626786  0.9820439660598055  1.0000
  C   C42       1.0  0.8893835296199625  0.9534668017517235  0.0187721798607825  1.0000
  C   C43       1.0  0.6056464858779973  0.4535398070222101  0.5179608076838349  1.0000
  C   C44       1.0  0.38934305578236916  0.5465196978975866  0.4812277398888085  1.0000
  C   C45       1.0  0.0636996503616842  0.12871536912923173  0.12523784531705928  1.0000
  C   C46       1.0  0.9368558998889399  0.8721647306738087  0.8740483573707178  1.0000
  C   C47       1.0  0.5637037007576708  0.3712914274968142  0.37475925339563787  1.0000
  C   C48       1.0  0.43683244642559776  0.6278334784063873  0.6259536793851765  1.0000
  C   C49       1.0  0.8246011179096229  0.0218846642142481  0.022882213314474608  1.0000
  C   C50       1.0  0.17422015582668138  0.9759488569578494  0.9787462784135103  1.0000
  C   C51       1.0  0.3245922023562073  0.4781073459896845  0.477118890516401  1.0000
  C   C52       1.0  0.6741883892815608  0.5240476217442662  0.5212581270670924  1.0000
  C   C53       1.0  0.04293769490048761  0.0440146904234382  0.042488916408736095  1.0000
  C   C54       1.0  0.9559914493117673  0.9551184319515685  0.9581335301453605  1.0000
  C   C55       1.0  0.5429399443730248  0.4559774637070645  0.4575173765660168  1.0000
  C   C56       1.0  0.4559621343596802  0.5448782062915782  0.5418681011544209  1.0000
  C   C57       1.0  0.0700871347601932  0.089643115214308  0.08663378483343818  1.0000
  C   C58       1.0  0.929566047335733  0.9097404389776428  0.9137244971495517  1.0000
  C   C59       1.0  0.5701047749078684  0.41035866174518537  0.413367318756194  1.0000
  C   C60       1.0  0.4295213660933683  0.5902589431937315  0.5862755314929656  1.0000
  C   C61       1.0  0.231114959089858  0.092147322754073  0.9580146608424727  1.0000
  C   C62       1.0  0.7916856471208221  0.9001236721912208  0.040855478111979  1.0000
  C   C63       1.0  0.7311116997083716  0.407855633624635  0.5419989962089531  1.0000
  C   C64       1.0  0.291656771576946  0.5998683141407638  0.4591420343454259  1.0000
  C   C65       1.0  0.7657697884763904  0.056105483752254805  0.9242493271520402  1.0000
  C   C66       1.0  0.20862853748791113  0.9451790665111445  0.082993470655282  1.0000
  C   C67       1.0  0.2657753237331235  0.4438925842711895  0.5757566727449301  1.0000
  C   C68       1.0  0.7086035356542766  0.5548151982014248  0.41700967046073606  1.0000
  C   C69       1.0  0.3565228442963786  0.9510636725863364  0.9500294717693193  1.0000
  C   C70       1.0  0.6435873632774616  0.05238570076359391  0.047973492866262304  1.0000
  C   C71       1.0  0.8564832850395163  0.5489489631968282  0.5499734125609165  1.0000
  C   C72       1.0  0.1435732796714362  0.4475991691929336  0.4520464653852443  1.0000
  O   O1        1.0  0.6212895191182852  0.6962791562492683  0.7998554047039691  1.0000
  O   O2        1.0  0.37957481339334004  0.3055208019534348  0.2016513593991291  1.0000
  O   O3        1.0  0.1212607637784728  0.8037204780205939  0.700141763610297  1.0000
  O   O4        1.0  0.8795872157579722  0.19448345118574656  0.2983453736683472  1.0000
  O   O5        1.0  0.27826323856438506  0.6880846603140894  0.694824621102633  1.0000
  O   O6        1.0  0.722529271923385  0.3105665442737333  0.3062087554105446  1.0000
  O   O7        1.0  0.7782655635226305  0.8119196174007896  0.8051758062419339  1.0000
  O   O8        1.0  0.2225193218224817  0.18943337032536076  0.19378713356844196  1.0000
  O   O9        1.0  0.2833017512408773  0.7008543460079721  0.8062467708865454  1.0000
  O   O10       1.0  0.7177379671874462  0.30102206438104423  0.19496177747252824  1.0000
  O   O11       1.0  0.7832738122586066  0.7991384823340795  0.6937463723569051  1.0000
  O   O12       1.0  0.21775256201735255  0.19898052490549384  0.30503693705072976  1.0000
  O   O13       1.0  0.12031666543190772  0.8122168592067424  0.8097610841653804  1.0000
  O   O14       1.0  0.880637595510379  0.1895462443406899  0.18896686032044133  1.0000
  O   O15       1.0  0.620313310194561  0.6877781176221803  0.6902388824251986  1.0000
  O   O16       1.0  0.3806411192599768  0.3104563778637157  0.3110314759085853  1.0000
  O   O17       1.0  0.4525365757777564  0.7869772205406348  0.7497750518130033  1.0000
  O   O18       1.0  0.5484807169036685  0.21314902003871342  0.2489551285332112  1.0000
  O   O19       1.0  0.952542276745035  0.7130277610266803  0.7502274152466413  1.0000
  O   O20       1.0  0.04847204418150851  0.28685419501293546  0.2510415520551774  1.0000
  O   O21       1.0  0.3513044897599968  0.1265083994681504  0.9830469918425634  1.0000
  O   O22       1.0  0.8387585916024776  0.8475088275602686  0.0246213567437579  1.0000
  O   O23       1.0  0.8512724123558614  0.37347677360723713  0.5169706383236772  1.0000
  O   O24       1.0  0.33884079352783664  0.6524800475046035  0.47535442666396927  1.0000
  O   O25       1.0  0.651738017603634  0.03014545134285382  0.8907917500176056  1.0000
  O   O26       1.0  0.1496264568924275  0.9569285758419352  0.1291717065705669  1.0000
  O   O27       1.0  0.15172373416918108  0.46985615324415864  0.6092098212936322  1.0000
  O   O28       1.0  0.6496363756290151  0.5430541871529613  0.37083057764753147  1.0000
  O   O29       1.0  0.4925600818869995  0.9261243068647005  0.9720029448303081  1.0000
  O   O30       1.0  0.5127934018893684  0.025150704882797498  0.0698642106783396  1.0000
  O   O31       1.0  0.9924071574837968  0.5739383192273521  0.5280033675564226  1.0000
  O   O32       1.0  0.012698737154160299  0.47483920512302563  0.43018752914912994  1.0000
  F   F1        1.0  0.34546202017229183  0.0243401714502056  0.4180980452796348  1.0000
  F   F2        1.0  0.6565252106344558  0.9750037412760834  0.5816888217280366  1.0000
  F   F3        1.0  0.8454683805973177  0.47567145091216645  0.0819152050174239  1.0000
  F   F4        1.0  0.15659674792635767  0.5249775106365959  0.918287764738956  1.0000
  F   F5        1.0  0.3632328240044487  0.09777116979702068  0.3408742254495181  1.0000
  F   F6        1.0  0.638040879342796  0.9008110279659648  0.6583449226420302  1.0000
  F   F7        1.0  0.8632075254859686  0.4022302718447435  0.15913174742780714  1.0000
  F   F8        1.0  0.1380975461212088  0.5991673274391759  0.8416328570181619  1.0000
  F   F9        1.0  0.7117033683452476  0.17557820459808937  0.39112021460317686  1.0000
  F   F10       1.0  0.2877654832829819  0.8222224831699093  0.6070773460009775  1.0000
  F   F11       1.0  0.21170916128589573  0.3244231133972876  0.1088680344337263  1.0000
  F   F12       1.0  0.787768516755868  0.6777771048973236  0.8929190419471096  1.0000
