data_image0
_chemical_formula_structural       Zn2H46C60N12O10
_chemical_formula_sum              "Zn2 H46 C60 N12 O10"
_cell_length_a       10.1726899043844
_cell_length_b       12.46277586761616
_cell_length_c       12.856
_cell_angle_alpha    114.56504468354316
_cell_angle_beta     100.73376950741068
_cell_angle_gamma    92.36858739467837

_space_group_name_H-M_alt    "P 1"
_space_group_IT_number       1

loop_
  _space_group_symop_operation_xyz
  'x, y, z'

loop_
  _atom_site_type_symbol
  _atom_site_label
  _atom_site_symmetry_multiplicity
  _atom_site_fract_x
  _atom_site_fract_y
  _atom_site_fract_z
  _atom_site_occupancy
  Zn  Zn1       1.0  0.5162390743917201  0.7311095947504214  0.16237700657167417  1.0000
  Zn  Zn2       1.0  0.4837602686771802  0.2688899220831971  0.8376227018937783  1.0000
  H   H1        1.0  0.019294653242269498  0.7630468210682935  0.17713425019934445  1.0000
  H   H2        1.0  0.9807058245159442  0.23695358590235577  0.8228659842223964  1.0000
  H   H3        1.0  0.7872055333300381  0.4489477296253527  0.14395756296823956  1.0000
  H   H4        1.0  0.21279394389792833  0.5510526773452967  0.8560425240029232  1.0000
  H   H5        1.0  0.2080060981966625  0.4495619241725635  0.13038875226320812  1.0000
  H   H6        1.0  0.7919932448722308  0.5504375926610622  0.8696117340491656  1.0000
  H   H7        1.0  0.1754038534406561  0.28241911472527903  0.15946914468799633  1.0000
  H   H8        1.0  0.8245953554691711  0.7175795119713159  0.8405301852717457  1.0000
  H   H9        1.0  0.1206383832505935  0.26616521264985243  0.012236502561790992  1.0000
  H   H10       1.0  0.8793608256592338  0.7338334140467424  0.9877628273979513  1.0000
  H   H11       1.0  0.655530467890884  0.161826020997303  0.018349248013734585  1.0000
  H   H12       1.0  0.344467740488696  0.8381726056992918  0.9816499344954367  1.0000
  H   H13       1.0  0.43147132562333473  0.45207656126802226  0.08641242023477255  1.0000
  H   H14       1.0  0.5685280174455656  0.5479229555656034  0.9135872882306801  1.0000
  H   H15       1.0  0.5253009041116387  0.5527145631708592  0.3118602226347633  1.0000
  H   H16       1.0  0.47470057417682215  0.44728584379979  0.6881393813906342  1.0000
  H   H17       1.0  0.6346805414824104  0.47573284284285944  0.37352114806756037  1.0000
  H   H18       1.0  0.36531880158648994  0.5242666739907592  0.6264777825509713  1.0000
  H   H19       1.0  0.3110743157986633  0.5695559556827519  0.3595460471520228  1.0000
  H   H20       1.0  0.6889264302776965  0.4304462315619446  0.6404549442811388  1.0000
  H   H21       1.0  0.766176162850968  0.9292318430767352  0.351222447403984  1.0000
  H   H22       1.0  0.23382504711935337  0.0707667836198596  0.6487779553038351  1.0000
  H   H23       1.0  0.35046787947969454  0.9511256533421958  0.29157440699681575  1.0000
  H   H24       1.0  0.649532464119453  0.0488738634914299  0.7084238932253726  1.0000
  H   H25       1.0  0.783607265490595  0.127132930450216  0.6027766352908728  1.0000
  H   H26       1.0  0.2163932122676187  0.8728674765204263  0.39722359913086797  1.0000
  H   H27       1.0  0.6868087720498296  0.23125581880570686  0.5757071529647817  1.0000
  H   H28       1.0  0.3131914373902447  0.7687428078908952  0.42429154659861723  1.0000
  H   H29       1.0  0.0124146509633931  0.15531377852283873  0.6097329856808429  1.0000
  H   H30       1.0  0.9875866931660013  0.8446857383107869  0.39026701768576544  1.0000
  H   H31       1.0  0.20548284223246333  0.23482170772761893  0.5586385075029626  1.0000
  H   H32       1.0  0.7945187702150706  0.765179589380054  0.44136303072198774  1.0000
  H   H33       1.0  0.9283600266305002  0.3291281649720545  0.32220872815738494  1.0000
  H   H34       1.0  0.07164158581703362  0.6708731321356184  0.677792032220637  1.0000
  H   H35       1.0  0.7370729082594779  0.25323241181448  0.3750183200294473  1.0000
  H   H36       1.0  0.26292743533966967  0.7467671050191457  0.6249815358865832  1.0000
  H   H37       1.0  0.3124098366327885  0.19227137766137764  0.40260385496908674  1.0000
  H   H38       1.0  0.687589774754251  0.8077299194462952  0.5973958326608653  1.0000
  H   H39       1.0  0.5050835186772247  0.26631386553301445  0.3498568843240052  1.0000
  H   H40       1.0  0.4949150921795678  0.7336874315746585  0.650142655855376  1.0000
  H   H41       1.0  0.1153484018793804  0.4950247825844159  0.4113817898426291  1.0000
  H   H42       1.0  0.8846526125151257  0.504979184934335  0.588620736448867  1.0000
  H   H43       1.0  0.8621217277097702  0.12231906941933353  0.9223740197823603  1.0000
  H   H44       1.0  0.13787561429862905  0.8776804474142852  0.07762617162886448  1.0000
  H   H45       1.0  0.21181232889092882  0.095554429353399  0.15230561049208552  1.0000
  H   H46       1.0  0.7881848789584041  0.9044441973431959  0.847694202413429  1.0000
  C   C1        1.0  0.2572942324234901  0.6769954945931645  0.1619030923826089  1.0000
  C   C2        1.0  0.7427061111756501  0.32300402224045405  0.8380967635334219  1.0000
  C   C3        1.0  0.1270509610332979  0.6126937761854593  0.15627652579242132  1.0000
  C   C4        1.0  0.8729485161946758  0.3873066307851901  0.8437243390256628  1.0000
  C   C5        1.0  0.013558002931219396  0.671737455186836  0.16689531678454023  1.0000
  C   C6        1.0  0.9864412059786077  0.32826117150975886  0.8331047910221231  1.0000
  C   C7        1.0  0.8912310460646112  0.61327859621084  0.16340867294049127  1.0000
  C   C8        1.0  0.10876916337546311  0.3867200304857548  0.8365900266229147  1.0000
  C   C9        1.0  0.7713961094278403  0.6796934999157642  0.17220072256205307  1.0000
  C   C10       1.0  0.22860536886062022  0.32030690705488507  0.8278004371571869  1.0000
  C   C11       1.0  0.8823577939134922  0.4953826176684402  0.14818525232625754  1.0000
  C   C12       1.0  0.11764154915540813  0.5046168991651854  0.8518144561392023  1.0000
  C   C13       1.0  0.9958227602029553  0.43487199284995637  0.1343995799697098  1.0000
  C   C14       1.0  0.0041775833961850105  0.5651275239836694  0.8656002759463207  1.0000
  C   C15       1.0  0.11847168311045661  0.49403316993863206  0.1395950588848578  1.0000
  C   C16       1.0  0.881528794647757  0.5059672370320172  0.8604051755368829  1.0000
  C   C17       1.0  0.08904938609922651  0.25147261091617423  0.08346915777139693  1.0000
  C   C18       1.0  0.9109489564394196  0.7485269059174513  0.9165304032434777  1.0000
  C   C19       1.0  0.0414366909135424  0.1221989009209707  0.042164087500019314  1.0000
  C   C20       1.0  0.9585606510948638  0.877800615912655  0.9578368817581194  1.0000
  C   C21       1.0  0.6066109219046893  0.23823716349232177  0.06314310459156056  1.0000
  C   C22       1.0  0.3933872864748907  0.7617614632042804  0.9368560779176038  1.0000
  C   C23       1.0  0.492256964208849  0.3847919936897313  0.0939161238359674  1.0000
  C   C24       1.0  0.5077423788600443  0.6152075231438944  0.906083584629485  1.0000
  C   C25       1.0  0.5378554753528135  0.4667460194390571  0.3141412213774616  1.0000
  C   C26       1.0  0.4621440018751528  0.533254387531592  0.6858580877467801  1.0000
  C   C27       1.0  0.42127304743574717  0.4233660816655629  0.350556498666009  1.0000
  C   C28       1.0  0.5787265639512925  0.57663521544211  0.649443966810864  1.0000
  C   C29       1.0  0.31105545396362544  0.4867687616780857  0.3693076785406718  1.0000
  C   C30       1.0  0.6889441574234141  0.5132325354295874  0.6306920090892804  1.0000
  C   C31       1.0  0.66882161113854  0.9596362534376583  0.3607750617284681  1.0000
  C   C32       1.0  0.33117859830152707  0.040362373258936705  0.6392244156818522  1.0000
  C   C33       1.0  0.457557298804069  0.9746368425819725  0.3316403356068491  1.0000
  C   C34       1.0  0.5424439111662522  0.02536178411462941  0.6683592892540561  1.0000
  C   C35       1.0  0.7458413886919928  0.15906481594593913  0.5364092042424675  1.0000
  C   C36       1.0  0.2541588207480743  0.8409338107506629  0.46359027316785983  1.0000
  C   C37       1.0  0.8614766323480012  0.1998313114142007  0.49751842445140687  1.0000
  C   C38       1.0  0.13852371125113902  0.800168205419425  0.5024814314646235  1.0000
  C   C39       1.0  0.9939621509249221  0.19256423274257636  0.545882476403854  1.0000
  C   C40       1.0  0.006038326833298391  0.8074361742280658  0.4541177580178868  1.0000
  C   C41       1.0  0.10255255617277471  0.23694112398400347  0.5168282344002507  1.0000
  C   C42       1.0  0.8974489221156858  0.7630592829866458  0.48317214747206805  1.0000
  C   C43       1.0  0.0814008563801849  0.289049745424066  0.43798376839854575  1.0000
  C   C44       1.0  0.918599889696175  0.7109524418206307  0.562018778728458  1.0000
  C   C45       1.0  0.9477837999358059  0.2933633494469349  0.38719547237506907  1.0000
  C   C46       1.0  0.05221667782240761  0.7066370575237144  0.6128055398935928  1.0000
  C   C47       1.0  0.8394233702084932  0.2493238201379597  0.4167338169089305  1.0000
  C   C48       1.0  0.1605781080799673  0.7506765868326823  0.5832673428103093  1.0000
  C   C49       1.0  0.1978900543735094  0.3368563346225955  0.4091290300350253  1.0000
  C   C50       1.0  0.8021108258619237  0.6631467427591318  0.5908731177507677  1.0000
  C   C51       1.0  0.3107695867253001  0.2752561820855774  0.39334474793132307  1.0000
  C   C52       1.0  0.6892290241314923  0.7247451150220954  0.6066547922480511  1.0000
  C   C53       1.0  0.42032539478100267  0.31742197295704955  0.36402783786152076  1.0000
  C   C54       1.0  0.5796743507651101  0.682580214287647  0.6359730061210557  1.0000
  C   C55       1.0  0.2002209290321204  0.4440849110580984  0.3975646320197513  1.0000
  C   C56       1.0  0.7997799512033127  0.5559181663236218  0.6024375157660345  1.0000
  C   C57       1.0  0.9217321422844267  0.06848002160278811  0.956663347179614  1.0000
  C   C58       1.0  0.07826519972397959  0.9315194952308374  0.043336844231603784  1.0000
  C   C59       1.0  0.11901817100999781  0.0530352540830279  0.08499417875611211  1.0000
  C   C60       1.0  0.8809791709984084  0.9469642627505979  0.9150067905020336  1.0000
  N   N1        1.0  0.5268117893114734  0.2929191710714889  0.0071812126247507825  1.0000
  N   N2        1.0  0.4731875537574269  0.7070803457621367  0.9928184958407017  1.0000
  N   N3        1.0  0.6220695973844955  0.2909430668761175  0.17882394402523974  1.0000
  N   N4        1.0  0.37792974568440485  0.7090564499575011  0.8211757644402128  1.0000
  N   N5        1.0  0.5491490175010796  0.38404783913688334  0.19633237172448761  1.0000
  N   N6        1.0  0.4508503255678207  0.6159516776967422  0.803667336740972  1.0000
  N   N7        1.0  0.549696815679944  0.8996401278195877  0.2910199165502193  1.0000
  N   N8        1.0  0.4503045284494434  0.1003593890140309  0.7089808646633102  1.0000
  N   N9        1.0  0.5133451507355744  0.0764690014016338  0.42238468673371443  1.0000
  N   N10       1.0  0.486655192863573  0.9235305154319919  0.5776143913353949  1.0000
  N   N11       1.0  0.647454623404883  0.0649871239169144  0.43968227024900847  1.0000
  N   N12       1.0  0.35254672072451143  0.9350123929167041  0.5603177331175999  1.0000
  O   O1        1.0  0.3657330090390118  0.6271095453043785  0.17309679050731575  1.0000
  O   O2        1.0  0.6342673345601284  0.37288997152924014  0.8269030654087146  1.0000
  O   O3        1.0  0.2598408332174813  0.7758238479243005  0.1573818122208408  1.0000
  O   O4        1.0  0.7401585098514191  0.2241756689093179  0.8426186740915329  1.0000
  O   O5        1.0  0.7826648922684002  0.7831924022167699  0.17850970078678335  1.0000
  O   O6        1.0  0.21733445080050023  0.2168071146168558  0.8214892298317551  1.0000
  O   O7        1.0  0.6584638885987745  0.6260191274488278  0.17132985017440208  1.0000
  O   O8        1.0  0.3415367233185194  0.373982169658845  0.828669984906128  1.0000
  O   O9        1.0  0.9786845202001686  0.3186183171185704  0.11573495865624044  1.0000
  O   O10       1.0  0.021313956497550596  0.6813820898520789  0.8842649808643444  1.0000
