data_image0
_chemical_formula_structural       Al4H44C100Br4N4O32
_chemical_formula_sum              "Al4 H44 C100 Br4 N4 O32"
_cell_length_a       6.595705620177424
_cell_length_b       26.169119837750824
_cell_length_c       30.095048221944253
_cell_angle_alpha    112.14894732302146
_cell_angle_beta     89.99006446350762
_cell_angle_gamma    90.0051367249116

_space_group_name_H-M_alt    "P 1"
_space_group_IT_number       1

loop_
  _space_group_symop_operation_xyz
  'x, y, z'

loop_
  _atom_site_type_symbol
  _atom_site_label
  _atom_site_symmetry_multiplicity
  _atom_site_fract_x
  _atom_site_fract_y
  _atom_site_fract_z
  _atom_site_occupancy
  Al  Al1       1.0  0.188032984853379  0.7511536714301243  0.7511894533688376  1.0000
  Al  Al2       1.0  0.8119525226021054  0.2488434913446937  0.24880634604915738  1.0000
  Al  Al3       1.0  0.6880385522306156  0.7487960727856803  0.7487862525733106  1.0000
  Al  Al4       1.0  0.3119424059342251  0.25119819411057154  0.25120991554363303  1.0000
  H   H1        1.0  0.126371255181617  0.9035700266850953  0.05592997860988189  1.0000
  H   H2        1.0  0.8736339642412715  0.09643135923830207  0.9440614955811666  1.0000
  H   H3        1.0  0.6246520118816649  0.596536532238666  0.44405018334018803  1.0000
  H   H4        1.0  0.3753532055361717  0.4034600029795213  0.555944180496823  1.0000
  H   H5        1.0  0.0261854430740129  0.874704174248336  0.9057909108688944  1.0000
  H   H6        1.0  0.973777322225736  0.1252948498558055  0.09420739802072116  1.0000
  H   H7        1.0  0.5252642759416731  0.6252960227985298  0.5942001805436449  1.0000
  H   H8        1.0  0.4747409420003734  0.37469932548441415  0.40579059454585575  1.0000
  H   H9        1.0  0.8239127251867445  0.9348356650295315  0.799156549806625  1.0000
  H   H10       1.0  0.1760940084950917  0.06516039961829279  0.20083673773013536  1.0000
  H   H11       1.0  0.3251560878984351  0.565003920801736  0.700914318585987  1.0000
  H   H12       1.0  0.6748097113313846  0.43499432368164986  0.29907608908217037  1.0000
  H   H13       1.0  0.05127107733909501  0.8864759652726945  0.9723501995129737  1.0000
  H   H14       1.0  0.9487493037770564  0.1135265653265662  0.0276412705570053  1.0000
  H   H15       1.0  0.5499792385072267  0.6135623872837073  0.5276375246972975  1.0000
  H   H16       1.0  0.4500199135442671  0.3864317905157151  0.47235756540794677  1.0000
  H   H17       1.0  0.5980676415398634  0.5351833794398075  0.08616410987183089  1.0000
  H   H18       1.0  0.4019421246188486  0.464822733117053  0.9138399229630847  1.0000
  H   H19       1.0  0.09806380306707041  0.9648189259782638  0.4138876792948734  1.0000
  H   H20       1.0  0.9018731912567972  0.03522843932638143  0.5861521486632097  1.0000
  H   H21       1.0  0.3454296519264091  0.4217557106073074  0.13226802514763844  1.0000
  H   H22       1.0  0.6545619211165887  0.5782545528192954  0.867738509665699  1.0000
  H   H23       1.0  0.8453481902705633  0.07826936216688547  0.36772514871009315  1.0000
  H   H24       1.0  0.1545357322428913  0.9216906952062233  0.6322434694738561  1.0000
  H   H25       1.0  0.3610609479227662  0.366161714784866  0.18400138888937786  1.0000
  H   H26       1.0  0.6388972689780276  0.6338441944810285  0.816004801636332  1.0000
  H   H27       1.0  0.8610554651247355  0.1338298173065553  0.3159618816815239  1.0000
  H   H28       1.0  0.13884513180949654  0.866105560267698  0.6839913673403615  1.0000
  H   H29       1.0  0.754791530418629  0.30763869637273444  0.14149735895976787  1.0000
  H   H30       1.0  0.24518184960044925  0.6923661194774411  0.8585002124879112  1.0000
  H   H31       1.0  0.2548169117756061  0.19240220572343242  0.35852725830295634  1.0000
  H   H32       1.0  0.7452580535910586  0.8076551690209185  0.6415136112313392  1.0000
  H   H33       1.0  0.7434430299952696  0.3595093708805734  0.08671318081296418  1.0000
  H   H34       1.0  0.2565591561018223  0.6404959363921635  0.9132872622678788  1.0000
  H   H35       1.0  0.24342334249111272  0.14054280145728626  0.41332176149879973  1.0000
  H   H36       1.0  0.7567350137794052  0.8595577328697316  0.5867548924867804  1.0000
  H   H37       1.0  0.22715333941858526  0.9794533106501646  0.18909652043988248  1.0000
  H   H38       1.0  0.7728594586106324  0.020537348392032664  0.8108913954543554  1.0000
  H   H39       1.0  0.724855292992011  0.5207876904489551  0.31085042019958564  1.0000
  H   H40       1.0  0.2751271830869229  0.47920996864838367  0.6891421444037249  1.0000
  H   H41       1.0  0.4444075439618232  0.7875491638824812  0.8117333242233896  1.0000
  H   H42       1.0  0.5555885744561238  0.21244160065275958  0.18826357322553378  1.0000
  H   H43       1.0  0.9445158588371073  0.7123648585843227  0.6882609931729816  1.0000
  H   H44       1.0  0.0554650951319431  0.28761654409871795  0.31173809035355043  1.0000
  C   C1        1.0  0.4366817819539008  0.8013479821268843  0.6972796892815153  1.0000
  C   C2        1.0  0.5633370823714331  0.19865930089130765  0.3027200284495565  1.0000
  C   C3        1.0  0.9367648980913119  0.6986093043528925  0.8027045206643492  1.0000
  C   C4        1.0  0.06319180292729952  0.30139102143559166  0.19729414347303728  1.0000
  C   C5        1.0  0.4350894851436635  0.6581047613797323  0.6874928367096442  1.0000
  C   C6        1.0  0.564886925524327  0.34189379206526377  0.3125043955272773  1.0000
  C   C7        1.0  0.934926158866432  0.8418247125512721  0.8125256917852751  1.0000
  C   C8        1.0  0.0650684444337486  0.1581722675628043  0.18747405977533296  1.0000
  C   C9        1.0  0.0729590913014277  0.1007991641002235  0.1505406380539398  1.0000
  C   C10       1.0  0.9270324805382231  0.8991986260425404  0.8494565961961058  1.0000
  C   C11       1.0  0.5727762514662942  0.399280913046411  0.34941899121118775  1.0000
  C   C12       1.0  0.4272047090382074  0.6007184971870315  0.6505732085499076  1.0000
  C   C13       1.0  0.13699107595311943  0.0031765300445627948  0.1302241346028552  1.0000
  C   C14       1.0  0.8629914001665071  0.9968225196563552  0.8697698625550457  1.0000
  C   C15       1.0  0.6358300011482002  0.49694818348087477  0.3697320146348346  1.0000
  C   C16       1.0  0.3641600556208858  0.5030494755609708  0.6302605497482003  1.0000
  C   C17       1.0  0.13405049281656292  0.0570786135435526  0.1636891739937596  1.0000
  C   C18       1.0  0.8659532086922256  0.9429193801787576  0.8363059037109293  1.0000
  C   C19       1.0  0.633107812304793  0.4430405462082518  0.3362456023972483  1.0000
  C   C20       1.0  0.36686405135118594  0.556958168790004  0.6637458813508843  1.0000
  C   C21       1.0  0.0224649308575806  0.0906860711856368  0.10332486563569182  1.0000
  C   C22       1.0  0.9775190612944442  0.909314144365233  0.8966709240116516  1.0000
  C   C23       1.0  0.5227671224117856  0.40935282008328494  0.39665542233761636  1.0000
  C   C24       1.0  0.47724112732540663  0.5906420108029521  0.603336791352568  1.0000
  C   C25       1.0  0.0355810261089076  0.03717672790479299  0.06730826608232117  1.0000
  C   C26       1.0  0.9644059997822794  0.9628257350492004  0.9326839236878468  1.0000
  C   C27       1.0  0.5354981469557245  0.4628654459879016  0.43268095959933106  1.0000
  C   C28       1.0  0.46451010204990695  0.5371282611856714  0.56731305398538  1.0000
  C   C29       1.0  0.0885754649437942  0.9920858251141099  0.08100281129671319  1.0000
  C   C30       1.0  0.9114221735802984  0.007914797673542681  0.9189886655682854  1.0000
  C   C31       1.0  0.5878416744014957  0.5079931097902559  0.4189788905712888  1.0000
  C   C32       1.0  0.4121620268592707  0.4920011826805748  0.5810129657258257  1.0000
  C   C33       1.0  0.9958179531757594  0.0273084754689137  0.017382620326777995  1.0000
  C   C34       1.0  0.004193330504023199  0.9726955558383494  0.9826131562591839  1.0000
  C   C35       1.0  0.4959708924555955  0.4726909291085803  0.4826119415388986  1.0000
  C   C36       1.0  0.5040373562574203  0.5273023285799212  0.5173827920036302  1.0000
  C   C37       1.0  0.04963304091330661  0.9288758759298544  0.9981799020566909  1.0000
  C   C38       1.0  0.9503903716633744  0.0711258446407186  0.0018140853238434998  1.0000
  C   C39       1.0  0.5488442558436263  0.571156904104633  0.5018125910440004  1.0000
  C   C40       1.0  0.45116096040503356  0.4288362857166206  0.49818286131760897  1.0000
  C   C41       1.0  0.09123299797472842  0.9378164436966827  0.0451340989895144  1.0000
  C   C42       1.0  0.9087737365620188  0.06218336901788753  0.9548598950098252  1.0000
  C   C43       1.0  0.5901525232539129  0.5622538349896261  0.4548478454793283  1.0000
  C   C44       1.0  0.4098572419533895  0.43773886316488125  0.5451447342798942  1.0000
  C   C45       1.0  0.1278770718202082  0.5375175235936354  0.9158358193824653  1.0000
  C   C46       1.0  0.8721084360270126  0.46248666008852984  0.08416642407752312  1.0000
  C   C47       1.0  0.6279147003424015  0.9624986537073352  0.5841622114157445  1.0000
  C   C48       1.0  0.3720389735875215  0.0375547959309301  0.41587580021428744  1.0000
  C   C49       1.0  0.8163687535046266  0.5857931716312449  0.9597255374180091  1.0000
  C   C50       1.0  0.1836076572867285  0.41420800616781855  0.040274201176025294  1.0000
  C   C51       1.0  0.3165972097463055  0.9141601139132265  0.5402559788832378  1.0000
  C   C52       1.0  0.6835732660731468  0.08583034030631607  0.45973408862219145  1.0000
  C   C53       1.0  0.828214825464393  0.5538119509290383  0.9913595837773954  1.0000
  C   C54       1.0  0.1717752309038403  0.44618951940211826  0.0086390757102635  1.0000
  C   C55       1.0  0.3282922138589868  0.9461664178859194  0.5086466744842255  1.0000
  C   C56       1.0  0.6717584874845883  0.05383709109138115  0.49135664701810805  1.0000
  C   C57       1.0  0.9897306677420303  0.5154770353504572  0.9850240937645081  1.0000
  C   C58       1.0  0.0102745498142909  0.48452900935025417  0.014980657933556098  1.0000
  C   C59       1.0  0.4897531962943305  0.9845261209017198  0.514984188527272  1.0000
  C   C60       1.0  0.5102596014837459  0.015489386410770602  0.48503346575655115  1.0000
  C   C61       1.0  0.1358511137616958  0.5071064405871795  0.9484924034910521  1.0000
  C   C62       1.0  0.8641480389308498  0.49289691191441426  0.051510560757087404  1.0000
  C   C63       1.0  0.6358616211810073  0.9929041841924544  0.5515102117503972  1.0000
  C   C64       1.0  0.36415724121021503  0.007113408981012992  0.4485095911890936  1.0000
  C   C65       1.0  0.687619209280662  0.5603245071166256  0.028039579608844196  1.0000
  C   C66       1.0  0.31236478291204867  0.4396770990378158  0.9719576425930895  1.0000
  C   C67       1.0  0.18772430197319787  0.9396572987900955  0.47197185667999253  1.0000
  C   C68       1.0  0.812340045116521  0.06034432785028796  0.5280271594010343  1.0000
  C   C69       1.0  0.7072970551418364  0.5299633245097156  0.057644498736109995  1.0000
  C   C70       1.0  0.292699065736528  0.47003830263012947  0.9423545193274022  1.0000
  C   C71       1.0  0.20734172273431992  0.970035466236176  0.44238082896826814  1.0000
  C   C72       1.0  0.7926771407676583  0.029980291515514085  0.5576321540014175  1.0000
  C   C73       1.0  0.21735865258019524  0.3962813874196485  0.13406335091816146  1.0000
  C   C74       1.0  0.7826314043477253  0.6037264764065142  0.8659403176032184  1.0000
  C   C75       1.0  0.7173116386459385  0.10374255895114712  0.3659286522659286  1.0000
  C   C76       1.0  0.28263444686858463  0.8962394807332643  0.6340596525361021  1.0000
  C   C77       1.0  0.2257974097391937  0.36548688874685803  0.16298848070864844  1.0000
  C   C78       1.0  0.7741790025507385  0.6345241169077837  0.8370162558775504  1.0000
  C   C79       1.0  0.7257702409218255  0.13453595065702467  0.3369972865410417  1.0000
  C   C80       1.0  0.2741773612778928  0.8654425024695129  0.6629845631333993  1.0000
  C   C81       1.0  0.0585823331969948  0.33376228088098964  0.16579083902260547  1.0000
  C   C82       1.0  0.9413880143347768  0.6662448667134768  0.8342103175801724  1.0000
  C   C83       1.0  0.5585965277787396  0.16626673346614496  0.33420355495763937  1.0000
  C   C84       1.0  0.4413920132873415  0.8337362421843935  0.665793303452709  1.0000
  C   C85       1.0  0.8840344855988675  0.3321769380299243  0.13870160563546818  1.0000
  C   C86       1.0  0.11594344187246723  0.6678268430379218  0.8612988430576108  1.0000
  C   C87       1.0  0.3840542641980705  0.16785583517472696  0.36131085056974394  1.0000
  C   C88       1.0  0.6159767316520188  0.8321848269074721  0.6387171407460598  1.0000
  C   C89       1.0  0.8772511990558415  0.3612874749684991  0.1084770225983291  1.0000
  C   C90       1.0  0.12275250280529093  0.6387146016009096  0.89152127528709  1.0000
  C   C91       1.0  0.37719079266651795  0.1387456907715787  0.39153475143685773  1.0000
  C   C92       1.0  0.6228599146405784  0.8613088139795623  0.6085021762100952  1.0000
  C   C93       1.0  0.0434239099819038  0.3935775126435103  0.10678008601732357  1.0000
  C   C94       1.0  0.9565676624174346  0.6064266709942528  0.8932221572664432  1.0000
  C   C95       1.0  0.5433624449221668  0.10645335128372575  0.3932302746269655  1.0000
  C   C96       1.0  0.4566397415601386  0.893566714179691  0.6067855690291496  1.0000
  C   C97       1.0  0.1924122449814405  0.9609570142019733  0.14980082259678798  1.0000
  C   C98       1.0  0.8075944887856752  0.03903718928302166  0.8501899561291707  1.0000
  C   C99       1.0  0.6904392489060669  0.5392345112212737  0.35016840662050447  1.0000
  C   C100      1.0  0.30954929126441044  0.46076332575894696  0.6498263127726673  1.0000
  Br  Br1       1.0  0.46188203134801853  0.6085475358768803  0.04259079857368421  1.0000
  Br  Br2       1.0  0.5381186369812881  0.3914546039373051  0.9574128880418938  1.0000
  Br  Br3       1.0  0.961933507117287  0.8914377837940605  0.45742192062170517  1.0000
  Br  Br4       1.0  0.0380959683739377  0.10857005400246324  0.5425860579132405  1.0000
  N   N1        1.0  0.96697538445612  0.5750960900185476  0.9236384301438818  1.0000
  N   N2        1.0  0.03301467178744841  0.42490430341520385  0.07635951429332269  1.0000
  N   N3        1.0  0.4670728540934519  0.9249018785870078  0.5763690346004606  1.0000
  N   N4        1.0  0.5329611718662051  0.07512682289679158  0.4236543247481706  1.0000
  O   O1        1.0  0.6089464811530548  0.6796399312051166  0.6997934891377752  1.0000
  O   O2        1.0  0.3910193242178935  0.32037239483465646  0.30018717333627615  1.0000
  O   O3        1.0  0.10872799191749043  0.8202068090128022  0.8003182828732988  1.0000
  O   O4        1.0  0.891280264921356  0.17980468563550286  0.19966309955186287  1.0000
  O   O5        1.0  0.2642998965455945  0.7910406579740156  0.7111599877506974  1.0000
  O   O6        1.0  0.73572047996921  0.2089335549195681  0.28881828087629907  1.0000
  O   O7        1.0  0.7644179494459209  0.7090930874915031  0.7889576233686313  1.0000
  O   O8        1.0  0.2355493620075464  0.29088121475419365  0.21102172428334137  1.0000
  O   O9        1.0  0.26601215877229833  0.6807645926904796  0.7035429381228793  1.0000
  O   O10       1.0  0.7339536323481327  0.31922075250489  0.2964669108599125  1.0000
  O   O11       1.0  0.7658759630874669  0.8192686007393989  0.7963262986829774  1.0000
  O   O12       1.0  0.23412621260777666  0.18071231722838377  0.20369003008964634  1.0000
  O   O13       1.0  0.1077184509605473  0.7140861030284213  0.7924986247530583  1.0000
  O   O14       1.0  0.8922215754273354  0.2859396868243422  0.20751720230673235  1.0000
  O   O15       1.0  0.6075120483438143  0.785672491760181  0.7073390298676544  1.0000
  O   O16       1.0  0.3925083330250629  0.21435300487234335  0.29267787356709357  1.0000
  O   O17       1.0  0.4399701124943931  0.7604775767807298  0.7792032454596337  1.0000
  O   O18       1.0  0.5600138768193119  0.23951318784330763  0.22079365234173312  1.0000
  O   O19       1.0  0.9399868646326938  0.739475155448197  0.7207739639317622  1.0000
  O   O20       1.0  0.05998651173645441  0.2605147570986616  0.2792218591486275  1.0000
  O   O21       1.0  0.2533855582154558  0.5303984367518879  0.8838596867952616  1.0000
  O   O22       1.0  0.7466166274630553  0.46960689159504204  0.1161425524995963  1.0000
  O   O23       1.0  0.7533907391246615  0.9696363899655224  0.6161403258351115  1.0000
  O   O24       1.0  0.24642345174955696  0.03045411535708809  0.38393349635174445  1.0000
  O   O25       1.0  0.6854390352457429  0.6205454449865329  0.9638079819394038  1.0000
  O   O26       1.0  0.31453889182994743  0.37945595754396777  0.036191396631672  1.0000
  O   O27       1.0  0.18575811262556388  0.87935988948729  0.5361396272810238  1.0000
  O   O28       1.0  0.814509391737346  0.12058103140797977  0.4638114377108592  1.0000
  O   O29       1.0  0.20177948163383522  0.91083956232508  0.12820295843285828  1.0000
  O   O30       1.0  0.7982060268103554  0.089151593217224  0.8717817233515673  1.0000
  O   O31       1.0  0.699329341392023  0.5893489874191643  0.37178371222792356  1.0000
  O   O32       1.0  0.30067435936487646  0.41064718728868854  0.6282124490940006  1.0000
