data_image0
_chemical_formula_structural       Cu4H20C24S4N16O8
_chemical_formula_sum              "Cu4 H20 C24 S4 N16 O8"
_cell_length_a       5.85396368886355
_cell_length_b       10.68200856805729
_cell_length_c       14.023312897363303
_cell_angle_alpha    90.00082248247867
_cell_angle_beta     89.99980090501245
_cell_angle_gamma    104.12732402312572

_space_group_name_H-M_alt    "P 1"
_space_group_IT_number       1

loop_
  _space_group_symop_operation_xyz
  'x, y, z'

loop_
  _atom_site_type_symbol
  _atom_site_label
  _atom_site_symmetry_multiplicity
  _atom_site_fract_x
  _atom_site_fract_y
  _atom_site_fract_z
  _atom_site_occupancy
  Cu  Cu1       1.0  0.8613739128648562  0.43430129351780516  0.430357899185907  1.0000
  Cu  Cu2       1.0  0.6386370051569658  0.06570915437842469  0.9303563216853804  1.0000
  Cu  Cu3       1.0  0.13863439927953897  0.5657023126870087  0.5696436896812855  1.0000
  Cu  Cu4       1.0  0.3613609665718514  0.9343090257043728  0.0696474065644139  1.0000
  H   H1        1.0  0.587554114018758  0.30421353568284104  0.30825074331919217  1.0000
  H   H2        1.0  0.9124545210729736  0.19579363185859222  0.8082408729949506  1.0000
  H   H3        1.0  0.4124533873952529  0.6957920106342784  0.6917586896400749  1.0000
  H   H4        1.0  0.08754669358973632  0.8042167879921678  0.19175429803080146  1.0000
  H   H5        1.0  0.5488390464871031  0.26008318429234834  0.18863899751571012  1.0000
  H   H6        1.0  0.9511727843917515  0.2399178168271305  0.6886274068140779  1.0000
  H   H7        1.0  0.4511597701266439  0.7399146678984964  0.8113718616051103  1.0000
  H   H8        1.0  0.04883159071480496  0.7600809722074829  0.31136562485092173  1.0000
  H   H9        1.0  0.8717120630532309  0.33053094784592224  0.07183433983183822  1.0000
  H   H10       1.0  0.6282870193928645  0.16945531863176203  0.5718282060485294  1.0000
  H   H11       1.0  0.12827619980615165  0.6694514782837118  0.9281701013290373  1.0000
  H   H12       1.0  0.371712889574802  0.8305338173990793  0.428168391058712  1.0000
  H   H13       1.0  0.2854701938431177  0.45760099178343694  0.0459528911986453  1.0000
  H   H14       1.0  0.21452982752207816  0.0423852570369334  0.5459530763080593  1.0000
  H   H15       1.0  0.7145176223990859  0.5423804689881209  0.9540458451712581  1.0000
  H   H16       1.0  0.7854739359860404  0.9576048254510358  0.4540449469977546  1.0000
  H   H17       1.0  0.31790657091983127  0.5582945902922846  0.34456687532272673  1.0000
  H   H18       1.0  0.1821040986027286  0.9417064139860899  0.8445671899610617  1.0000
  H   H19       1.0  0.6820995906442138  0.44170805997778473  0.6554282956566696  1.0000
  H   H20       1.0  0.8178928149093211  0.05830209417163701  0.1554336858438035  1.0000
  C   C1        1.0  0.6572761183889639  0.6484786414052195  0.5116930799285626  1.0000
  C   C2        1.0  0.8427220722241416  0.8515320653592725  0.0116987763145957  1.0000
  C   C3        1.0  0.3427359657992568  0.3515220405572422  0.488304230330094  1.0000
  C   C4        1.0  0.1572784142059618  0.14848416532364436  0.9883120829051251  1.0000
  C   C5        1.0  0.8757676652006765  0.3754718235404297  0.2232381776439709  1.0000
  C   C6        1.0  0.6242317463340541  0.12452506629618651  0.7232301340349495  1.0000
  C   C7        1.0  0.12422855421824872  0.6245241074051011  0.7767655504858909  1.0000
  C   C8        1.0  0.37576078352723385  0.8754776594079344  0.2767643238575914  1.0000
  C   C9        1.0  0.9758852365813343  0.38185388185682717  0.1304640483456083  1.0000
  C   C10       1.0  0.5241293275735188  0.11813728650657401  0.6304632275082014  1.0000
  C   C11       1.0  0.02411942015803709  0.6181381312929874  0.8695396797560805  1.0000
  C   C12       1.0  0.4758818633869242  0.8818614648551348  0.3695347958389021  1.0000
  C   C13       1.0  0.20299111370119505  0.4518575778204907  0.11588718564883042  1.0000
  C   C14       1.0  0.2970112165304428  0.04813482870246591  0.6158801694522682  1.0000
  C   C15       1.0  0.7970019794176153  0.5481315959714977  0.8841136900536598  1.0000
  C   C16       1.0  0.7029854494983144  0.9518620674721777  0.3841157146016556  1.0000
  C   C17       1.0  0.3275993354513319  0.5172929385600116  0.1942326952975151  1.0000
  C   C18       1.0  0.17241226349182184  0.9826964880074558  0.6942370382506484  1.0000
  C   C19       1.0  0.6724011026247256  0.4827010334333651  0.8057653280321944  1.0000
  C   C20       1.0  0.8275887036930102  0.017302319955241802  0.3057631243997818  1.0000
  C   C21       1.0  0.22116192739041202  0.5089744633137628  0.283462720787206  1.0000
  C   C22       1.0  0.2788483117810757  0.9910282831186523  0.7834605650288753  1.0000
  C   C23       1.0  0.7788454915223398  0.4910272122224273  0.7165324501858592  1.0000
  C   C24       1.0  0.7211443830703601  0.008982183930150702  0.2165395976918134  1.0000
  S   S1        1.0  0.9229936030738061  0.6631724425134351  0.4683301538440716  1.0000
  S   S2        1.0  0.5769988298786545  0.8368334424246415  0.9683351987378901  1.0000
  S   S3        1.0  0.0770095146859688  0.3368273212889932  0.5316664433185494  1.0000
  S   S4        1.0  0.4229891997031174  0.16317801829968911  0.0316735211710863  1.0000
  N   N1        1.0  0.46481324347788444  0.6356971348024699  0.542398463296017  1.0000
  N   N2        1.0  0.03518172872283291  0.8643165903013355  0.04240265576487451  1.0000
  N   N3        1.0  0.535202248637468  0.36430352832692864  0.4576016993528214  1.0000
  N   N4        1.0  0.9648132816975663  0.13570257399974392  0.9576067772787411  1.0000
  N   N5        1.0  0.0009649419113628847  0.4399153098520969  0.298613007266475  1.0000
  N   N6        1.0  0.4990449313321862  0.0600853732491089  0.7986086479839258  1.0000
  N   N7        1.0  0.9990386224663582  0.5600854193219789  0.7013907208836372  1.0000
  N   N8        1.0  0.5009537686338706  0.9399269960829817  0.2013879492510071  1.0000
  N   N9        1.0  0.656227770562488  0.30689875481369466  0.2412087698554828  1.0000
  N   N10       1.0  0.8437763257265517  0.19309748355035342  0.7412046857134414  1.0000
  N   N11       1.0  0.34376629828149424  0.6930962202921123  0.7587985237621879  1.0000
  N   N12       1.0  0.1562268745279099  0.8069061509176267  0.2587940507649975  1.0000
  N   N13       1.0  0.5654448320865983  0.5919382142644879  0.1841111939720008  1.0000
  N   N14       1.0  0.9345535795498139  0.9080573866422059  0.6841121606738341  1.0000
  N   N15       1.0  0.4345526446740848  0.4080567418249927  0.8158796983828793  1.0000
  N   N16       1.0  0.06544828086317982  0.09194335192803753  0.31588800198640854  1.0000
  O   O1        1.0  0.6578146080384998  0.6611752473439766  0.2526323956471757  1.0000
  O   O2        1.0  0.8421969804648983  0.8388167465947873  0.752640600099248  1.0000
  O   O3        1.0  0.34218806310487077  0.3388235511139611  0.7473599229209924  1.0000
  O   O4        1.0  0.157807758765685  0.1611791371595004  0.24735884943393674  1.0000
  O   O5        1.0  0.6709051174217253  0.5841545660117192  0.10781882314422832  1.0000
  O   O6        1.0  0.8290970660693944  0.9158405291664946  0.6078314543837778  1.0000
  O   O7        1.0  0.3290880581855902  0.4158384783372214  0.8921727823019552  1.0000
  O   O8        1.0  0.17090649830600307  0.08416019996685262  0.3921679951767771  1.0000
