data_image0
_chemical_formula_structural       Al4H71C69N21O20
_chemical_formula_sum              "Al4 H71 C69 N21 O20"
_cell_length_a       6.6433479932257695
_cell_length_b       22.70307961593833
_cell_length_c       23.13359829531735
_cell_angle_alpha    111.69286465465399
_cell_angle_beta     91.61205653058501
_cell_angle_gamma    93.14365116330809

_space_group_name_H-M_alt    "P 1"
_space_group_IT_number       1

loop_
  _space_group_symop_operation_xyz
  'x, y, z'

loop_
  _atom_site_type_symbol
  _atom_site_label
  _atom_site_symmetry_multiplicity
  _atom_site_fract_x
  _atom_site_fract_y
  _atom_site_fract_z
  _atom_site_occupancy
  Al  Al1       1.0  0.8831878491308985  0.49968334209189186  0.49812780352262825  1.0000
  Al  Al2       1.0  0.3829899697220469  0.5007453383170741  0.49789205530804276  1.0000
  Al  Al3       1.0  0.35372290693624825  0.0026858604670821004  0.0026803784502150005  1.0000
  Al  Al4       1.0  0.852568265252529  0.9992084071129174  0.002962782740390061  1.0000
  H   H1        1.0  0.8199507382202497  0.7789303505376638  0.12999900090885325  1.0000
  H   H2        1.0  0.4365317068742769  0.6985291947813934  0.34302877120350667  1.0000
  H   H3        1.0  0.38022061711200184  0.350383028971244  0.561354732710214  1.0000
  H   H4        1.0  0.3482322042182134  0.1613749139055187  0.9426308697273669  1.0000
  H   H5        1.0  0.29267668590577495  0.83760953319981  0.9208426159705069  1.0000
  H   H6        1.0  0.6018987265914433  0.8494033704890286  0.8744662248214681  1.0000
  H   H7        1.0  0.5680994833461456  0.7690987555737863  0.8245318831450419  1.0000
  H   H8        1.0  0.611754334198032  0.7879969547318666  0.9057670493340524  1.0000
  H   H9        1.0  0.7979814493160262  0.8567343941298801  0.07646866157993763  1.0000
  H   H10       1.0  0.5760929149627287  0.6804781245575812  0.41666591292935357  1.0000
  H   H11       1.0  0.5981254013633831  0.7024565576454337  0.5191029435450433  1.0000
  H   H12       1.0  0.40092393223098804  0.6454071550629126  0.5150412092202928  1.0000
  H   H13       1.0  0.34399614781812454  0.7201060331828516  0.5106921745706572  1.0000
  H   H14       1.0  0.786879487110454  0.5356362830383006  0.37848935622228197  1.0000
  H   H15       1.0  0.6869392508053592  0.5073039203439861  0.24805130310448928  1.0000
  H   H16       1.0  0.5609154051752867  0.5753492111981872  0.29363012129537946  1.0000
  H   H17       1.0  0.5204734212658408  0.5031146859879456  0.30599349949223154  1.0000
  H   H18       1.0  0.8549765517911465  0.6092540294209883  0.2643638209403321  1.0000
  H   H19       1.0  0.20722054958478256  0.27336768965567876  0.5938524609387841  1.0000
  H   H20       1.0  0.4676436700859909  0.1973248320266094  0.5433120789249912  1.0000
  H   H21       1.0  0.2778870276385916  0.16817607192719922  0.5817025389558452  1.0000
  H   H22       1.0  0.5207112976046274  0.1965411126801513  0.618691776775627  1.0000
  H   H23       1.0  0.8458932631353377  0.37925294560215417  0.7849682676796732  1.0000
  H   H24       1.0  0.2003356150913973  0.40445836607133856  0.7848372239140176  1.0000
  H   H25       1.0  0.1623148094590405  0.4079021179712399  0.7097581270409349  1.0000
  H   H26       1.0  0.12606569277681248  0.3337489311948402  0.7194948772249816  1.0000
  H   H27       1.0  0.9413005867697777  0.482909704078786  0.7404657999516362  1.0000
  H   H28       1.0  0.015747039730335612  0.5291593195378611  0.6451295813446123  1.0000
  H   H29       1.0  0.9743467633731767  0.5753157532773869  0.7243701496716923  1.0000
  H   H30       1.0  0.7691367000984216  0.5489599888087684  0.667772925289846  1.0000
  H   H31       1.0  0.36953133826709456  0.2268902239676436  0.8766708736711308  1.0000
  H   H32       1.0  0.6554607975362501  0.878832040524621  0.7680297831075578  1.0000
  H   H33       1.0  0.722580480296038  0.9886183780602875  0.8075516432455245  1.0000
  H   H34       1.0  0.9360658629840515  0.9554127870880578  0.7644558199685605  1.0000
  H   H35       1.0  0.945288525762919  0.9818452462102271  0.8474869192192855  1.0000
  H   H36       1.0  0.911757181290646  0.0855261994444305  0.8763920975009825  1.0000
  H   H37       1.0  0.9628016405289584  0.17291426595468806  0.7718632886702183  1.0000
  H   H38       1.0  0.1853943622427963  0.097626065388269  0.829701182323646  1.0000
  H   H39       1.0  0.2243168023200042  0.10634941708571694  0.7579871909261016  1.0000
  H   H40       1.0  0.03343209470691019  0.049602196775318  0.7620943633818058  1.0000
  H   H41       1.0  0.41938265522660606  0.1849460320386953  0.1394973378166071  1.0000
  H   H42       1.0  0.9337907728667645  0.08812443591401121  0.2540559636304351  1.0000
  H   H43       1.0  0.2116505447956243  0.12808585177671009  0.2098648566927253  1.0000
  H   H44       1.0  0.09071880142338529  0.0848128127869501  0.1351686200947668  1.0000
  H   H45       1.0  0.17988901240859428  0.043251112151431  0.1813070668388974  1.0000
  H   H46       1.0  0.18966870742825387  0.32988936021051524  0.2110878752939414  1.0000
  H   H47       1.0  0.24371429681223586  0.2989636307861261  0.103186643153343  1.0000
  H   H48       1.0  0.47073132753192226  0.26574934312420606  0.11405414887126851  1.0000
  H   H49       1.0  0.4560907138127561  0.3496197907921114  0.14657423276134549  1.0000
  H   H50       1.0  0.9137631781361222  0.19303795651065767  0.30641501063679044  1.0000
  H   H51       1.0  0.36052911407293203  0.3885912580408188  0.3043804089843718  1.0000
  H   H52       1.0  0.8352309406190273  0.25276645856765606  0.3866767297780811  1.0000
  H   H53       1.0  0.11668401469992057  0.2914029147514938  0.3388547898635608  1.0000
  H   H54       1.0  0.14309376405006446  0.31468190339052876  0.42158190784190447  1.0000
  H   H55       1.0  0.060379197835786186  0.3692707407435663  0.3893510053234976  1.0000
  H   H56       1.0  0.3697854994340375  0.6931540603575357  0.8039766496313591  1.0000
  H   H57       1.0  0.7950917442919234  0.801433376350296  0.7022593822142653  1.0000
  H   H58       1.0  0.4088648676956622  0.5645663371999134  0.6552439547665189  1.0000
  H   H59       1.0  0.5230154534006459  0.5335799857507482  0.7337475392497764  1.0000
  H   H60       1.0  0.35738937072488136  0.5855139122294091  0.7846959160193946  1.0000
  H   H61       1.0  0.6057656504446811  0.6144295206758129  0.7766840718452173  1.0000
  H   H62       1.0  0.8008748264935477  0.7353309758211779  0.6356736376713812  1.0000
  H   H63       1.0  0.9290072452475682  0.7350647533042218  0.5464043425737302  1.0000
  H   H64       1.0  0.8786528963250078  0.6507043330688518  0.5203782496427181  1.0000
  H   H65       1.0  0.11953726493267423  0.6860317513183177  0.5530237965285565  1.0000
  H   H66       1.0  0.4183437876640354  0.9221563323263595  0.13250572278421666  1.0000
  H   H67       1.0  0.4372855449707557  0.8476202871074108  0.18958212953693732  1.0000
  H   H68       1.0  0.6556362628507983  0.579936029580594  0.5434596920849799  1.0000
  H   H69       1.0  0.12369994540473069  0.43097161365373887  0.5133737082761058  1.0000
  H   H70       1.0  0.5817075212605116  0.9250538684123483  0.9497712185897669  1.0000
  H   H71       1.0  0.10908740232491708  0.0764062950250732  0.999712884774155  1.0000
  C   C1        1.0  0.633925182231991  0.4451286877219687  0.5720123456649375  1.0000
  C   C2        1.0  0.6018886986495814  0.4076970700240494  0.4031321195708771  1.0000
  C   C3        1.0  0.1326878471726332  0.5597096313960677  0.42864263701852684  1.0000
  C   C4        1.0  0.16015411773603463  0.5961623635325708  0.5943337323345333  1.0000
  C   C5        1.0  0.05521659177126988  0.8533864240912763  0.8422655342252269  1.0000
  C   C6        1.0  0.1661764847829375  0.6504602669795291  0.6546921748887089  1.0000
  C   C7        1.0  0.28363822966166913  0.6961869375525114  0.7647785504954641  1.0000
  C   C8        1.0  0.2903407576273551  0.6482153588042506  0.7063117853624233  1.0000
  C   C9        1.0  0.030729020370657157  0.6985103909368744  0.6654321170453059  1.0000
  C   C10       1.0  0.02928224189048479  0.7487466259358015  0.7260863307824224  1.0000
  C   C11       1.0  0.16656151524047397  0.7488149798151795  0.7745153871314727  1.0000
  C   C12       1.0  0.18320208010841546  0.8033063692646679  0.8324030592985353  1.0000
  C   C13       1.0  0.9059183645908319  0.8494415857454811  0.794750375700943  1.0000
  C   C14       1.0  0.9012819078550507  0.7990893256152065  0.738108246650711  1.0000
  C   C15       1.0  0.28768699431562067  0.8911453726265605  0.13299906227944547  1.0000
  C   C16       1.0  0.29845377859707867  0.8496671327159503  0.16438715728579462  1.0000
  C   C17       1.0  0.1306839159559772  0.808139978871452  0.1623741508922194  1.0000
  C   C18       1.0  0.9491216475330545  0.8111016881566828  0.1310552723900075  1.0000
  C   C19       1.0  0.9372894343026346  0.8539133582761095  0.10108729434378459  1.0000
  C   C20       1.0  0.10760467767517667  0.8930950225992972  0.10071560670668582  1.0000
  C   C21       1.0  0.15680306232556518  0.6881594448133583  0.2547556408924052  1.0000
  C   C22       1.0  0.14713143438033427  0.7611171654765556  0.1917212352012498  1.0000
  C   C23       1.0  0.3085244638227848  0.6661785588807518  0.34257538426226825  1.0000
  C   C24       1.0  0.3021271742076479  0.6388679290576106  0.3879712969264446  1.0000
  C   C25       1.0  0.13276057302017108  0.5973655608157885  0.38849439562319077  1.0000
  C   C26       1.0  0.9652968882800008  0.5876417241991164  0.3433298574130604  1.0000
  C   C27       1.0  0.9785623708248606  0.6162569565716468  0.2985458758620466  1.0000
  C   C28       1.0  0.1488599923482496  0.654937585144431  0.2984380113085336  1.0000
  C   C29       1.0  0.4812835116916787  0.360565253724218  0.6023778575846421  1.0000
  C   C30       1.0  0.4704331047995112  0.32034828080943356  0.6353309870456129  1.0000
  C   C31       1.0  0.6136458757112209  0.3320956166794318  0.68572666282504  1.0000
  C   C32       1.0  0.7581944799644659  0.3832971507808978  0.7021659892093693  1.0000
  C   C33       1.0  0.762251638200823  0.4265432208745991  0.6699051495489172  1.0000
  C   C34       1.0  0.6262754148055123  0.41251998075162544  0.6172594303503232  1.0000
  C   C35       1.0  0.633940812815908  0.22519495543988907  0.793707585041787  1.0000
  C   C36       1.0  0.6145547909390814  0.2902373627853905  0.721755454359105  1.0000
  C   C37       1.0  0.4882981991548617  0.1957585015784531  0.8769422803601897  1.0000
  C   C38       1.0  0.47526335327968644  0.1592276926739586  0.9133062855330322  1.0000
  C   C39       1.0  0.6285686993190963  0.11815420169929068  0.9113472669616057  1.0000
  C   C40       1.0  0.7935729569414463  0.11636131860281303  0.87533202586949  1.0000
  C   C41       1.0  0.8082739703178133  0.1518251246631124  0.8363855163754224  1.0000
  C   C42       1.0  0.6469299504777053  0.19182965736585805  0.8365106174501094  1.0000
  C   C43       1.0  0.6555506271659224  0.1388277163877021  0.16597617026570077  1.0000
  C   C44       1.0  0.5886773895715081  0.349719983699373  0.3450273311357178  1.0000
  C   C45       1.0  0.4312393236787172  0.2972875275406678  0.23965509191227596  1.0000
  C   C46       1.0  0.45148262949107487  0.3479491764989504  0.2963440107059796  1.0000
  C   C47       1.0  0.7068028576306274  0.29870816190228316  0.3381793773420085  1.0000
  C   C48       1.0  0.6866515341068721  0.2450876657945926  0.2803243031326161  1.0000
  C   C49       1.0  0.5497694655257986  0.24397160809933643  0.23082185440804182  1.0000
  C   C50       1.0  0.5338751518254197  0.18899233964911133  0.17562861723023102  1.0000
  C   C51       1.0  0.7961125761506835  0.1400121727471344  0.21459164281304768  1.0000
  C   C52       1.0  0.8046341234348658  0.19238396447308756  0.2699838381509139  1.0000
  C   C53       1.0  0.6325195664334586  0.08520860893067089  0.1043678714299574  1.0000
  C   C54       1.0  0.614699060369169  0.07381409735891252  0.9457971347030779  1.0000
  C   C55       1.0  0.07453096041216871  0.9102464399607373  0.9018361320423055  1.0000
  C   C56       1.0  0.10143309215568051  0.9347551743520058  0.06386415480451293  1.0000
  C   C57       1.0  0.5359669030407872  0.8024339689059518  0.8708242287338237  1.0000
  C   C58       1.0  0.4495860593203815  0.6819273675597799  0.497095981689803  1.0000
  C   C59       1.0  0.6346472715936146  0.5334895049257398  0.2949083926494112  1.0000
  C   C60       1.0  0.402384768865545  0.20439482273855702  0.5887237331259243  1.0000
  C   C61       1.0  0.1073634443825853  0.3849614453333318  0.7411325014531657  1.0000
  C   C62       1.0  0.9127979838156788  0.5357290057828337  0.6826894309920704  1.0000
  C   C63       1.0  0.8476512384204181  0.9583905081063477  0.8052644935208874  1.0000
  C   C64       1.0  0.1081388695583811  0.0973420484730951  0.7869894799291898  1.0000
  C   C65       1.0  0.10923901427897682  0.08633311677576931  0.18272467514243124  1.0000
  C   C66       1.0  0.37020973197850543  0.30344845749324634  0.13647689699356394  1.0000
  C   C67       1.0  0.050969708283382396  0.3191222896720447  0.38338589114555083  1.0000
  C   C68       1.0  0.47510317018318193  0.5822528346162555  0.7511109889661468  1.0000
  C   C69       1.0  0.957820622533454  0.6924025270770571  0.5564671251125192  1.0000
  N   N1        1.0  0.9983023932224241  0.7142762017607254  0.17931067652751412  1.0000
  N   N2        1.0  0.002958912463931541  0.6771620057884747  0.2116698274335747  1.0000
  N   N3        1.0  0.32525083716499376  0.7255997713300957  0.2569486582726697  1.0000
  N   N4        1.0  0.3201184852775539  0.7628886594723027  0.22497253006680032  1.0000
  N   N5        1.0  0.44957273712399365  0.2859502957799833  0.7540286196152834  1.0000
  N   N6        1.0  0.45711902867575555  0.25180841838852797  0.7889514597750562  1.0000
  N   N7        1.0  0.7894194942751867  0.2251640968959236  0.7567808077264999  1.0000
  N   N8        1.0  0.7775624205133981  0.2567909131985359  0.7189859328696571  1.0000
  N   N9        1.0  0.3175718248034443  0.8024357829601526  0.879670596541324  1.0000
  N   N10       1.0  0.46899325970098726  0.6551339273268653  0.4300498930132902  1.0000
  N   N11       1.0  0.79772954473421  0.5501143308019322  0.34189018469550797  1.0000
  N   N12       1.0  0.3276611466698824  0.26742518733610154  0.6188373042981397  1.0000
  N   N13       1.0  0.895202639689927  0.39909677511332853  0.7545941572438863  1.0000
  N   N14       1.0  0.8899873400696519  0.4795210448118112  0.6973764696564118  1.0000
  N   N15       1.0  0.7664959192699782  0.8963363161025129  0.8024663370276032  1.0000
  N   N16       1.0  0.9674688033617969  0.1465181807091938  0.7995526402031601  1.0000
  N   N17       1.0  0.9109939709557652  0.0877920225141722  0.21013072612786488  1.0000
  N   N18       1.0  0.2907315502627483  0.2966299054183922  0.19243469891749504  1.0000
  N   N19       1.0  0.8398276404642148  0.2979096016719183  0.3871194152242481  1.0000
  N   N20       1.0  0.3993935642084735  0.5966227224380916  0.6991148064291011  1.0000
  N   N21       1.0  0.8998932284937736  0.7015218919978565  0.619155635274474  1.0000
  O   O1        1.0  0.43831315513411073  0.4339030984914132  0.4219527221288644  1.0000
  O   O2        1.0  0.8073690939324081  0.4596010852103022  0.5563617558673855  1.0000
  O   O3        1.0  0.9892540434599013  0.5754838963359534  0.5652821896705974  1.0000
  O   O4        1.0  0.7753548055205713  0.4281777595922733  0.42973810889685643  1.0000
  O   O5        1.0  0.9614536175344668  0.5376019385367812  0.43980571628021176  1.0000
  O   O6        1.0  0.4645523100195915  0.45307008746172533  0.5487610651072927  1.0000
  O   O7        1.0  0.6417027066379362  0.5399272775979753  0.5078662004672979  1.0000
  O   O8        1.0  0.3001583086199276  0.5490667223716343  0.4500843587949249  1.0000
  O   O9        1.0  0.32694456066117544  0.5710888151258474  0.575090919391819  1.0000
  O   O10       1.0  0.12677275556585244  0.4627489666788876  0.4945747445319881  1.0000
  O   O11       1.0  0.7805960383017022  0.05493956081699032  0.959194071054398  1.0000
  O   O12       1.0  0.4554071104340095  0.0684584537828385  0.078792479510355  1.0000
  O   O13       1.0  0.27127686632110937  0.9535793075694128  0.050186726539379674  1.0000
  O   O14       1.0  0.43863895612977194  0.05766838514718131  0.9580388866366292  1.0000
  O   O15       1.0  0.252086578232273  0.9337459831112159  0.9248920034964812  1.0000
  O   O16       1.0  0.7927413977252867  0.061403688618021604  0.0800946599908059  1.0000
  O   O17       1.0  0.592055985504075  0.9620009985394374  0.9884621098148116  1.0000
  O   O18       1.0  0.9119806881328644  0.9322823607240878  0.9264904329833641  1.0000
  O   O19       1.0  0.9294680227348235  0.9470603555587188  0.04737608942505734  1.0000
  O   O20       1.0  0.10947527441879859  0.0393583304914742  0.011046242232659204  1.0000
