data_image0
_chemical_formula_structural       Sm2H12C12O18
_chemical_formula_sum              "Sm2 H12 C12 O18"
_cell_length_a       8.27045614178892
_cell_length_b       8.541243187843076
_cell_length_c       9.015839029395798
_cell_angle_alpha    94.60794665109768
_cell_angle_beta     116.65846706301046
_cell_angle_gamma    111.04296389471284

_space_group_name_H-M_alt    "P 1"
_space_group_IT_number       1

loop_
  _space_group_symop_operation_xyz
  'x, y, z'

loop_
  _atom_site_type_symbol
  _atom_site_label
  _atom_site_symmetry_multiplicity
  _atom_site_fract_x
  _atom_site_fract_y
  _atom_site_fract_z
  _atom_site_occupancy
  Sm  Sm1       1.0  0.41135455813704164  0.9815426278966298  0.2276423742160532  1.0000
  Sm  Sm2       1.0  0.5886449750936367  0.018457796250565702  0.772357139266312  1.0000
  H   H1        1.0  0.14488607260999237  0.10737132756432288  0.9403993233417226  1.0000
  H   H2        1.0  0.8551087750064142  0.8926251408101109  0.05959907545476986  1.0000
  H   H3        1.0  0.5976822438639289  0.8008690404321824  0.09497537035888831  1.0000
  H   H4        1.0  0.4023132784985466  0.19912873042819262  0.9050256269834237  1.0000
  H   H5        1.0  0.5334662078303651  0.6760645857911738  0.20407504641157467  1.0000
  H   H6        1.0  0.46652934652331635  0.3239305781838838  0.7959246415941409  1.0000
  H   H7        1.0  0.29852860706412093  0.6933385037119989  0.38297604435505417  1.0000
  H   H8        1.0  0.701469560312539  0.30666191432681705  0.6170218054432796  1.0000
  H   H9        1.0  0.20156140964157737  0.5906166096661848  0.1867428619644401  1.0000
  H   H10       1.0  0.7984374168518259  0.40938511888038676  0.8132553623086951  1.0000
  H   H11       1.0  0.3379323214848853  0.2779404315093642  0.09956845156939657  1.0000
  H   H12       1.0  0.6620618272089022  0.7220573372535386  0.9004297700533785  1.0000
  C   C1        1.0  0.1525574648868399  0.7789230776328252  0.8083024743627263  1.0000
  C   C2        1.0  0.8474433943920021  0.2210799635189744  0.19169890010473278  1.0000
  C   C3        1.0  0.9643110460731635  0.6689707484419996  0.6484921180241942  1.0000
  C   C4        1.0  0.03566829996717058  0.331016477456558  0.35149591015414944  1.0000
  C   C5        1.0  0.6073562545570397  0.4416856765518132  0.38085700089608576  1.0000
  C   C6        1.0  0.3926480040937861  0.5583160924719051  0.6191434299710751  1.0000
  C   C7        1.0  0.16221780433316008  0.9932698077223989  0.38445595161864093  1.0000
  C   C8        1.0  0.8377878201716982  0.006731967409699298  0.6155461429325443  1.0000
  C   C9        1.0  0.8008227427418222  0.5747829619258907  0.5198544678594034  1.0000
  C   C10       1.0  0.19919226007372967  0.4252293115825053  0.4801567255777003  1.0000
  C   C11       1.0  0.044073830969217846  0.9969998703806979  0.46202193854670537  1.0000
  C   C12       1.0  0.9559344861703498  0.003001937022709502  0.5379779231949516  1.0000
  O   O1        1.0  0.14061699470030206  0.7883664564817677  0.9440430900663799  1.0000
  O   O2        1.0  0.8593845556864824  0.21163528829247719  0.05595734953928406  1.0000
  O   O3        1.0  0.2919800515346652  0.1576212017276291  0.02883688507742482  1.0000
  O   O4        1.0  0.7080174723545838  0.8423778977816099  0.971162814317154  1.0000
  O   O5        1.0  0.09540152978740214  0.9802126747731207  0.22445124410248243  1.0000
  O   O6        1.0  0.9045960019165168  0.019786420725210998  0.7755495673276089  1.0000
  O   O7        1.0  0.23272917466597684  0.6991116953178108  0.2608777041773963  1.0000
  O   O8        1.0  0.7672676503006671  0.3008887045798972  0.739121818043465  1.0000
  O   O9        1.0  0.3379741434791655  0.0048885731899801  0.48183572838679123  1.0000
  O   O10       1.0  0.6620334505612604  0.9951171374763063  0.51816637755325  1.0000
  O   O11       1.0  0.31119221421489845  0.8560082757262177  0.80251544737461  1.0000
  O   O12       1.0  0.6888066520843739  0.14399084192412906  0.1974825795974483  1.0000
  O   O13       1.0  0.5324612686599792  0.7817584362450275  0.16597378899289345  1.0000
  O   O14       1.0  0.46753561174185887  0.21823934473464127  0.8340277599979232  1.0000
  O   O15       1.0  0.5613887513156044  0.28903362137790367  0.4038172227216634  1.0000
  O   O16       1.0  0.4386127990711799  0.7109681233963413  0.5961832168839934  1.0000
  O   O17       1.0  0.4976163511845187  0.47788199622570454  0.2505867196549475  1.0000
  O   O18       1.0  0.5023886298329218  0.5221184603768235  0.7494172244924828  1.0000
