data_image0
_chemical_formula_structural       Cd3H60C88O24
_chemical_formula_sum              "Cd3 H60 C88 O24"
_cell_length_a       15.511317577774903
_cell_length_b       16.150802224455532
_cell_length_c       18.18005239943206
_cell_angle_alpha    107.36423237728249
_cell_angle_beta     101.82696551130222
_cell_angle_gamma    111.77205593566188

_space_group_name_H-M_alt    "P 1"
_space_group_IT_number       1

loop_
  _space_group_symop_operation_xyz
  'x, y, z'

loop_
  _atom_site_type_symbol
  _atom_site_label
  _atom_site_symmetry_multiplicity
  _atom_site_fract_x
  _atom_site_fract_y
  _atom_site_fract_z
  _atom_site_occupancy
  Cd  Cd1       1.0  0.9696419030253484  0.8190415852112309  0.08796589467083042  1.0000
  Cd  Cd2       1.0  0.03037187996367413  0.18097213832293596  0.9120379451644284  1.0000
  Cd  Cd3       1.0  7.570732627499503e-06  9.685204744900028e-06  0.9999964328903632  1.0000
  H   H1        1.0  0.9713195549501207  0.5565470441462282  0.1580263167674403  1.0000
  H   H2        1.0  0.02872738509789496  0.44338282388154954  0.8418926754349272  1.0000
  H   H3        1.0  0.026787127937353807  0.4808871431201285  0.24552772637343181  1.0000
  H   H4        1.0  0.9732717861078868  0.5190756280991521  0.7544152846976361  1.0000
  H   H5        1.0  0.2861459329864858  0.758347047567213  0.4015539211362907  1.0000
  H   H6        1.0  0.7137592596365822  0.24171158277085425  0.5985026667637571  1.0000
  H   H7        1.0  0.23174712744666692  0.8316183525677304  0.3099492727999191  1.0000
  H   H8        1.0  0.7681293074787376  0.16841972411411635  0.6901038727372538  1.0000
  H   H9        1.0  0.14036654553231645  0.43521537355397305  0.2816020591617488  1.0000
  H   H10       1.0  0.859645240528998  0.5647983416925869  0.7184036187490008  1.0000
  H   H11       1.0  0.19778498877888517  0.8150914536454085  0.5407239309062251  1.0000
  H   H12       1.0  0.8022138832177603  0.18492954695466327  0.4592620837703905  1.0000
  H   H13       1.0  0.11776628759643884  0.7018631506718409  0.5420772700488997  1.0000
  H   H14       1.0  0.8822531006296545  0.2981827151104711  0.45796024155770004  1.0000
  H   H15       1.0  0.11714785193997565  0.7110668133124635  0.4455729742014328  1.0000
  H   H16       1.0  0.8828297027804484  0.28891901587273594  0.5544356961100547  1.0000
  H   H17       1.0  0.34328112803339644  0.3758158272709054  0.5766455810479983  1.0000
  H   H18       1.0  0.6567183957243188  0.6242044062684545  0.42337995395940464  1.0000
  H   H19       1.0  0.39131621637632463  0.44549412623725715  0.5210508776988902  1.0000
  H   H20       1.0  0.6086839810745489  0.5544523418050036  0.4789267636002423  1.0000
  H   H21       1.0  0.2909881577151694  0.32209586932406614  0.4659562092367936  1.0000
  H   H22       1.0  0.7089653889578005  0.6778686683137212  0.5340722334634196  1.0000
  H   H23       1.0  0.5414083078564786  0.6834752349137859  0.5663109332785154  1.0000
  H   H24       1.0  0.4585625595455626  0.3165069556526633  0.4336592696313987  1.0000
  H   H25       1.0  0.5301266727318109  0.7748357846401678  0.6431226340775995  1.0000
  H   H26       1.0  0.46983559106688944  0.22516833083756893  0.3568187835317859  1.0000
  H   H27       1.0  0.4318275251131992  0.6997012720527351  0.544128748474094  1.0000
  H   H28       1.0  0.5681153511230903  0.3002252988433299  0.4558261721325039  1.0000
  H   H29       1.0  0.2384386936375266  0.34848181643266696  0.26177677734572313  1.0000
  H   H30       1.0  0.7615599820667925  0.6515274926808488  0.7382066753329752  1.0000
  H   H31       1.0  0.1781349226324167  0.17315857062345694  0.1738340389451665  1.0000
  H   H32       1.0  0.8218647707547576  0.8268543911240871  0.8261544088657974  1.0000
  H   H33       1.0  0.02646217736096189  0.08898384101308209  0.3323192354342198  1.0000
  H   H34       1.0  0.9736003892914623  0.9110344049762915  0.6677066906087249  1.0000
  H   H35       1.0  0.08821331923983419  0.26533326206550367  0.42277263203622084  1.0000
  H   H36       1.0  0.911848595492259  0.7346835243571167  0.5772489419308331  1.0000
  H   H37       1.0  0.3710116344011924  0.7246487443997157  0.8508952137322441  1.0000
  H   H38       1.0  0.6289722494441036  0.2753056768710921  0.14911623360278983  1.0000
  H   H39       1.0  0.13555304425884182  0.7543256875594725  0.7015339491343441  1.0000
  H   H40       1.0  0.8643924998155513  0.2456081873515928  0.2984343758191558  1.0000
  H   H41       1.0  0.05359337476313204  0.8226355009890515  0.789166123823428  1.0000
  H   H42       1.0  0.9463493197884603  0.17730202531303269  0.21079549745723367  1.0000
  H   H43       1.0  0.13027320340440698  0.6994062865015707  0.9558993109135658  1.0000
  H   H44       1.0  0.8697809274241591  0.3006586986227262  0.044133543519194435  1.0000
  H   H45       1.0  0.2198688151851728  0.637049682886833  0.8722186234267045  1.0000
  H   H46       1.0  0.7801820997594291  0.3630043246225583  0.1278190134099475  1.0000
  H   H47       1.0  0.4804001754625915  0.5599580859138342  0.7852894394600372  1.0000
  H   H48       1.0  0.5195979160272728  0.4400073206918195  0.21474616227615687  1.0000
  H   H49       1.0  0.569866627095422  0.8606274906498614  0.8240427911744348  1.0000
  H   H50       1.0  0.4301189788370364  0.13932038145199505  0.1759452405642534  1.0000
  H   H51       1.0  0.7356111338338351  0.9098259778371302  0.9236861004358587  1.0000
  H   H52       1.0  0.2643845192870771  0.09014750533007294  0.0763027813732222  1.0000
  H   H53       1.0  0.6454773661094606  0.61061347415923  0.8876040218449506  1.0000
  H   H54       1.0  0.3545302978100225  0.38936512799141826  0.11242192631726067  1.0000
  H   H55       1.0  0.9797190955450221  0.4845486237369415  0.560911220449988  1.0000
  H   H56       1.0  0.02029092997406676  0.5155045682254524  0.43907647525498567  1.0000
  H   H57       1.0  0.057328858596228834  0.500640327804689  0.6573465410493073  1.0000
  H   H58       1.0  0.9426825531325135  0.49935223328653683  0.34261664818842513  1.0000
  H   H59       1.0  0.07315546025922974  0.4438481951444261  0.5634043597086348  1.0000
  H   H60       1.0  0.9268236375753177  0.5561705974120913  0.4365313035752863  1.0000
  C   C1        1.0  0.06034236584355328  0.7449659505156421  0.17943117857046798  1.0000
  C   C2        1.0  0.9395971624030109  0.2549986020947729  0.8205347837455577  1.0000
  C   C3        1.0  0.09720990174741236  0.6991779924070658  0.22989949276981048  1.0000
  C   C4        1.0  0.9027534855794244  0.30080123171234163  0.7700900335433332  1.0000
  C   C5        1.0  0.04069955727268851  0.5996314646865102  0.2109021374885103  1.0000
  C   C6        1.0  0.9593269629735914  0.40033557352329313  0.7890537586268921  1.0000
  C   C7        1.0  0.07213806793875942  0.5579327408048941  0.2602422709637083  1.0000
  C   C8        1.0  0.92789331246842  0.4420474672237376  0.739714666652226  1.0000
  C   C9        1.0  0.15936171908178656  0.614970915923962  0.3312789228824471  1.0000
  C   C10       1.0  0.8406244980265924  0.38503321999580475  0.6687218248949947  1.0000
  C   C11       1.0  0.21733833074048906  0.7141573595072117  0.34819609094716253  1.0000
  C   C12       1.0  0.7825847653458523  0.28587869195578014  0.651841280868382  1.0000
  C   C13       1.0  0.18705055079101396  0.7552931754125612  0.29761767422961344  1.0000
  C   C14       1.0  0.8128601161094763  0.244730414089922  0.7024169277610355  1.0000
  C   C15       1.0  0.18654292411096662  0.5695055509796348  0.38508212901084  1.0000
  C   C16       1.0  0.8134542111908872  0.4304993518968132  0.6149180385901404  1.0000
  C   C17       1.0  0.1715589530990728  0.47318354933628376  0.3487184132839048  1.0000
  C   C18       1.0  0.8284496158639386  0.5268345409454015  0.6512867358348233  1.0000
  C   C19       1.0  0.19300640552925333  0.42220644728219275  0.3936066909443028  1.0000
  C   C20       1.0  0.8070262919526101  0.5778124527950865  0.6063980705543841  1.0000
  C   C21       1.0  0.23348677750322372  0.4717413368542155  0.48079087750314653  1.0000
  C   C22       1.0  0.7665446333150642  0.5282833969615837  0.5192228881274448  1.0000
  C   C23       1.0  0.24733301150174478  0.5675839446995925  0.5200802637436724  1.0000
  C   C24       1.0  0.7526828805793925  0.4324385514933553  0.479927915082726  1.0000
  C   C25       1.0  0.22393116205270766  0.6161818316219085  0.4727613746815679  1.0000
  C   C26       1.0  0.7760731327754015  0.3838384347621402  0.52724632687886  1.0000
  C   C27       1.0  0.16312883809992945  0.7351657740921241  0.5098024162029305  1.0000
  C   C28       1.0  0.8368653630933237  0.26484422840081834  0.49020461514692937  1.0000
  C   C29       1.0  0.3242009258147718  0.39012092203859083  0.5218873123360694  1.0000
  C   C30       1.0  0.6757938778606488  0.6098693473773765  0.4781223356781014  1.0000
  C   C31       1.0  0.48950158229153834  0.7014364323809235  0.592182036661484  1.0000
  C   C32       1.0  0.5104696418266242  0.2985479501576479  0.407789907515948  1.0000
  C   C33       1.0  0.1662374291615621  0.3186837614745316  0.3475902724497004  1.0000
  C   C34       1.0  0.8337887142679821  0.6813365818361209  0.652411487025262  1.0000
  C   C35       1.0  0.19179663200115024  0.2918373437076625  0.27746317373745916  1.0000
  C   C36       1.0  0.8082046188248028  0.7081719658694752  0.7225284442150297  1.0000
  C   C37       1.0  0.15835963630383532  0.19394332822042065  0.22810918756164267  1.0000
  C   C38       1.0  0.8416559248453054  0.8060755206564069  0.7718908209479808  1.0000
  C   C39       1.0  0.0974611451039635  0.12068193878526765  0.24711683651850086  1.0000
  C   C40       1.0  0.9025552944243956  0.8793317950689288  0.7528852846902013  1.0000
  C   C41       1.0  0.07383315506980641  0.14687442271406334  0.31828690876206184  1.0000
  C   C42       1.0  0.9262051262659342  0.8531466795714026  0.6817265897569484  1.0000
  C   C43       1.0  0.10828250991243493  0.24494348374388153  0.3683914779185287  1.0000
  C   C44       1.0  0.8917627170222817  0.7550769130314593  0.6316192366313161  1.0000
  C   C45       1.0  0.3812585077798759  0.6416769489047739  0.6596430760224551  1.0000
  C   C46       1.0  0.6187553451688145  0.35832726416337835  0.340370925193902  1.0000
  C   C47       1.0  0.28369384965463956  0.6144315230014642  0.6115512341482514  1.0000
  C   C48       1.0  0.7163219524202518  0.3855865868990591  0.38845797443664054  1.0000
  C   C49       1.0  0.21830573738132855  0.6267085796500002  0.6513820331698883  1.0000
  C   C50       1.0  0.7817093933253006  0.3733066098639739  0.3486218853456081  1.0000
  C   C51       1.0  0.24862659393004086  0.6683433162154911  0.7381981258266421  1.0000
  C   C52       1.0  0.7513764953706429  0.3316491712044894  0.26181304952555  1.0000
  C   C53       1.0  0.34559278381929914  0.6918657139793964  0.7836962639345729  1.0000
  C   C54       1.0  0.654401469417124  0.30809677795735274  0.21631752642588256  1.0000
  C   C55       1.0  0.4123503515487741  0.6790157532899528  0.7461310430169378  1.0000
  C   C56       1.0  0.5876408612929679  0.3209445330691737  0.25388601933600097  1.0000
  C   C57       1.0  0.18543857470360348  0.6929859313090534  0.781793479967732  1.0000
  C   C58       1.0  0.814570730166885  0.3070197343752526  0.21821458293826623  1.0000
  C   C59       1.0  0.13438263043271803  0.7420885708802487  0.7571477762812863  1.0000
  C   C60       1.0  0.8656013802031098  0.2578826770022644  0.24284611931756941  1.0000
  C   C61       1.0  0.08816920500454037  0.7799096783647602  0.8056408883486555  1.0000
  C   C62       1.0  0.9118116129619905  0.22006303057939652  0.1943429149931148  1.0000
  C   C63       1.0  0.08789885437102635  0.7657751036679343  0.8780532803194278  1.0000
  C   C64       1.0  0.9121153169965555  0.23424081567139152  0.12194845704433285  1.0000
  C   C65       1.0  0.13315439845179372  0.7117138189586074  0.9004919676269625  1.0000
  C   C66       1.0  0.866881197533175  0.2883269977122254  0.09953118530913234  1.0000
  C   C67       1.0  0.18268116722001793  0.6770379471790237  0.8536081386021765  1.0000
  C   C68       1.0  0.8173566173210107  0.3229977574388839  0.14641846414201612  1.0000
  C   C69       1.0  0.04345589141755108  0.8116074194731766  0.9334342387290494  1.0000
  C   C70       1.0  0.9565624687426606  0.18841874929844243  0.06656325006582631  1.0000
  C   C71       1.0  0.5366031695985498  0.636540988934769  0.8154191779851132  1.0000
  C   C72       1.0  0.46339457738970685  0.3634207687120323  0.18460990075102765  1.0000
  C   C73       1.0  0.5142820099173165  0.7071436706440156  0.7987023048823972  1.0000
  C   C74       1.0  0.4857068583270206  0.29281441655054163  0.20131375606736412  1.0000
  C   C75       1.0  0.5867811096163607  0.805538022084811  0.8371141877541248  1.0000
  C   C76       1.0  0.41321442169509487  0.19441425967740142  0.16288174433258018  1.0000
  C   C77       1.0  0.6791271796846987  0.8334011959722009  0.8930973678804651  1.0000
  C   C78       1.0  0.32087060048037597  0.16656425076459414  0.10689583327756938  1.0000
  C   C79       1.0  0.6995214719497512  0.7630641938583979  0.9119856721968492  1.0000
  C   C80       1.0  0.3004814481978429  0.2369166053604985  0.0880196465239891  1.0000
  C   C81       1.0  0.6283089185159911  0.6643114627179262  0.8721464818054517  1.0000
  C   C82       1.0  0.3716963677885304  0.335663477805632  0.12787917427679227  1.0000
  C   C83       1.0  0.054253005161996305  0.5001378176153111  0.5962505405920027  1.0000
  C   C84       1.0  0.9457480098600544  0.4998846674243681  0.40371919904654874  1.0000
  C   C85       1.0  0.055423131250094605  0.015740353338401302  0.19013096273209845  1.0000
  C   C86       1.0  0.944588377699823  0.9842740965038318  0.8098699079479844  1.0000
  C   C87       1.0  0.7956884108304222  0.7938909561223185  0.9762132603120082  1.0000
  C   C88       1.0  0.2043258096937777  0.20611253330172738  0.023794566023532616  1.0000
  O   O1        1.0  0.07542146975549013  0.9947329810197164  0.12348649579850257  1.0000
  O   O2        1.0  0.9245807779502684  0.005277061742177102  0.8765060448769263  1.0000
  O   O3        1.0  0.864314222710199  0.8815648615872221  0.004323756667453485  1.0000
  O   O4        1.0  0.1356914947947487  0.11842840086530525  0.9956506920209307  1.0000
  O   O5        1.0  0.8056658465034873  0.7320879523352987  0.002847193917801904  1.0000
  O   O6        1.0  0.1943452188736785  0.2679330458125335  0.9971822732066614  1.0000
  O   O7        1.0  0.12123683368856329  0.8172923402400374  0.17197895126709287  1.0000
  O   O8        1.0  0.8787067855123142  0.18266272176504125  0.8279902016455979  1.0000
  O   O9        1.0  0.001523569545526133  0.9497618920903508  0.20833355463780381  1.0000
  O   O10       1.0  0.998492869982833  0.05025184176384562  0.7916685665708983  1.0000
  O   O11       1.0  0.24462484634176465  0.711289548539412  0.5151144110991553  1.0000
  O   O12       1.0  0.7553716664313441  0.28872119065556495  0.4848943309770988  1.0000
  O   O13       1.0  0.011604033871790875  0.7685938521383948  0.9775372648615034  1.0000
  O   O14       1.0  0.9884130414378307  0.23143523366037044  0.02246241012810663  1.0000
  O   O15       1.0  0.2550552378032123  0.4289325215315786  0.5316019416373976  1.0000
  O   O16       1.0  0.7449859186631328  0.5711214719187296  0.46841743029798977  1.0000
  O   O17       1.0  0.447076812439022  0.6287300547587692  0.6224154802288738  1.0000
  O   O18       1.0  0.5529469013494506  0.3712939129536609  0.37760879761763283  1.0000
  O   O19       1.0  0.9660263573125367  0.7090187821420318  0.14535546115252643  1.0000
  O   O20       1.0  0.033933835849111915  0.29094363313003413  0.8546230152678335  1.0000
  O   O21       1.0  0.043500121361006464  0.8896503276774298  0.9311794118034984  1.0000
  O   O22       1.0  0.9565228818647286  0.11037439997718931  0.0688124840846811  1.0000
  O   O23       1.0  0.12113149229249143  0.5946788260951693  0.6033958569874615  1.0000
  O   O24       1.0  0.8788916077150474  0.40535758099926517  0.39661068122126153  1.0000
