data_image0
_chemical_formula_structural       Al4H56C80O28F12
_chemical_formula_sum              "Al4 H56 C80 O28 F12"
_cell_length_a       6.67710286458725
_cell_length_b       23.944857506227073
_cell_length_c       25.796458135681487
_cell_angle_alpha    78.94509443699086
_cell_angle_beta     89.99980647551125
_cell_angle_gamma    89.9984431298713

_space_group_name_H-M_alt    "P 1"
_space_group_IT_number       1

loop_
  _space_group_symop_operation_xyz
  'x, y, z'

loop_
  _atom_site_type_symbol
  _atom_site_label
  _atom_site_symmetry_multiplicity
  _atom_site_fract_x
  _atom_site_fract_y
  _atom_site_fract_z
  _atom_site_occupancy
  Al  Al1       1.0  0.7549409970466101  0.25104782215316135  0.7503745856831542  1.0000
  Al  Al2       1.0  0.24505884574556805  0.7489509913398749  0.24962686068691645  1.0000
  Al  Al3       1.0  0.25493383563477323  0.24894921088709052  0.7496320543389458  1.0000
  Al  Al4       1.0  0.7450570212073728  0.751049199291181  0.25037334228588287  1.0000
  H   H1        1.0  0.2618970848198289  0.6837488394252915  0.10967939353770359  1.0000
  H   H2        1.0  0.7380982651258493  0.316244849189502  0.8903366647213388  1.0000
  H   H3        1.0  0.7619145333593665  0.8162586863556668  0.39032912858412766  1.0000
  H   H4        1.0  0.23809279677215056  0.18375776670191613  0.6096778685270862  1.0000
  H   H5        1.0  0.2659447244110353  0.6164642023705368  0.04694937830380041  1.0000
  H   H6        1.0  0.7340296575391606  0.3835495389165614  0.9530465537699014  1.0000
  H   H7        1.0  0.7660186313301625  0.883579565195632  0.45302126106211205  1.0000
  H   H8        1.0  0.23408304890551088  0.11649031109170951  0.5469336465133735  1.0000
  H   H9        1.0  0.331028463894839  0.4628367326579195  0.5361289903737969  1.0000
  H   H10       1.0  0.6689728773315693  0.5371499086639132  0.46385466417748217  1.0000
  H   H11       1.0  0.831041119385482  0.03714830913121148  0.9638603183590034  1.0000
  H   H12       1.0  0.16896920709616137  0.9628492375534564  0.03613717588758899  1.0000
  H   H13       1.0  0.9066797825611206  0.46459904930432566  0.159203051391728  1.0000
  H   H14       1.0  0.8068516421186943  0.4545755118877537  0.0974619449054259  1.0000
  H   H15       1.0  0.46794777436096524  0.4349500644499217  0.13838459671859477  1.0000
  H   H16       1.0  0.6501711343043369  0.3866476303011765  0.17156674853467987  1.0000
  H   H17       1.0  0.5645365192155581  0.44422725010474556  0.2005701114496929  1.0000
  H   H18       1.0  0.19387755813123422  0.5454212982032446  0.9026335264339451  1.0000
  H   H19       1.0  0.093276624569782  0.5354423449668744  0.8409592365188345  1.0000
  H   H20       1.0  0.43494064327953214  0.5557624072630746  0.7993226799217368  1.0000
  H   H21       1.0  0.3499769768575619  0.6133435495659754  0.8284252076505895  1.0000
  H   H22       1.0  0.5324040220728605  0.564991557670467  0.8614338679134689  1.0000
  H   H23       1.0  0.40674776790632455  0.03549420687487268  0.3410651936110867  1.0000
  H   H24       1.0  0.3055755650997227  0.045442761996909595  0.40269037418285336  1.0000
  H   H25       1.0  0.9673170631246252  0.06495960562278917  0.36130195051944014  1.0000
  H   H26       1.0  0.1498541186154938  0.11335384306941879  0.3284167224813714  1.0000
  H   H27       1.0  0.06538951348669293  0.05577808560590109  0.29924103999813667  1.0000
  H   H28       1.0  0.6931258071529458  0.9545950262247728  0.5974430689700513  1.0000
  H   H29       1.0  0.5933359356990238  0.9646141606915181  0.6591908011448949  1.0000
  H   H30       1.0  0.9355014360666375  0.9442274530300169  0.7005411498741694  1.0000
  H   H31       1.0  0.8498147422977311  0.886654069231632  0.6715369303395421  1.0000
  H   H32       1.0  0.03204778131375011  0.9349532859686107  0.6383513418518092  1.0000
  H   H33       1.0  0.8630300780429607  0.5765255238969615  0.2551903152103208  1.0000
  H   H34       1.0  0.7517288636328062  0.5210981185105155  0.22729073477735534  1.0000
  H   H35       1.0  0.40916227139693734  0.5531959418498502  0.2529081524859649  1.0000
  H   H36       1.0  0.5681509921271299  0.530733203383619  0.3085371256387787  1.0000
  H   H37       1.0  0.5278186432824867  0.604463878719983  0.28482411307954436  1.0000
  H   H38       1.0  0.24818561425184532  0.4788774535656231  0.7726798700037917  1.0000
  H   H39       1.0  0.1369038701680552  0.4234289354616294  0.7448075258470935  1.0000
  H   H40       1.0  0.47203293415967823  0.3954864593806136  0.715165426838567  1.0000
  H   H41       1.0  0.4316990881214907  0.4692116359365811  0.6914326545737239  1.0000
  H   H42       1.0  0.5907791649868983  0.44676814302339096  0.7470494021060361  1.0000
  H   H43       1.0  0.36305939173125523  0.9234204434694108  0.24479333526700486  1.0000
  H   H44       1.0  0.2518778856578052  0.9788832407767957  0.2726652049496535  1.0000
  H   H45       1.0  0.9092172222184588  0.9468047428689844  0.24706177132233617  1.0000
  H   H46       1.0  0.0682530879413932  0.9692286271899277  0.1914328573402884  1.0000
  H   H47       1.0  0.027848324205486105  0.8955093816168044  0.21517468825840064  1.0000
  H   H48       1.0  0.7482792118906122  0.021104164114156262  0.7272986969728591  1.0000
  H   H49       1.0  0.6369149931489917  0.0765400081459333  0.7551756723315534  1.0000
  H   H50       1.0  0.9719957617464206  0.10450164417252238  0.7848323027081036  1.0000
  H   H51       1.0  0.931725787664796  0.03077191022552475  0.8085602944592835  1.0000
  H   H52       1.0  0.09082005997712632  0.05323209401789339  0.752947619043269  1.0000
  H   H53       1.0  0.4976929010917601  0.31214460638360453  0.7743576938012777  1.0000
  H   H54       1.0  0.5023129322604021  0.6878552954994459  0.2256445439315939  1.0000
  H   H55       1.0  0.9976978905173581  0.18785342817810133  0.7256455998777298  1.0000
  H   H56       1.0  0.0023124358865303  0.8121445573071994  0.2743578209250756  1.0000
  C   C1        1.0  0.5070479619997954  0.16966288776037433  0.8235319202208161  1.0000
  C   C2        1.0  0.49295637384081914  0.8303346660372313  0.17646754938618867  1.0000
  C   C3        1.0  0.007054966682289901  0.33033532368056473  0.6764697676958136  1.0000
  C   C4        1.0  0.992964345878541  0.6696594644403078  0.32352693332497034  1.0000
  C   C5        1.0  0.5077835010010716  0.19207647659316512  0.683537522974504  1.0000
  C   C6        1.0  0.492202862728469  0.8079246921320191  0.31646866687803044  1.0000
  C   C7        1.0  0.007800609107675902  0.3079183282289151  0.8164704829002645  1.0000
  C   C8        1.0  0.992175271326879  0.6920769951244524  0.18353570040508058  1.0000
  C   C9        1.0  0.14505458892854514  0.6518002104076926  0.11095442908798248  1.0000
  C   C10       1.0  0.8549242864567363  0.348202949723877  0.8890482073512729  1.0000
  C   C11       1.0  0.645080832237433  0.8482233322048528  0.38903741778575807  1.0000
  C   C12       1.0  0.3549459667088541  0.1518098544093149  0.6109553755074444  1.0000
  C   C13       1.0  0.14797574288247262  0.6139883063572426  0.07649984292397251  1.0000
  C   C14       1.0  0.8519911507658335  0.38602650918969766  0.9234929297808988  1.0000
  C   C15       1.0  0.6480364779636574  0.8860501885001569  0.42347622036538  1.0000
  C   C16       1.0  0.3520412400225723  0.11401345329833389  0.5764865816416814  1.0000
  C   C17       1.0  0.9980575676619454  0.5724542010804257  0.07879925504639829  1.0000
  C   C18       1.0  0.0018943492974302005  0.42756467936707315  0.9211860158527969  1.0000
  C   C19       1.0  0.49813556907990636  0.9275892312521421  0.4211688174953281  1.0000
  C   C20       1.0  0.5019676088265186  0.07248137672927157  0.5787805599057237  1.0000
  C   C21       1.0  0.8483727546639062  0.5677994186973977  0.11790798554966389  1.0000
  C   C22       1.0  0.15161810191295197  0.4322067107304405  0.8820843823721417  1.0000
  C   C23       1.0  0.3483851273300048  0.9322329091417105  0.3820725884459577  1.0000
  C   C24       1.0  0.6516506570225645  0.06781497714770522  0.6178977022571388  1.0000
  C   C25       1.0  0.8406020899390898  0.60776056844373  0.15174708422406263  1.0000
  C   C26       1.0  0.15936480442576342  0.3922393944022176  0.8482488324242824  1.0000
  C   C27       1.0  0.34064906759103053  0.89225248969651  0.34824610382638344  1.0000
  C   C28       1.0  0.6593927085156183  0.10776924521188387  0.6517435160873646  1.0000
  C   C29       1.0  0.9895658076801583  0.6500365468725846  0.1478216333721178  1.0000
  C   C30       1.0  0.0104070773545075  0.3499614316630256  0.8521798120518226  1.0000
  C   C31       1.0  0.489588503472767  0.8499751523620133  0.35217484145744754  1.0000
  C   C32       1.0  0.5104233196993917  0.15004160066817462  0.6478226742873545  1.0000
  C   C33       1.0  0.8366788188925584  0.5341983301050632  0.0045158083714226995  1.0000
  C   C34       1.0  0.16323715410179318  0.4658254716517974  0.995467887736737  1.0000
  C   C35       1.0  0.33678452824477034  0.9658515931635063  0.49545687391058374  1.0000
  C   C36       1.0  0.6633530951929103  0.034229952539909875  0.5044921206767725  1.0000
  C   C37       1.0  0.8387502598641492  0.499506560710195  0.9669457984977325  1.0000
  C   C38       1.0  0.16118068995858442  0.5005117310207439  0.033038286520515193  1.0000
  C   C39       1.0  0.33886049157541015  0.0005471478377998968  0.533020284567783  1.0000
  C   C40       1.0  0.6613115782330682  0.9995285523249324  0.46692870349145466  1.0000
  C   C41       1.0  0.0020164214437486004  0.4645702918970044  0.9610051601499093  1.0000
  C   C42       1.0  0.9979025468579579  0.5354542486387218  0.03897498114741179  1.0000
  C   C43       1.0  0.5021345836212703  0.035488842337350876  0.5389527388087528  1.0000
  C   C44       1.0  0.49802550479122243  0.964590765629509  0.4609915127672863  1.0000
  C   C45       1.0  0.18639471942103825  0.478826268067607  0.5206169792678281  1.0000
  C   C46       1.0  0.8136171050690707  0.5211649194022242  0.4793769522225232  1.0000
  C   C47       1.0  0.6864012011159772  0.021163229615083868  0.9793801118404774  1.0000
  C   C48       1.0  0.31360912522291784  0.9788364188972879  0.020621335468717895  1.0000
  C   C49       1.0  0.0085550059674802  0.4563905532749999  0.5458731745235639  1.0000
  C   C50       1.0  0.9914433392247162  0.5436084852157776  0.454121160819632  1.0000
  C   C51       1.0  0.5085761821622441  0.04360904936643808  0.95412377539661  1.0000
  C   C52       1.0  0.4914416323255396  0.9563936789085613  0.045874909865929694  1.0000
  C   C53       1.0  0.8256869202367554  0.478853260656983  0.5238979532080349  1.0000
  C   C54       1.0  0.1743204112481038  0.5211381051861536  0.47609913904808104  1.0000
  C   C55       1.0  0.3256923971092789  0.02114620984972499  0.9760984783691597  1.0000
  C   C56       1.0  0.6743164315091051  0.978855101695352  0.023900995445799794  1.0000
  C   C57       1.0  0.011209107171168903  0.4129855343886746  0.5913087222667386  1.0000
  C   C58       1.0  0.9887997219392091  0.5870080549096031  0.4086796809166345  1.0000
  C   C59       1.0  0.5112207866080922  0.08700611527837047  0.9086882210236381  1.0000
  C   C60       1.0  0.4887925351286526  0.9129912884907158  0.09131598927133672  1.0000
  C   C61       1.0  0.9912932899670821  0.6246952235217053  0.36963077440704245  1.0000
  C   C62       1.0  0.008733511180302904  0.37529445085949936  0.630360389899117  1.0000
  C   C63       1.0  0.4912861603375518  0.8752975027510105  0.1303644954417749  1.0000
  C   C64       1.0  0.5087256637222737  0.1247004006408686  0.8696393203407881  1.0000
  C   C65       1.0  0.7697207459127995  0.467886464631043  0.13487938503741498  1.0000
  C   C66       1.0  0.6026783076875121  0.4314252913245441  0.16311491957818447  1.0000
  C   C67       1.0  0.2304887678318437  0.5321178994900676  0.8651797480019423  1.0000
  C   C68       1.0  0.3973694616056633  0.5685558267682823  0.8368189498643658  1.0000
  C   C69       1.0  0.2693183452419348  0.0321430565008498  0.3652120742385633  1.0000
  C   C70       1.0  0.10258279342258453  0.068563158218133  0.3367701235482626  1.0000
  C   C71       1.0  0.7302891090203687  0.9678983412738945  0.6348577669113383  1.0000
  C   C72       1.0  0.8973376749248204  0.9314367260024242  0.6630875181407488  1.0000
  C   C73       1.0  0.7257303382552109  0.5635403824455808  0.23672906681320424  1.0000
  C   C74       1.0  0.5466418627451546  0.5632944930295026  0.2726572620552901  1.0000
  C   C75       1.0  0.2741961209106308  0.4364315706323082  0.763256941691516  1.0000
  C   C76       1.0  0.4532636295473297  0.4366733314691658  0.7273184699732268  1.0000
  C   C77       1.0  0.22579843526158783  0.9364409080505354  0.2632462089865015  1.0000
  C   C78       1.0  0.04669862895566009  0.9366928399759828  0.2273233979212321  1.0000
  C   C79       1.0  0.7742403471337483  0.06355179644348398  0.7367283657342085  1.0000
  C   C80       1.0  0.9532667672296213  0.06331747902211757  0.7726729253890666  1.0000
  O   O1        1.0  0.33574841789538123  0.20721956945849482  0.6973479078363025  1.0000
  O   O2        1.0  0.6642454344301572  0.7927745975078364  0.30266182982145295  1.0000
  O   O3        1.0  0.8357444129581496  0.2927833440386678  0.8026516967867321  1.0000
  O   O4        1.0  0.1642299700339507  0.7072071473242831  0.19735764167758418  1.0000
  O   O5        1.0  0.6779686449343814  0.18789090358568208  0.8060791956663137  1.0000
  O   O6        1.0  0.3220386865278543  0.8121012081379885  0.19391631714064772  1.0000
  O   O7        1.0  0.1779501946160309  0.3121128281673434  0.6939341020488925  1.0000
  O   O8        1.0  0.8220676204143231  0.6878796189585046  0.30606180620898726  1.0000
  O   O9        1.0  0.6739952755000332  0.20994046219060888  0.6977576264115796  1.0000
  O   O10       1.0  0.3259865950498623  0.7900655385475162  0.3022454082794468  1.0000
  O   O11       1.0  0.17399797189247584  0.29004486015310244  0.8022599930808453  1.0000
  O   O12       1.0  0.8259824014407969  0.7099527008249923  0.19774145187894024  1.0000
  O   O13       1.0  0.835488249804925  0.31420400209297134  0.6950030212625008  1.0000
  O   O14       1.0  0.1645325599992518  0.6857976590294824  0.3050007987299209  1.0000
  O   O15       1.0  0.3354998715958288  0.1857901380940064  0.804994597969184  1.0000
  O   O16       1.0  0.6644969758034378  0.814209935088826  0.1950088251645852  1.0000
  O   O17       1.0  0.5035503691557395  0.28379019551024237  0.7519542736129167  1.0000
  O   O18       1.0  0.4964479759619849  0.716208625078835  0.24804914811947038  1.0000
  O   O19       1.0  0.0035525176414879  0.21620687883194728  0.7480489903135704  1.0000
  O   O20       1.0  0.9964398368734637  0.7837918526014463  0.251952851032442  1.0000
  O   O21       1.0  0.7030916896727959  0.5266255863870627  0.1246866891857579  1.0000
  O   O22       1.0  0.2969485905405095  0.47336107605966754  0.8753028914709162  1.0000
  O   O23       1.0  0.20301468845602247  0.9733739248704792  0.37529214317160603  1.0000
  O   O24       1.0  0.7969237499960969  0.026642022834430172  0.6246670497529366  1.0000
  O   O25       1.0  0.6886318417798094  0.6038768476200432  0.18810026639735608  1.0000
  O   O26       1.0  0.31134403892007606  0.39611452543172726  0.8118988012083647  1.0000
  O   O27       1.0  0.18864766221549442  0.8961308509490992  0.31189594588808933  1.0000
  O   O28       1.0  0.811368654502843  0.10387577090978792  0.6880940521697951  1.0000
  F   F1        1.0  0.6762452307121266  0.5683715344391089  0.0062504243725172  1.0000
  F   F2        1.0  0.32368571897940523  0.4316503296093472  0.9937285287211565  1.0000
  F   F3        1.0  0.17636039652390426  0.9316786168787274  0.4937288367974729  1.0000
  F   F4        1.0  0.8237966964030932  0.06840187579106068  0.5062292432526689  1.0000
  F   F5        1.0  0.6800019741729743  0.5016046507958406  0.9339572795465543  1.0000
  F   F6        1.0  0.3199035155963018  0.49841065750865005  0.06603312325750468  1.0000
  F   F7        1.0  0.18017538495892177  0.9984368213273314  0.5660249105329527  1.0000
  F   F8        1.0  0.8200775600458597  0.001596664426315918  0.4339584014879421  1.0000
  F   F9        1.0  0.3462099815486752  0.5425513719828245  0.45181209120612914  1.0000
  F   F10       1.0  0.6537958524176589  0.45743904126731383  0.5481755182790166  1.0000
  F   F11       1.0  0.8462091946664926  0.9574330059193272  0.04818225474420499  1.0000
  F   F12       1.0  0.1538071224598809  0.042563794862289166  0.9518168189540859  1.0000
