data_image0
_chemical_formula_structural       Ag4H16C24N16Cl4O12
_chemical_formula_sum              "Ag4 H16 C24 N16 Cl4 O12"
_cell_length_a       5.701725201096874
_cell_length_b       12.798409824216511
_cell_length_c       14.507001785080552
_cell_angle_alpha    112.66374437400569
_cell_angle_beta     101.30710177576813
_cell_angle_gamma    90.0123269802503

_space_group_name_H-M_alt    "P 1"
_space_group_IT_number       1

loop_
  _space_group_symop_operation_xyz
  'x, y, z'

loop_
  _atom_site_type_symbol
  _atom_site_label
  _atom_site_symmetry_multiplicity
  _atom_site_fract_x
  _atom_site_fract_y
  _atom_site_fract_z
  _atom_site_occupancy
  Ag  Ag1       1.0  0.040916249559813885  0.18544551204367815  0.1778786744630736  1.0000
  Ag  Ag2       1.0  0.8621072105750613  0.3144830743374385  0.8222146633967641  1.0000
  Ag  Ag3       1.0  0.9590875733094181  0.8145486779721979  0.8221182636353818  1.0000
  Ag  Ag4       1.0  0.1378899009024507  0.6855136483482195  0.177780539807891  1.0000
  H   H1        1.0  0.48333670173063575  0.19124977192642229  0.3799778058433745  1.0000
  H   H2        1.0  0.1022059153821715  0.3083282231021585  0.6198267700014313  1.0000
  H   H3        1.0  0.5166672689131461  0.8087554856282395  0.6200263057077892  1.0000
  H   H4        1.0  0.8978216082684083  0.6916685350254992  0.3801742350684165  1.0000
  H   H5        1.0  0.8507298379517608  0.1197044866372039  0.45772395759297513  1.0000
  H   H6        1.0  0.3927803660128077  0.37958104325051056  0.5419478782338842  1.0000
  H   H7        1.0  0.1492805335060297  0.8803066900889576  0.5422778089141502  1.0000
  H   H8        1.0  0.6072255403231352  0.6204250559057484  0.4580552863304703  1.0000
  H   H9        1.0  0.049280719810916196  0.10432877620198155  0.3736642345963972  1.0000
  H   H10       1.0  0.6750916619598114  0.3956983174611962  0.6263552279547823  1.0000
  H   H11       1.0  0.9507280165902403  0.8956730538070372  0.6263342682043457  1.0000
  H   H12       1.0  0.3249209466541814  0.6043052001905451  0.3736420717582547  1.0000
  H   H13       1.0  0.9274863506651627  0.9803590018289225  0.38277337778689  1.0000
  H   H14       1.0  0.5434618940900435  0.5191953670356355  0.616669835064144  1.0000
  H   H15       1.0  0.0725176158360483  0.0196462335281353  0.6172272793346706  1.0000
  H   H16       1.0  0.4565395413244461  0.4808056234740618  0.38332989135599144  1.0000
  C   C1        1.0  0.49867576669498004  0.12146059727446354  0.3098557927314046  1.0000
  C   C2        1.0  0.18771292933583086  0.37815749869100307  0.6898824938847598  1.0000
  C   C3        1.0  0.5013338673548589  0.8785463620205646  0.6901493264742554  1.0000
  C   C4        1.0  0.8122920818369792  0.6218434844978232  0.31011612693242796  1.0000
  C   C5        1.0  0.4332154707754868  0.9989650788520239  0.15293214807392272  1.0000
  C   C6        1.0  0.279022050326276  0.5007655202854834  0.8467372740452602  1.0000
  C   C7        1.0  0.5667771763702589  0.0010367929800026003  0.8470727117119239  1.0000
  C   C8        1.0  0.720960455863846  0.4992295056434484  0.15325761285450304  1.0000
  C   C9        1.0  0.32337142910978395  0.9421876636194425  0.049254891072173686  1.0000
  C   C10       1.0  0.2736805972200145  0.5576123252806865  0.9504970195652547  1.0000
  C   C11       1.0  0.6766346333243051  0.057819325194067496  0.9507547881660372  1.0000
  C   C12       1.0  0.7263057737263027  0.44238434833526696  0.04949044627351641  1.0000
  C   C13       1.0  0.6498307779093794  0.9768197611240197  0.20381445031051731  1.0000
  C   C14       1.0  0.44449099525633784  0.5229581775679362  0.7957373825581228  1.0000
  C   C15       1.0  0.350164250024541  0.023185496974754492  0.7961896617043394  1.0000
  C   C16       1.0  0.555494195633102  0.477041969547038  0.20426287705917187  1.0000
  C   C17       1.0  0.8070739946574649  0.893996970978101  0.1676980835982107  1.0000
  C   C18       1.0  0.6376541843066691  0.6058348366292421  0.8317942806077667  1.0000
  C   C19       1.0  0.19292803283752852  0.10600740501926958  0.8323007569664824  1.0000
  C   C20       1.0  0.36233220072439554  0.3941619124585784  0.168204930291644  1.0000
  C   C21       1.0  0.8916339851460862  0.0652619657478866  0.3846305018917278  1.0000
  C   C22       1.0  0.506165534757301  0.434345647969934  0.6150302381009284  1.0000
  C   C23       1.0  0.10837564558968889  0.9347449757890445  0.6153718537702559  1.0000
  C   C24       1.0  0.4938397786696244  0.5656570612591381  0.38497312143294243  1.0000
  N   N1        1.0  0.3419248222246551  0.0891875435408096  0.2205576136401888  1.0000
  N   N2        1.0  0.12026254658276506  0.4104723612304254  0.7792218487212067  1.0000
  N   N3        1.0  0.6580772143840009  0.9108168812913036  0.7794488266696291  1.0000
  N   N4        1.0  0.8797300972873571  0.589519270566761  0.22077267988291277  1.0000
  N   N5        1.0  0.24004447704196244  0.8957397959055553  0.9621092571418615  1.0000
  N   N6        1.0  0.27846969568434327  0.6040274644678191  0.03774695553073569  1.0000
  N   N7        1.0  0.7599441434498289  0.10425950750553879  0.03789167282966588  1.0000
  N   N8        1.0  0.7215169750305463  0.395970921869818  0.962243176366961  1.0000
  N   N9        1.0  0.9391194492026854  0.82567951032771  0.1363970626375136  1.0000
  N   N10       1.0  0.8010802555875927  0.6741287293618753  0.8631335895643204  1.0000
  N   N11       1.0  0.0608633558890475  0.1743274461601345  0.8636073670732998  1.0000
  N   N12       1.0  0.19890479660251256  0.325870621325798  0.13687466398343423  1.0000
  N   N13       1.0  0.685777432031621  0.05543750791312618  0.3031186878228809  1.0000
  N   N14       1.0  0.3813488472468762  0.44425928368418244  0.696487356617517  1.0000
  N   N15       1.0  0.3142320508911567  0.9445685883617756  0.6968840620244451  1.0000
  N   N16       1.0  0.6186546758153427  0.5557434158867591  0.30351448306007  1.0000
  Cl  Cl1       1.0  0.9456824144777868  0.37158237295091817  0.38862436213145907  1.0000
  Cl  Cl2       1.0  0.5565025153138166  0.12824788079915087  0.6114398772816828  1.0000
  Cl  Cl3       1.0  0.054315892798392384  0.6284109605866348  0.6113711741271572  1.0000
  Cl  Cl4       1.0  0.4435120439440396  0.8717463360888187  0.3885613437530608  1.0000
  O   O1        1.0  0.7784121649224004  0.3068850155160802  0.28536763556152067  1.0000
  O   O2        1.0  0.4921174065936569  0.19287854494088913  0.7146702029831574  1.0000
  O   O3        1.0  0.22158405967714154  0.69310663559736  0.7146299327551732  1.0000
  O   O4        1.0  0.5078823854406096  0.8071232767332005  0.2853269185094333  1.0000
  O   O5        1.0  0.19165560642441898  0.3340199087297576  0.3739243937441188  1.0000
  O   O6        1.0  0.8171843022130929  0.16585648191750826  0.6261671945321295  1.0000
  O   O7        1.0  0.808335702986156  0.6659640935114906  0.6260702280984489  1.0000
  O   O8        1.0  0.18282085345865795  0.8341453287752569  0.37382826855603907  1.0000
  O   O9        1.0  0.8758781439353671  0.3328739844658415  0.46485380477513866  1.0000
  O   O10       1.0  0.41078969946703126  0.16698208354467428  0.5352191511504572  1.0000
  O   O11       1.0  0.12411420012774949  0.6671261568864112  0.5351456254081057  1.0000
  O   O12       1.0  0.5892244155617661  0.8329993708409162  0.4647749939163362  1.0000
