data_image0
_chemical_formula_structural       Er2H28C36N4O12
_chemical_formula_sum              "Er2 H28 C36 N4 O12"
_cell_length_a       7.333386451621544
_cell_length_b       9.995515066598493
_cell_length_c       12.89970967672877
_cell_angle_alpha    112.66090878196616
_cell_angle_beta     91.61014149508418
_cell_angle_gamma    97.43335934592433

_space_group_name_H-M_alt    "P 1"
_space_group_IT_number       1

loop_
  _space_group_symop_operation_xyz
  'x, y, z'

loop_
  _atom_site_type_symbol
  _atom_site_label
  _atom_site_symmetry_multiplicity
  _atom_site_fract_x
  _atom_site_fract_y
  _atom_site_fract_z
  _atom_site_occupancy
  Er  Er1       1.0  0.7100991163729449  0.572975975028122  0.6885214992561899  1.0000
  Er  Er2       1.0  0.2898984954053958  0.42702349845770743  0.31147848372179254  1.0000
  H   H1        1.0  0.25174432136271463  0.31836052246286783  0.6888014853343236  1.0000
  H   H2        1.0  0.7482551649106384  0.6816345559256618  0.31119644659045786  1.0000
  H   H3        1.0  0.3056086547223914  0.19357866008746072  0.5570919626370597  1.0000
  H   H4        1.0  0.694391048718913  0.8064175103363312  0.4429039720004226  1.0000
  H   H5        1.0  0.986742086831626  0.17540532695487343  0.47159851209763565  1.0000
  H   H6        1.0  0.013260126620870935  0.8245897454764377  0.5283994633672009  1.0000
  H   H7        1.0  0.9707285613133224  0.132469612698614  0.5921871281667492  1.0000
  H   H8        1.0  0.029269560140633564  0.8675254702838302  0.4078115576604943  1.0000
  H   H9        1.0  0.4998227234416746  0.6675855900460305  0.05380511960576937  1.0000
  H   H10       1.0  0.5001664933207338  0.33241280443025545  0.9461944030218419  1.0000
  H   H11       1.0  0.3254936542610238  0.541616463668781  0.9575802072716613  1.0000
  H   H12       1.0  0.6745000826867198  0.45838411240345067  0.04241848878143626  1.0000
  H   H13       1.0  0.38766053834970654  0.7352678843805835  0.6084504661539969  1.0000
  H   H14       1.0  0.6123420205709355  0.26473596446357567  0.3915493497098481  1.0000
  H   H15       1.0  0.32170754358172365  0.9762395580523915  0.6143356985488141  1.0000
  H   H16       1.0  0.6782977437478905  0.0237642832192435  0.38566338518259613  1.0000
  H   H17       1.0  0.5509309718306599  0.2048316837151418  0.7238700958497759  1.0000
  H   H18       1.0  0.44907409710118174  0.7951710671365363  0.27613176084142316  1.0000
  H   H19       1.0  0.8443363453817626  0.3150847400284534  0.8434960739245695  1.0000
  H   H20       1.0  0.1556673562710458  0.6849180186477639  0.15650808801408542  1.0000
  H   H21       1.0  0.13118701487265133  0.28377869803868094  0.9349977396898481  1.0000
  H   H22       1.0  0.8688135326440332  0.7162218728323639  0.06500571924836869  1.0000
  H   H23       1.0  0.32631755401272505  0.11913427977856372  0.9746771204396226  1.0000
  H   H24       1.0  0.6736859390808831  0.8808673755552192  0.02532360907885326  1.0000
  H   H25       1.0  0.3789313584592052  0.8595114761591065  0.9366289976968077  1.0000
  H   H26       1.0  0.6210664643379715  0.14048909743853244  0.0633728663563531  1.0000
  H   H27       1.0  0.13782085034777236  0.6523690620722392  0.8201595499489329  1.0000
  H   H28       1.0  0.8621785519771096  0.3476326021973719  0.17984111425946028  1.0000
  C   C1        1.0  0.2866041497499765  0.4046680685708496  0.5612518195259  1.0000
  C   C2        1.0  0.7133916727116373  0.5953292125158854  0.43874670654917486  1.0000
  C   C3        1.0  0.22050494506009952  0.27997813752018175  0.5974224379988726  1.0000
  C   C4        1.0  0.7794947546917401  0.7200180377495401  0.4025758236561004  1.0000
  C   C5        1.0  0.016120597948564408  0.22112798220516794  0.5637025929321027  1.0000
  C   C6        1.0  0.9838777382137068  0.7788681960431633  0.4362956469528357  1.0000
  C   C7        1.0  0.8969122276474907  0.3400147426478527  0.6128618399967536  1.0000
  C   C8        1.0  0.10308381198207432  0.6599836304741518  0.38713468879102925  1.0000
  C   C9        1.0  0.5740126814995818  0.5704796750260785  0.8845252619240257  1.0000
  C   C10       1.0  0.42598765499825936  0.42951979573314963  0.11547631593900581  1.0000
  C   C11       1.0  0.4746865806807819  0.5603058671846098  0.982718716176116  1.0000
  C   C12       1.0  0.5253073672858123  0.43969580899943145  0.017281860952159913  1.0000
  C   C13       1.0  0.48414495036272603  0.8350620729342921  0.6546811985691079  1.0000
  C   C14       1.0  0.5158589709176767  0.1649417745465698  0.34531941473726147  1.0000
  C   C15       1.0  0.4474141509303921  0.9718526183262743  0.6591487049765947  1.0000
  C   C16       1.0  0.5525895581013386  0.028150130658083618  0.3408508029270862  1.0000
  C   C17       1.0  0.5723557242968269  0.09642648727423621  0.7184999624509062  1.0000
  C   C18       1.0  0.42764934709465763  0.9035762603468315  0.28150034289530623  1.0000
  C   C19       1.0  0.735417114103811  0.0830088854493098  0.7727592645837049  1.0000
  C   C20       1.0  0.26458638021961184  0.916992768269168  0.2272406892622811  1.0000
  C   C21       1.0  0.8713209609677722  0.20715225841091475  0.8361681386849967  1.0000
  C   C22       1.0  0.12867980371686366  0.7928494044953994  0.16383332296592104  1.0000
  C   C23       1.0  0.028533881393080704  0.1892851921724272  0.8855833199522749  1.0000
  C   C24       1.0  0.9714670943103985  0.8107175708456964  0.11442002277382811  1.0000
  C   C25       1.0  0.06375146617818932  0.0467660380787933  0.8738870026906085  1.0000
  C   C26       1.0  0.9362506608662003  0.9532356234642237  0.12611525640283358  1.0000
  C   C27       1.0  0.22635970201823602  0.024356604934233403  0.9222717437221846  1.0000
  C   C28       1.0  0.7736424274857896  0.9756450533781589  0.07772896402627077  1.0000
  C   C29       1.0  0.2538978883556454  0.8833632531442608  0.9041668215904509  1.0000
  C   C30       1.0  0.7461015139692365  0.11663841112535071  0.09583384261794238  1.0000
  C   C31       1.0  0.1181749698854588  0.7653626303706318  0.8389883320642397  1.0000
  C   C32       1.0  0.8818244312096084  0.2346390355142844  0.1610131078166503  1.0000
  C   C33       1.0  0.9321891453244363  0.9211934717596861  0.8108702215522499  1.0000
  C   C34       1.0  0.0678157113587403  0.07880818059549452  0.18913052973626074  1.0000
  C   C35       1.0  0.7637704048688506  0.9399533100110276  0.7610927898136595  1.0000
  C   C36       1.0  0.23623330170323703  0.060049442203954605  0.23890826943501509  1.0000
  N   N1        1.0  0.6379402118180337  0.8188301589000916  0.7031518534671264  1.0000
  N   N2        1.0  0.3620637094623619  0.18117368858077043  0.2968487598392429  1.0000
  N   N3        1.0  0.9606563296297354  0.7826155422251945  0.7945126941400816  1.0000
  N   N4        1.0  0.039343798308898704  0.21738282519160632  0.2054854513027706  1.0000
  O   O1        1.0  0.4198705169645579  0.501739796010959  0.6200875007488237  1.0000
  O   O2        1.0  0.5801257324540287  0.49825967883816724  0.3799116847866345  1.0000
  O   O3        1.0  0.20900789385724755  0.4041982395509579  0.47193235613556084  1.0000
  O   O4        1.0  0.7909865662446052  0.5957990428990813  0.5280653724969824  1.0000
  O   O5        1.0  0.9724379283628297  0.46535355639252884  0.6862798820055503  1.0000
  O   O6        1.0  0.027562415513941084  0.5346459046748465  0.3137170418225068  1.0000
  O   O7        1.0  0.7259280472317828  0.31681486085091143  0.5808903955685167  1.0000
  O   O8        1.0  0.2740702852410237  0.6831813222433497  0.4191101713339124  1.0000
  O   O9        1.0  0.6468908445431013  0.4620064749917177  0.8200922198220866  1.0000
  O   O10       1.0  0.35310770263800617  0.537990803368423  0.17990790113803706  1.0000
  O   O11       1.0  0.5811922099589709  0.6872490228070801  0.8654766427402265  1.0000
  O   O12       1.0  0.4188092791095954  0.3127493448617288  0.13452307581765416  1.0000
