data_image0
_chemical_formula_structural       Gd4H40C24O44
_chemical_formula_sum              "Gd4 H40 C24 O44"
_cell_length_a       8.570866057362739
_cell_length_b       8.212358316137331
_cell_length_c       16.900425231887002
_cell_angle_alpha    90.00057805396284
_cell_angle_beta     101.05488012528104
_cell_angle_gamma    89.99996449366668

_space_group_name_H-M_alt    "P 1"
_space_group_IT_number       1

loop_
  _space_group_symop_operation_xyz
  'x, y, z'

loop_
  _atom_site_type_symbol
  _atom_site_label
  _atom_site_symmetry_multiplicity
  _atom_site_fract_x
  _atom_site_fract_y
  _atom_site_fract_z
  _atom_site_occupancy
  Gd  Gd1       1.0  0.9561886493966584  0.5909202050521004  0.6611694320501583  1.0000
  Gd  Gd2       1.0  0.5438114780001655  0.09092411282630762  0.8388325657847914  1.0000
  Gd  Gd3       1.0  0.04381009826316531  0.40907917638526226  0.3388325120219874  1.0000
  Gd  Gd4       1.0  0.4561931698491222  0.9090728332199591  0.16116520486405506  1.0000
  H   H1        1.0  0.9835820359753387  0.5426067533014989  0.8337862537638046  1.0000
  H   H2        1.0  0.5164025919629438  0.042612457683624407  0.666214001640256  1.0000
  H   H3        1.0  0.0164250168047104  0.45739141045019255  0.1662147037812858  1.0000
  H   H4        1.0  0.48357236895295597  0.9573832706916509  0.3337845003775612  1.0000
  H   H5        1.0  0.0932539409059174  0.6952620492024199  0.8352281027121149  1.0000
  H   H6        1.0  0.40672459749113443  0.19526165196650425  0.6647704273007662  1.0000
  H   H7        1.0  0.9067495455020875  0.30473246151513683  0.16477251618401564  1.0000
  H   H8        1.0  0.5932432197441102  0.8047340763920873  0.3352262129864272  1.0000
  H   H9        1.0  0.14588686261745923  0.3000537956238959  0.6738886270028671  1.0000
  H   H10       1.0  0.3541072225915656  0.8000491681493359  0.8261113746840818  1.0000
  H   H11       1.0  0.8540999862018309  0.6999468034697006  0.32611100382402464  1.0000
  H   H12       1.0  0.6459092803394242  0.19994899555255338  0.17388397140297937  1.0000
  H   H13       1.0  0.06527906622141441  0.2521997341348341  0.7465339394815871  1.0000
  H   H14       1.0  0.4347197348546388  0.7521840744705701  0.7534668335314548  1.0000
  H   H15       1.0  0.9347220754365961  0.7478166947986654  0.2534700070783557  1.0000
  H   H16       1.0  0.5652813192692108  0.24780191245308464  0.2465276373139176  1.0000
  H   H17       1.0  0.06287743356708832  0.9427051382089934  0.7164088586201486  1.0000
  H   H18       1.0  0.4371143965492691  0.44271051039814335  0.7835905448602246  1.0000
  H   H19       1.0  0.937120097949233  0.057286937138862015  0.2835900114179494  1.0000
  H   H20       1.0  0.5628772128993162  0.557287653350784  0.21641012970457035  1.0000
  H   H21       1.0  0.1776622637707064  0.8713037453395106  0.6639152877035172  1.0000
  H   H22       1.0  0.3223761687070095  0.37132953160798376  0.8361212764143174  1.0000
  H   H23       1.0  0.8223424551867993  0.12868954774423005  0.33609018188263207  1.0000
  H   H24       1.0  0.6776764136594836  0.6286954214197281  0.16392246536732805  1.0000
  H   H25       1.0  0.647610723563524  0.492484785392918  0.7036179197617755  1.0000
  H   H26       1.0  0.8523849750335515  0.9924978937152462  0.7963805822631967  1.0000
  H   H27       1.0  0.3523808913533557  0.5075097253302163  0.296383347019372  1.0000
  H   H28       1.0  0.1476243896918987  0.007511229068406103  0.20361349435117398  1.0000
  H   H29       1.0  0.7637515140558478  0.3723918770286831  0.7581981520911539  1.0000
  H   H30       1.0  0.7362441050335279  0.8723967038815135  0.7418032196967913  1.0000
  H   H31       1.0  0.23624727189508118  0.6276099397996193  0.24180793757513902  1.0000
  H   H32       1.0  0.26375569466652854  0.12760267742506676  0.2581840315862252  1.0000
  H   H33       1.0  0.836467608282284  0.269284805924066  0.5910091744825365  1.0000
  H   H34       1.0  0.6635374192180095  0.769282865613555  0.9089919212057467  1.0000
  H   H35       1.0  0.1635288110267084  0.7307133578816765  0.4089978738678042  1.0000
  H   H36       1.0  0.3364672122173005  0.23070555667775497  0.09100407273860607  1.0000
  H   H37       1.0  0.9471960433115002  0.3238982965831953  0.5299965876127075  1.0000
  H   H38       1.0  0.5528030584997482  0.8238986566302275  0.9700007011863503  1.0000
  H   H39       1.0  0.0527884388647095  0.6760962141338003  0.47000400189131136  1.0000
  H   H40       1.0  0.44721347177951287  0.17609585406696482  0.029997606024039683  1.0000
  C   C1        1.0  0.42849614835673583  0.5319143673069677  0.5652365812709235  1.0000
  C   C2        1.0  0.071501301662849  0.03191633090810341  0.9347675628530608  1.0000
  C   C3        1.0  0.571474172275444  0.468095973299164  0.4347739060320562  1.0000
  C   C4        1.0  0.9285175569706611  0.9680867034828257  0.0652256400999249  1.0000
  C   C5        1.0  0.35680584204027355  0.5659904852687705  0.6377365750011846  1.0000
  C   C6        1.0  0.14319753457323972  0.06599603105959773  0.862262997452589  1.0000
  C   C7        1.0  0.6431833241875821  0.4340064607378197  0.36225676708015436  1.0000
  C   C8        1.0  0.8568082747178921  0.9340045679923894  0.13773192495244757  1.0000
  C   C9        1.0  0.554650481884977  0.6306301075032154  0.5517408491286985  1.0000
  C   C10       1.0  0.9453484993319065  0.13063232329176344  0.9482618540791066  1.0000
  C   C11       1.0  0.445329157610864  0.3693644031253315  0.448249813229296  1.0000
  C   C12       1.0  0.0546692963162627  0.8693597521262223  0.05174485717831349  1.0000
  C   C13       1.0  0.6004202424973784  0.7741399289270919  0.6074060187716056  1.0000
  C   C14       1.0  0.8995871397762442  0.2741423698506653  0.8925923691900264  1.0000
  C   C15       1.0  0.3995642342133934  0.22586432320078853  0.3925939785333837  1.0000
  C   C16       1.0  0.10042580772041991  0.725847270119559  0.1074038226877008  1.0000
  C   C17       1.0  0.37195186696578014  0.4020657015208259  0.5137642741062294  1.0000
  C   C18       1.0  0.12805776793079812  0.9020687883595004  0.9862377756925582  1.0000
  C   C19       1.0  0.6280563746180476  0.5979616864803604  0.48623679640155604  1.0000
  C   C20       1.0  0.87194454610961  0.09795251126729453  0.013764507080523503  1.0000
  C   C21       1.0  0.2306512271517178  0.30766787570151893  0.5308442388674804  1.0000
  C   C22       1.0  0.2693488036582892  0.807660921527898  0.9691557783233761  1.0000
  C   C23       1.0  0.7693391880356232  0.692327852687072  0.46915573058412  1.0000
  C   C24       1.0  0.7306665104820242  0.19233602449594403  0.03083945488069162  1.0000
  O   O1        1.0  0.20909689382872904  0.5894112007834736  0.6285330145213804  1.0000
  O   O2        1.0  0.2909076825422616  0.08942056816643174  0.8714656196810111  1.0000
  O   O3        1.0  0.7908969892673312  0.4105808744822285  0.37145663347696  1.0000
  O   O4        1.0  0.7090945767868106  0.9105763778672442  0.12853074075530196  1.0000
  O   O5        1.0  0.45485025398792805  0.5708118728652638  0.7054430091075403  1.0000
  O   O6        1.0  0.0451436386964374  0.07082229850436762  0.7945580566744751  1.0000
  O   O7        1.0  0.5451175851250127  0.42917898480634187  0.2945560000727738  1.0000
  O   O8        1.0  0.954860998215132  0.9291795182394368  0.20543852953474578  1.0000
  O   O9        1.0  0.5000244711281426  0.8851823149728024  0.6057046687545267  1.0000
  O   O10       1.0  0.9999770765214324  0.38517991868726414  0.8942943790804563  1.0000
  O   O11       1.0  0.4999612545455322  0.11482802559919494  0.3943019559415219  1.0000
  O   O12       1.0  5.007629744109996e-05  0.6148328571006305  0.1056966529231715  1.0000
  O   O13       1.0  0.7370569535517647  0.7689859295697307  0.655181376291189  1.0000
  O   O14       1.0  0.7629540723182943  0.2689814272549428  0.8448262043536587  1.0000
  O   O15       1.0  0.26294894326269974  0.23102197562872823  0.3448230217625792  1.0000
  O   O16       1.0  0.23704942502970283  0.7310130834731655  0.1551755989959602  1.0000
  O   O17       1.0  0.2417080916627938  0.24127464551655467  0.5992734297078853  1.0000
  O   O18       1.0  0.2582895268200218  0.7412701257524434  0.9007289449515027  1.0000
  O   O19       1.0  0.7582835724863202  0.7587247359621119  0.4007331671278322  1.0000
  O   O20       1.0  0.7417115327778063  0.25872438491561683  0.09926611814486817  1.0000
  O   O21       1.0  0.1037683839055816  0.3074750005575455  0.47690578233842007  1.0000
  O   O22       1.0  0.39623240612419147  0.8074661972579521  0.02309053821954878  1.0000
  O   O23       1.0  0.8962148493122796  0.6925231631314905  0.5230881798022651  1.0000
  O   O24       1.0  0.6037853348268741  0.1925319664924104  0.9769102507877463  1.0000
  O   O25       1.0  0.0010120466376334993  0.6402556132892416  0.8003560492194524  1.0000
  O   O26       1.0  0.4989723897237894  0.14023757469846745  0.6996433242686138  1.0000
  O   O27       1.0  0.9989914780683122  0.3597559449435011  0.19964871531241354  1.0000
  O   O28       1.0  0.5010192087796881  0.859749629946741  0.3003561658115075  1.0000
  O   O29       1.0  0.0980239097847146  0.34796368840361686  0.7178344342931665  1.0000
  O   O30       1.0  0.40197257593352737  0.8479558446893595  0.7821636969418292  1.0000
  O   O31       1.0  0.9019641114164046  0.6520405637062513  0.2821635327434037  1.0000
  O   O32       1.0  0.5980403879697036  0.15202648923455808  0.21783427159534335  1.0000
  O   O33       1.0  0.0683853164766361  0.8646017230997319  0.6722080228735692  1.0000
  O   O34       1.0  0.431636225982679  0.36460909981153844  0.8278008647535556  1.0000
  O   O35       1.0  0.9316133764855151  0.13540252899299082  0.3277879989449771  1.0000
  O   O36       1.0  0.5683911237537416  0.6353988054580673  0.1722114873990677  1.0000
  O   O37       1.0  0.7533953738237572  0.4397703715852759  0.7081529845733809  1.0000
  O   O38       1.0  0.7465990866772714  0.9397797427572531  0.7918451045087522  1.0000
  O   O39       1.0  0.24660216863767906  0.5602326628663054  0.291847069949398  1.0000
  O   O40       1.0  0.25339132304748085  0.06023181542732202  0.20815427276114915  1.0000
  O   O41       1.0  0.8782352284498315  0.3636509112415071  0.5672663478639774  1.0000
  O   O42       1.0  0.6217710815732288  0.863651827672712  0.9327359900745902  1.0000
  O   O43       1.0  0.12175402529851449  0.6363472525264557  0.4327364698487628  1.0000
  O   O44       1.0  0.37823949928320383  0.13633781230601025  0.06726116049758697  1.0000
