data_image0
_chemical_formula_structural       Cd4H32C48I8N16O4
_chemical_formula_sum              "Cd4 H32 C48 I8 N16 O4"
_cell_length_a       7.263410309577984
_cell_length_b       13.728247446112949
_cell_length_c       16.914
_cell_angle_alpha    111.05402282790988
_cell_angle_beta     102.91898420244428
_cell_angle_gamma    89.8083775290014

_space_group_name_H-M_alt    "P 1"
_space_group_IT_number       1

loop_
  _space_group_symop_operation_xyz
  'x, y, z'

loop_
  _atom_site_type_symbol
  _atom_site_label
  _atom_site_symmetry_multiplicity
  _atom_site_fract_x
  _atom_site_fract_y
  _atom_site_fract_z
  _atom_site_occupancy
  Cd  Cd1       1.0  0.673986279868082  0.2549181217459733  0.24410046475682629  1.0000
  Cd  Cd2       1.0  0.4324075502809707  0.245934761513837  0.7563486039941409  1.0000
  Cd  Cd3       1.0  0.3260106150279682  0.7450846603696704  0.7559011716732441  1.0000
  Cd  Cd4       1.0  0.5675843872970461  0.7540633205528593  0.24364409131489848  1.0000
  H   H1        1.0  0.6452443740978495  0.1290602108829688  0.033652557622850986  1.0000
  H   H2        1.0  0.612528160186784  0.37266296477462646  0.9660135195154139  1.0000
  H   H3        1.0  0.3547597033515261  0.870943354574166  0.9663417196425924  1.0000
  H   H4        1.0  0.3874808205687828  0.627326500535645  0.03399071534379061  1.0000
  H   H5        1.0  0.7169623329449666  0.9585898674494117  0.9291755283656895  1.0000
  H   H6        1.0  0.7884145514550269  0.5436961794907305  0.07097283808609232  1.0000
  H   H7        1.0  0.2830431570230019  0.0414136980077231  0.07082420555065029  1.0000
  H   H8        1.0  0.21161901491255017  0.45628780242910233  0.9290309759035296  1.0000
  H   H9        1.0  0.8765407109705593  0.8292116199206205  0.9881028202096614  1.0000
  H   H10       1.0  0.8904194519947881  0.6720161326636003  0.012348048667682594  1.0000
  H   H11       1.0  0.1234672441534599  0.1707895955120335  0.011895282703690706  1.0000
  H   H12       1.0  0.10960882417955282  0.3279701992807063  0.9876553514161869  1.0000
  H   H13       1.0  0.9620229993232956  0.8746352430267378  0.15141825466776024  1.0000
  H   H14       1.0  0.8142276621895166  0.6252851126070667  0.8489243599848207  1.0000
  H   H15       1.0  0.037981198086455906  0.1253691057718882  0.8485851309176339  1.0000
  H   H16       1.0  0.18577085813995356  0.3747098360936576  0.15108401679940897  1.0000
  H   H17       1.0  0.17226495779279827  0.8873144084189022  0.3861575971182276  1.0000
  H   H18       1.0  0.7863865244455968  0.6119542070934187  0.6156568135653087  1.0000
  H   H19       1.0  0.8277274596267219  0.112686807013759  0.6138307368625887  1.0000
  H   H20       1.0  0.21362909307325856  0.3880509250466986  0.38435085299850874  1.0000
  H   H21       1.0  0.4836303287248641  0.9931085936431074  0.6567191313013864  1.0000
  H   H22       1.0  0.8230283913380846  0.5081575426742333  0.34594909648733807  1.0000
  H   H23       1.0  0.5163639540488348  0.0068863550576168  0.3432687369467472  1.0000
  H   H24       1.0  0.17696802371645504  0.4918421060754383  0.6540574924971593  1.0000
  H   H25       1.0  0.37601394005100996  0.8469989551831887  0.5088493895243644  1.0000
  H   H26       1.0  0.8646689534196171  0.6535206566921161  0.4940636008093549  1.0000
  H   H27       1.0  0.6239738799316116  0.1529999102249917  0.4911384090567594  1.0000
  H   H28       1.0  0.13534699697444813  0.34647742537457293  0.5059408595750057  1.0000
  H   H29       1.0  0.20345710197334915  0.20848007140750718  0.5649518862786209  1.0000
  H   H30       1.0  0.6373708275751541  0.2913325343507083  0.43530362972798287  1.0000
  H   H31       1.0  0.7965406056394073  0.7915187940006803  0.43503981773895356  1.0000
  H   H32       1.0  0.36261443429695117  0.7086772978383705  0.5647048577706713  1.0000
  C   C1        1.0  0.7134187095252643  0.0702069812351951  0.05698845939642178  1.0000
  C   C2        1.0  0.6579260499946643  0.4311754408733108  0.9428667943557869  1.0000
  C   C3        1.0  0.2865865405219524  0.9297950175389573  0.9430054736302864  1.0000
  C   C4        1.0  0.3420848231209988  0.5688171578029326  0.05713853582608411  1.0000
  C   C5        1.0  0.7543201356947762  0.9753001081602547  0.9991641639201204  1.0000
  C   C6        1.0  0.7563629172479625  0.5263451654392952  0.0009230997516170403  1.0000
  C   C7        1.0  0.2456832219923442  0.0246987572479327  0.0008345860459542023  1.0000
  C   C8        1.0  0.24365312610056122  0.4736442998709833  0.9990847693139172  1.0000
  C   C9        1.0  0.8431916412416884  0.9034199094977922  0.03234239699446565  1.0000
  C   C10       1.0  0.8128115963738838  0.5976644915933633  0.967871965353737  1.0000
  C   C11       1.0  0.15681231624731143  0.09658287261785149  0.9676557789275008  1.0000
  C   C12       1.0  0.18720549961210514  0.4023226236924344  0.03213354586754494  1.0000
  C   C13       1.0  0.89130867083793  0.9280630494997836  0.12234911096860658  1.0000
  C   C14       1.0  0.7718668011440003  0.5722615103439779  0.8778120169517577  1.0000
  C   C15       1.0  0.10869306141576371  0.0719436493233232  0.8776499933577424  1.0000
  C   C16       1.0  0.2281419666967324  0.4277357883812201  0.12219625524000578  1.0000
  C   C17       1.0  0.8486995439833651  0.025645033770466296  0.17514739817866598  1.0000
  C   C18       1.0  0.6762360583881275  0.4745239923666773  0.8247830801455791  1.0000
  C   C19       1.0  0.15129416599437215  0.9743553983207036  0.8248467437523459  1.0000
  C   C20       1.0  0.3237544666712965  0.5254740897000119  0.17522366897726732  1.0000
  C   C21       1.0  0.9075407631220997  0.0655280825025031  0.269523032956954  1.0000
  C   C22       1.0  0.6403763239617676  0.4341231549083203  0.7304982605328405  1.0000
  C   C23       1.0  0.09244648406455983  0.9344762662961301  0.7304722217594558  1.0000
  C   C24       1.0  0.3596159734973767  0.5658772771828424  0.26950993521197825  1.0000
  C   C25       1.0  0.056476844352452815  0.0817785017574408  0.39867458281618434  1.0000
  C   C26       1.0  0.6588828457851008  0.41742623100284953  0.6017815843434703  1.0000
  C   C27       1.0  0.9435169855856531  0.9182227136752132  0.6013197990417253  1.0000
  C   C28       1.0  0.3411112240737638  0.582576551112794  0.398223328213696  1.0000
  C   C29       1.0  0.1739691060236339  0.0518775736600503  0.46609383689985145  1.0000
  C   C30       1.0  0.7078292305400427  0.4475496280840119  0.5348712223027832  1.0000
  C   C31       1.0  0.8260288415098745  0.9481228584311125  0.5339007118763419  1.0000
  C   C32       1.0  0.2921735543511233  0.5524547207146142  0.4651343925723594  1.0000
  C   C33       1.0  0.22329930524134775  0.9487080145257636  0.4504941609486935  1.0000
  C   C34       1.0  0.7722959745367319  0.5509162380240014  0.551222525409237  1.0000
  C   C35       1.0  0.776696989852816  0.0512908508824239  0.5494950425490115  1.0000
  C   C36       1.0  0.22770503795471345  0.4490857607501511  0.448786372653565  1.0000
  C   C37       1.0  0.3953443926279548  0.0063842331611355  0.6005342911198142  1.0000
  C   C38       1.0  0.7919143632746428  0.4943464488258869  0.40165145243709327  1.0000
  C   C39       1.0  0.6046488375082789  0.9936130655640625  0.39945297884155206  1.0000
  C   C40       1.0  0.20808406410036895  0.505657116631248  0.5983558805707787  1.0000
  C   C41       1.0  0.3343807535628969  0.9261070457938486  0.5191834715752179  1.0000
  C   C42       1.0  0.8132079755422268  0.574204980586039  0.48312944352549886  1.0000
  C   C43       1.0  0.6656096515361511  0.0738902529313492  0.480807074513244  1.0000
  C   C44       1.0  0.18679868702358254  0.42579701818811333  0.5168794057713484  1.0000
  C   C45       1.0  0.23998142806259892  0.1277684807623913  0.5499237928195129  1.0000
  C   C46       1.0  0.6889391862447385  0.3721334259259237  0.45093148631190166  1.0000
  C   C47       1.0  0.7600166394312853  0.8722327346702698  0.4500680397525727  1.0000
  C   C48       1.0  0.31104535586511883  0.6278717062141935  0.5490708318157189  1.0000
  I   I1        1.0  0.7599656294718076  0.3759663158470872  0.15611673386197109  1.0000
  I   I2        1.0  0.6082855566169558  0.1261806475577743  0.8463988566975402  1.0000
  I   I3        1.0  0.24004551057053197  0.6240372496100477  0.843887681098046  1.0000
  I   I4        1.0  0.3917081533607815  0.8738197845333957  0.15359765013828044  1.0000
  I   I5        1.0  0.3065917282738441  0.2055072904447428  0.24916315097964775  1.0000
  I   I6        1.0  0.05796565858304351  0.2935282405532433  0.7496923664378341  1.0000
  I   I7        1.0  0.693403781109531  0.7945048917688098  0.7508375459859025  1.0000
  I   I8        1.0  0.9420321689900888  0.7064714081964354  0.2503048985424812  1.0000
  N   N1        1.0  0.7588218770147537  0.094828971016895  0.1431757717833548  1.0000
  N   N2        1.0  0.6180464168754656  0.4058562771635863  0.8566257589929903  1.0000
  N   N3        1.0  0.24117796287885085  0.9051745944402397  0.8568180986369001  1.0000
  N   N4        1.0  0.38194975825832256  0.5941418049031029  0.14338330626871712  1.0000
  N   N5        1.0  0.8782359823732123  0.1579733453587409  0.3228047923553205  1.0000
  N   N6        1.0  0.5569268351700318  0.3416872921499916  0.6770790033968268  1.0000
  N   N7        1.0  0.12176656259719464  0.8420294367569028  0.6771914742729733  1.0000
  N   N8        1.0  0.44306522236836093  0.6583115732581959  0.3229269388155842  1.0000
  N   N9        1.0  0.9744847619910646  0.1689941768119922  0.4060306245350063  1.0000
  N   N10       1.0  0.5692411720569056  0.3303789743691112  0.5941019670245423  1.0000
  N   N11       1.0  0.02551495794216411  0.8310086053036514  0.5939653708631596  1.0000
  N   N12       1.0  0.4307584279159472  0.6696230244050411  0.40590443051838315  1.0000
  N   N13       1.0  0.34825573717105135  0.1052105958125438  0.615086673316483  1.0000
  N   N14       1.0  0.7307765816406118  0.3952850837268329  0.3863341280769673  1.0000
  N   N15       1.0  0.6517389054837752  0.8947867029126542  0.3849019147123584  1.0000
  N   N16       1.0  0.26921631562041176  0.6047192650717932  0.6136693550403364  1.0000
  O   O1        1.0  0.01763810087968661  0.0125718476077381  0.3135701183203068  1.0000
  O   O2        1.0  0.7060998160835513  0.486793470158446  0.6868368238302338  1.0000
  O   O3        1.0  0.9823493592218073  0.9874246677759686  0.686421690289734  1.0000
  O   O4        1.0  0.2938844861055472  0.5132100952986889  0.3131709267056094  1.0000
