data_image0
_chemical_formula_structural       Na4H24C24S8N4O20
_chemical_formula_sum              "Na4 H24 C24 S8 N4 O20"
_cell_length_a       7.914680483022336
_cell_length_b       10.876107258086604
_cell_length_c       11.113572724097168
_cell_angle_alpha    90.00043020417185
_cell_angle_beta     90.00019750647036
_cell_angle_gamma    90.00017958293091

_space_group_name_H-M_alt    "P 1"
_space_group_IT_number       1

loop_
  _space_group_symop_operation_xyz
  'x, y, z'

loop_
  _atom_site_type_symbol
  _atom_site_label
  _atom_site_symmetry_multiplicity
  _atom_site_fract_x
  _atom_site_fract_y
  _atom_site_fract_z
  _atom_site_occupancy
  Na  Na1       1.0  0.47771337552237714  0.1952379088063907  0.2901195216641739  1.0000
  Na  Na2       1.0  0.5222819727029063  0.6952328280566888  0.7098873868383891  1.0000
  Na  Na3       1.0  0.9777144155809052  0.1952308309762927  0.2098876145705617  1.0000
  Na  Na4       1.0  0.0222809326508653  0.6952399058973101  0.7901219933339548  1.0000
  H   H1        1.0  0.9834355010148953  0.5822837842195343  0.43065960998663405  1.0000
  H   H2        1.0  0.016537899081939096  0.0823230528786141  0.569364478116988  1.0000
  H   H3        1.0  0.48347130372098224  0.5823093686419725  0.0693530379056995  1.0000
  H   H4        1.0  0.5165526352908786  0.08228275728935591  0.9306503547921638  1.0000
  H   H5        1.0  0.9592873427153775  0.533758188976215  0.2120591345851182  1.0000
  H   H6        1.0  0.04073892175293281  0.03379921908562271  0.7879601037954629  1.0000
  H   H7        1.0  0.4592938730911129  0.5337772026928534  0.28794860377733766  1.0000
  H   H8        1.0  0.5407071217816509  0.0337507829878447  0.7120553378545722  1.0000
  H   H9        1.0  0.8316435058988886  0.6854762949223243  0.0713208052348193  1.0000
  H   H10       1.0  0.168437718146393  0.1855150460373026  0.9286797343610119  1.0000
  H   H11       1.0  0.331595120047254  0.6854826141476879  0.4286805159435758  1.0000
  H   H12       1.0  0.6683622833610485  0.18546551266077668  0.5713164241404486  1.0000
  H   H13       1.0  0.7181562584023241  0.884243342451157  0.14646463582873542  1.0000
  H   H14       1.0  0.2819043121771968  0.38427993679285066  0.8535247434113131  1.0000
  H   H15       1.0  0.21810498426954444  0.884244478551345  0.3535333427596612  1.0000
  H   H16       1.0  0.7818444004331582  0.38423374768774476  0.6464587355821153  1.0000
  H   H17       1.0  0.5542833388411594  0.4080197685442215  0.46336710340249715  1.0000
  H   H18       1.0  0.44571036626066973  0.9080030422490992  0.5366386438537134  1.0000
  H   H19       1.0  0.054276026031566005  0.408003722780208  0.0366387250023195  1.0000
  H   H20       1.0  0.9457151521329691  0.908020926917388  0.9633706214600295  1.0000
  H   H21       1.0  0.7219462154019424  0.3592909090664094  0.405444266968317  1.0000
  H   H22       1.0  0.27804349685400354  0.8592733188833891  0.5945575288163739  1.0000
  H   H23       1.0  0.22194802542531988  0.35928083158039215  0.0945562247351788  1.0000
  H   H24       1.0  0.7780517946552834  0.8592925908580185  0.9054482704971963  1.0000
  C   C1        1.0  0.7869427141489923  0.8427789373994515  0.3304243155575932  1.0000
  C   C2        1.0  0.21307472603364627  0.3428102571351985  0.669562964262667  1.0000
  C   C3        1.0  0.28692972320835247  0.8427887531463086  0.16956633494407922  1.0000
  C   C4        1.0  0.713052339620262  0.3427728579481197  0.8304209447327723  1.0000
  C   C5        1.0  0.8615850346884244  0.7589828062716039  0.4089937981697959  1.0000
  C   C6        1.0  0.1384118418828351  0.2590151760745983  0.591017170484392  1.0000
  C   C7        1.0  0.36159314509374957  0.7589966067709709  0.0910171264823205  1.0000
  C   C8        1.0  0.6384049948851853  0.2589783893797915  0.9089857438844721  1.0000
  C   C9        1.0  0.924071119453984  0.6468093178082056  0.36902432489763737  1.0000
  C   C10       1.0  0.07591518337316931  0.14684736829636344  0.630982233659431  1.0000
  C   C11       1.0  0.4240933202702166  0.6468335438372819  0.13097874491876382  1.0000
  C   C12       1.0  0.5759157250531571  0.14680659222702272  0.8690206152013645  1.0000
  C   C13       1.0  0.9112932488957598  0.6209714543986493  0.2461528372774779  1.0000
  C   C14       1.0  0.08872706046184219  0.12100313760756622  0.7538733301310997  1.0000
  C   C15       1.0  0.41128950756534277  0.6209883634383432  0.25386711033412723  1.0000
  C   C16       1.0  0.5886992148196268  0.12095864506196113  0.7461410609226532  1.0000
  C   C17       1.0  0.8389908850587914  0.7060750389488888  0.16696070023009923  1.0000
  C   C18       1.0  0.16106010115494476  0.2061148658892193  0.83303998824055  1.0000
  C   C19       1.0  0.3389609914516213  0.7060852097134289  0.33303089024310145  1.0000
  C   C20       1.0  0.6610103957332143  0.20606883655306527  0.6669545013884672  1.0000
  C   C21       1.0  0.7752072144765875  0.8183717359951004  0.20802522973962573  1.0000
  C   C22       1.0  0.2248391842991424  0.3184123128717715  0.7919762705207206  1.0000
  C   C23       1.0  0.27517459650160003  0.8183797477530846  0.29198141170250846  1.0000
  C   C24       1.0  0.7247909397886758  0.318364764796307  0.7080155893117421  1.0000
  S   S1        1.0  0.7290128585372813  0.980134375267028  0.4063418213883807  1.0000
  S   S2        1.0  0.27098999049853484  0.4801689176947619  0.5936446517664393  1.0000
  S   S3        1.0  0.22901719123305495  0.9801500352666892  0.09365237834304452  1.0000
  S   S4        1.0  0.7709818673355927  0.4801348687513142  0.9063322951393218  1.0000
  S   S5        1.0  0.8747976722584595  0.8190940602585498  0.5570175378761492  1.0000
  S   S6        1.0  0.1252019809063469  0.31910777525762773  0.4429902660555953  1.0000
  S   S7        1.0  0.3747986306945777  0.8190940549447492  0.9429864104017015  1.0000
  S   S8        1.0  0.6251997589304352  0.3190921499248703  0.05700789646218142  1.0000
  N   N1        1.0  0.7664713430782298  0.9410786944789041  0.5418535045270475  1.0000
  N   N2        1.0  0.23348206819312622  0.4411065751412196  0.4581326862091545  1.0000
  N   N3        1.0  0.26650901520520165  0.9410935185443704  0.9581402603712732  1.0000
  N   N4        1.0  0.7335189410588113  0.44107428169564855  0.0418504293971651  1.0000
  O   O1        1.0  0.5480129775507052  0.006961475909292899  0.39433563929380006  1.0000
  O   O2        1.0  0.45200433109741317  0.5069820803536446  0.605623118644708  1.0000
  O   O3        1.0  0.047998415772411804  0.006967115486944  0.10563398181109561  1.0000
  O   O4        1.0  0.9519721442936769  0.5069626490496264  0.8943319744250292  1.0000
  O   O5        1.0  0.8367739204658305  0.0795437304707889  0.3631203741652058  1.0000
  O   O6        1.0  0.16326643233749388  0.5795712519852714  0.6368802993538409  1.0000
  O   O7        1.0  0.3367443471759088  0.0795542107786886  0.13688467765013  1.0000
  O   O8        1.0  0.6632126162251524  0.5795350270631446  0.8631132962708676  1.0000
  O   O9        1.0  0.7955816189069509  0.7347902414404573  0.6429112058645999  1.0000
  O   O10       1.0  0.20442273798911254  0.23480255444793138  0.3571031870409414  1.0000
  O   O11       1.0  0.2955745835318879  0.734793244267486  0.857106334032821  1.0000
  O   O12       1.0  0.704413348165872  0.23478759879551359  0.1429080588092191  1.0000
  O   O13       1.0  0.05093762881889319  0.8444009736359632  0.587365987623933  1.0000
  O   O14       1.0  0.9490330694718307  0.34439249233451363  0.41263120152760285  1.0000
  O   O15       1.0  0.5509560689005893  0.8443844432373664  0.9126301448272045  1.0000
  O   O16       1.0  0.44905253359909386  0.3443961505077269  0.08736254532136911  1.0000
  O   O17       1.0  0.5984945889818291  0.3563733324702554  0.3985984205131531  1.0000
  O   O18       1.0  0.4014887938206684  0.8563625234231936  0.6014141518049101  1.0000
  O   O19       1.0  0.09849895890871352  0.3563679056398357  0.10141344245244711  1.0000
  O   O20       1.0  0.9014995856079154  0.8563743864013346  0.8986000297082698  1.0000
