data_image0
_chemical_formula_structural       U2H14C14N2O10
_chemical_formula_sum              "U2 H14 C14 N2 O10"
_cell_length_a       6.380338696118343
_cell_length_b       8.262012255595579
_cell_length_c       9.024001279494716
_cell_angle_alpha    91.84846062457272
_cell_angle_beta     96.28721719037637
_cell_angle_gamma    110.12865978424482

_space_group_name_H-M_alt    "P 1"
_space_group_IT_number       1

loop_
  _space_group_symop_operation_xyz
  'x, y, z'

loop_
  _atom_site_type_symbol
  _atom_site_label
  _atom_site_symmetry_multiplicity
  _atom_site_fract_x
  _atom_site_fract_y
  _atom_site_fract_z
  _atom_site_occupancy
  U   U1        1.0  0.3144498437039829  0.2898496707956184  0.3849615846898261  1.0000
  U   U2        1.0  0.6855462606251521  0.7101739252818722  0.6149971405858636  1.0000
  H   H1        1.0  0.2103536283177547  0.5864226090331501  0.5301144673181784  1.0000
  H   H2        1.0  0.7896333583140773  0.41357432638803004  0.46989393186179745  1.0000
  H   H3        1.0  0.314967573743786  0.886240689321511  0.35065264017394077  1.0000
  H   H4        1.0  0.6850373384619459  0.11375750347563951  0.6493538699435961  1.0000
  H   H5        1.0  0.10580858831500718  0.5832379412252069  0.24895182713490271  1.0000
  H   H6        1.0  0.8941953110323766  0.41676142827065404  0.7510424392028838  1.0000
  H   H7        1.0  0.7274412400830172  0.5147862107575067  0.09295395531160724  1.0000
  H   H8        1.0  0.27256010007322834  0.4852144732246374  0.9070423553602041  1.0000
  H   H9        1.0  0.5910536743114463  0.7578681743314636  0.03536805612834121  1.0000
  H   H10       1.0  0.40894355099307944  0.24213391962873493  0.9646401525502101  1.0000
  H   H11       1.0  0.659329706269567  0.05716721048644052  0.042328088770368325  1.0000
  H   H12       1.0  0.34067068165884257  0.9428349251171756  0.9576848019884281  1.0000
  H   H13       1.0  0.9438602804531655  0.1995225545764186  0.08336652100032892  1.0000
  H   H14       1.0  0.05613577063306958  0.8004769751597038  0.9166437553933307  1.0000
  C   C1        1.0  0.1539056454091394  0.8529419023606836  0.2801326766663195  1.0000
  C   C2        1.0  0.8460959241572182  0.14705242327865162  0.7198745939837539  1.0000
  C   C3        1.0  0.0345531046907795  0.6831587046276443  0.22473351065399072  1.0000
  C   C4        1.0  0.9654476553521505  0.31684072896432275  0.7752671597061467  1.0000
  C   C5        1.0  0.827275374294558  0.6462344156627112  0.1373555754531282  1.0000
  C   C6        1.0  0.17272971326277545  0.35376758150093235  0.8626432748311075  1.0000
  C   C7        1.0  0.7497042277415602  0.7810153802248438  0.1059173120499111  1.0000
  C   C8        1.0  0.25029870538634214  0.21898537744876737  0.8940868827133174  1.0000
  C   C9        1.0  0.8811967538573455  0.9489078131889958  0.16228481992875035  1.0000
  C   C10       1.0  0.1188044226070133  0.05108911929642091  0.8377246936276495  1.0000
  C   C11       1.0  0.8068428011620126  0.09842364727310131  0.1272899062193176  1.0000
  C   C12       1.0  0.19315837297040156  0.9015732746383593  0.8727184987268188  1.0000
  C   C13       1.0  0.7548257111499407  0.18038396158312517  0.2650747772421056  1.0000
  C   C14       1.0  0.2451791917280205  0.8196141889182161  0.7349272984343928  1.0000
  N   N1        1.0  0.0796196548858675  0.9841498120213432  0.24978580403206513  1.0000
  N   N2        1.0  0.9203866376288445  0.015844480917550603  0.7502185122460361  1.0000
  O   O1        1.0  0.3305497064055131  0.16327627570276357  0.5432820781366487  1.0000
  O   O2        1.0  0.6694553885714782  0.8367153472725379  0.4567132197539721  1.0000
  O   O3        1.0  0.29361531835341736  0.4024283235332789  0.21731278998831274  1.0000
  O   O4        1.0  0.7063763585795542  0.5975684311521192  0.7826771342760637  1.0000
  O   O5        1.0  0.9106728215413469  0.24522079873317187  0.37410888615296767  1.0000
  O   O6        1.0  0.08932045769105917  0.7547760719395101  0.6258933566438643  1.0000
  O   O7        1.0  0.5572260357515473  0.18322492778263924  0.2627459093727182  1.0000
  O   O8        1.0  0.4427755124034931  0.8167797086013311  0.7372582620094124  1.0000
  O   O9        1.0  0.3159846352406248  0.5232207328146431  0.5343926711878453  1.0000
  O   O10       1.0  0.6840203935942952  0.4767914059103904  0.46558534206431557  1.0000
