data_image0
_chemical_formula_structural       Ni4H36C16N4O24
_chemical_formula_sum              "Ni4 H36 C16 N4 O24"
_cell_length_a       7.690714872028107
_cell_length_b       9.124439756032666
_cell_length_c       10.889846946034018
_cell_angle_alpha    89.99980773467985
_cell_angle_beta     90.00019694027633
_cell_angle_gamma    89.99975476344572

_space_group_name_H-M_alt    "P 1"
_space_group_IT_number       1

loop_
  _space_group_symop_operation_xyz
  'x, y, z'

loop_
  _atom_site_type_symbol
  _atom_site_label
  _atom_site_symmetry_multiplicity
  _atom_site_fract_x
  _atom_site_fract_y
  _atom_site_fract_z
  _atom_site_occupancy
  Ni  Ni1       1.0  0.856332467364936  0.9495759684089791  0.9003686757871563  1.0000
  Ni  Ni2       1.0  0.14366505507945246  0.5504184494173003  0.4003604297539242  1.0000
  Ni  Ni3       1.0  0.6436765905178559  0.44957911245034415  0.09964434398647631  1.0000
  Ni  Ni4       1.0  0.35632456391926565  0.05042092350442569  0.5996350402211521  1.0000
  H   H1        1.0  0.1389086269552422  0.9357596918876463  0.7728270344429546  1.0000
  H   H2        1.0  0.861105156762505  0.5642451243620098  0.2728158413541379  1.0000
  H   H3        1.0  0.3611011347193766  0.435770286436913  0.22717658593609266  1.0000
  H   H4        1.0  0.6389097637114955  0.0642401742978791  0.7271633159946519  1.0000
  H   H5        1.0  0.17003112614982996  0.8440419562724982  0.9004873901961545  1.0000
  H   H6        1.0  0.8299767990171387  0.6559579408383696  0.4004731235607863  1.0000
  H   H7        1.0  0.32997910249873275  0.3440477183472196  0.0995146393631572  1.0000
  H   H8        1.0  0.6700064480183839  0.15596327776326285  0.5995021148577352  1.0000
  H   H9        1.0  0.123339627027967  0.697894308049882  0.70071612853657  1.0000
  H   H10       1.0  0.8766776944111426  0.8021075227100097  0.2007034163267321  1.0000
  H   H11       1.0  0.37665444221697436  0.19790016038376015  0.2992899657344665  1.0000
  H   H12       1.0  0.6233347147690508  0.30210342223693226  0.7992815317009205  1.0000
  H   H13       1.0  0.9806690457929502  0.50280656722947  0.8190753481754811  1.0000
  H   H14       1.0  0.019338469479301092  0.9971903833812943  0.31906928683180524  1.0000
  H   H15       1.0  0.5193292840455752  0.0028098177956437  0.18093611378921545  1.0000
  H   H16       1.0  0.48062547003556916  0.4971843975651211  0.6809286592005039  1.0000
  H   H17       1.0  0.14772957541665474  0.5838583466307696  0.9024620287135933  1.0000
  H   H18       1.0  0.8522666572634561  0.9161470220029241  0.40245079034060194  1.0000
  H   H19       1.0  0.3522728760155686  0.08386732463073798  0.09753794310248762  1.0000
  H   H20       1.0  0.6477139648114371  0.4161645029238342  0.5975439532181994  1.0000
  H   H21       1.0  0.03510367723998089  0.17253594776551034  0.8134758894921817  1.0000
  H   H22       1.0  0.9648881517424783  0.3274664793839576  0.31347800868616826  1.0000
  H   H23       1.0  0.46489572219200415  0.6725310226218824  0.18652017159206483  1.0000
  H   H24       1.0  0.535103324042495  0.827467579796881  0.6865215639486166  1.0000
  H   H25       1.0  0.8627602265328062  0.2224211937816989  0.8914227916073827  1.0000
  H   H26       1.0  0.13723589573368855  0.2775754267241409  0.39141943159128095  1.0000
  H   H27       1.0  0.6372447867607248  0.7224243502147373  0.10857706249638002  1.0000
  H   H28       1.0  0.362759068090689  0.7775745790408661  0.6085772663285455  1.0000
  H   H29       1.0  0.057725847907292384  0.9573768392023961  0.09195967348620118  1.0000
  H   H30       1.0  0.9422922262328938  0.5426210637560445  0.5919581919064711  1.0000
  H   H31       1.0  0.4423020075202543  0.4573711349916891  0.9080448073019627  1.0000
  H   H32       1.0  0.5576941984417728  0.04262760772209619  0.4080439804963164  1.0000
  H   H33       1.0  0.9956121171769747  0.1267740601448324  0.07221872441360232  1.0000
  H   H34       1.0  0.004386298674241097  0.3732184190947975  0.5722196686500639  1.0000
  H   H35       1.0  0.5044037852284262  0.6267764513085936  0.9277749579727727  1.0000
  H   H36       1.0  0.49558347305769945  0.8732222354331752  0.4277712632510956  1.0000
  C   C1        1.0  0.8530219940192508  0.7514798382105282  0.7048868510400724  1.0000
  C   C2        1.0  0.14699014742543423  0.7485099194917524  0.20489461117262667  1.0000
  C   C3        1.0  0.6469659678690718  0.2514799587370717  0.29512669948699977  1.0000
  C   C4        1.0  0.3530270689762246  0.24850391412601158  0.7951040012307263  1.0000
  C   C5        1.0  0.028223728190781092  0.7295028477840829  0.7710126468333911  1.0000
  C   C6        1.0  0.9717913467046766  0.7704943043471602  0.2710112616754473  1.0000
  C   C7        1.0  0.47178318278441356  0.22951413242645197  0.22898601646182473  1.0000
  C   C8        1.0  0.5282160223639989  0.27049193689537526  0.7289801990535525  1.0000
  C   C9        1.0  0.017576374883098798  0.6054632741807209  0.864655989921609  1.0000
  C   C10       1.0  0.9824209677035398  0.894540061076597  0.3646414413278407  1.0000
  C   C11       1.0  0.4824259666068753  0.10546395359062187  0.1353576983160067  1.0000
  C   C12       1.0  0.5175558636038388  0.3945414124259868  0.6353496869951061  1.0000
  C   C13       1.0  0.8942610235605456  0.6266441420493791  0.9720992702695385  1.0000
  C   C14       1.0  0.1057459619095837  0.8733609345509803  0.47208823351276413  1.0000
  C   C15       1.0  0.6057626812593566  0.12661155672853394  0.0279136965385192  1.0000
  C   C16       1.0  0.39424201279996385  0.3733843961980553  0.5278962699956936  1.0000
  N   N1        1.0  0.08035653354554738  0.8656381048611974  0.8333366338053808  1.0000
  N   N2        1.0  0.9196484529841055  0.6343620738277663  0.333329063202207  1.0000
  N   N3        1.0  0.41964968433047994  0.36564655056190526  0.16666350130832094  1.0000
  N   N4        1.0  0.5803466064685877  0.1343608760660189  0.6666563342544337  1.0000
  O   O1        1.0  0.7549828188867661  0.8563729529797255  0.7416272405625721  1.0000
  O   O2        1.0  0.24501650482624623  0.6436221304849422  0.24162724691175447  1.0000
  O   O3        1.0  0.7450007081597504  0.3563717788455704  0.2583897020590982  1.0000
  O   O4        1.0  0.25498434207992193  0.14362649551381418  0.7583762379251554  1.0000
  O   O5        1.0  0.8095865050546746  0.6651032851600432  0.6195634026261346  1.0000
  O   O6        1.0  0.19044080996685145  0.8349043656220657  0.11957470626101953  1.0000
  O   O7        1.0  0.6904096982299065  0.16509741180551168  0.3804476244942806  1.0000
  O   O8        1.0  0.3095850685064149  0.3348948709032341  0.8804402038318387  1.0000
  O   O9        1.0  0.8089305887397628  0.7460061128271319  0.9872195167287432  1.0000
  O   O10       1.0  0.19106867127798918  0.7539967084468556  0.48721818263187094  1.0000
  O   O11       1.0  0.691088607466163  0.24600945048550218  0.012792211923695602  1.0000
  O   O12       1.0  0.3089121096524109  0.2539887577634943  0.5127794967436685  1.0000
  O   O13       1.0  0.8815982436018143  0.5165889442793914  0.04322776214333861  1.0000
  O   O14       1.0  0.11840918300114817  0.9834080671010099  0.5432213320731947  1.0000
  O   O15       1.0  0.6184234209449995  0.016592968721155895  0.9567974372177589  1.0000
  O   O16       1.0  0.3815899339699769  0.48339570594733045  0.45677665093688813  1.0000
  O   O17       1.0  0.9075479916040335  0.15961191811181408  0.8243448504975603  1.0000
  O   O18       1.0  0.09244519237049076  0.3403882715506369  0.3243430537897467  1.0000
  O   O19       1.0  0.5924495398768386  0.6596083786858314  0.17565609018266312  1.0000
  O   O20       1.0  0.40755075192631535  0.840389173330628  0.6756571489758302  1.0000
  O   O21       1.0  0.9567980306078706  0.025373938029922292  0.0692215274702406  1.0000
  O   O22       1.0  0.043215973357845876  0.4746218416369246  0.5692158629922588  1.0000
  O   O23       1.0  0.5432222889183151  0.5253674092694424  0.9307834460609783  1.0000
  O   O24       1.0  0.4567675850587489  0.974630168893107  0.4307803069403775  1.0000
