data_image0
_chemical_formula_structural       Cu4H52C80O20
_chemical_formula_sum              "Cu4 H52 C80 O20"
_cell_length_a       12.351386140086847
_cell_length_b       15.900001777353875
_cell_length_c       30.6531772450375
_cell_angle_alpha    90.00002163762792
_cell_angle_beta     90.00015598542201
_cell_angle_gamma    112.87955305407264

_space_group_name_H-M_alt    "P 1"
_space_group_IT_number       1

loop_
  _space_group_symop_operation_xyz
  'x, y, z'

loop_
  _atom_site_type_symbol
  _atom_site_label
  _atom_site_symmetry_multiplicity
  _atom_site_fract_x
  _atom_site_fract_y
  _atom_site_fract_z
  _atom_site_occupancy
  Cu  Cu1       1.0  0.5647765005194999  0.4561302468543076  1.0073475707e-06  1.0000
  Cu  Cu2       1.0  0.4352426157490328  0.543865964587269  0.9999997293562118  1.0000
  Cu  Cu3       1.0  0.1086469492257721  0.5438986084075026  0.4999995044977936  1.0000
  Cu  Cu4       1.0  0.8913457495027046  0.4561030585314256  0.5000002535005947  1.0000
  H   H1        1.0  0.7260647096988676  0.8482391469092291  0.1582313871123731  1.0000
  H   H2        1.0  0.27393450584141027  0.15176072204246793  0.15823433353551047  1.0000
  H   H3        1.0  0.8780161438005223  0.15187851043047831  0.34165121579003005  1.0000
  H   H4        1.0  0.12197314305645082  0.8481233210527463  0.34165510705587115  1.0000
  H   H5        1.0  0.2739319883665133  0.15175432992943885  0.8417664135046863  1.0000
  H   H6        1.0  0.7260665434415685  0.8482382162162808  0.8417673818499481  1.0000
  H   H7        1.0  0.12197391108570348  0.8481211082789598  0.6583456061325988  1.0000
  H   H8        1.0  0.8780219848033183  0.15187834636113712  0.6583495444006999  1.0000
  H   H9        1.0  0.9115285685793707  0.9381224960933422  0.1838122066769472  1.0000
  H   H10       1.0  0.08846941739928842  0.061884281920065114  0.18381232166861144  1.0000
  H   H11       1.0  0.9734495684727521  0.06202117345284111  0.3162666154800107  1.0000
  H   H12       1.0  0.026549183734040756  0.9379853549095074  0.3162671565341384  1.0000
  H   H13       1.0  0.08846860810680113  0.06188326713986211  0.8161878775547535  1.0000
  H   H14       1.0  0.9115314663334145  0.9381207994546585  0.8161884150259836  1.0000
  H   H15       1.0  0.026550037321527727  0.9379845902462453  0.6837328162921139  1.0000
  H   H16       1.0  0.9734540903143267  0.06202450492820331  0.6837326014708652  1.0000
  H   H17       1.0  0.8787992852871297  0.6495588171447791  0.17848840615302922  1.0000
  H   H18       1.0  0.12121216762348304  0.3504506763525868  0.1784892650280554  1.0000
  H   H19       1.0  0.229653804806091  0.35067379739921734  0.3215877046074453  1.0000
  H   H20       1.0  0.7703443477201902  0.6493266050753661  0.32158281143378536  1.0000
  H   H21       1.0  0.121213958714776  0.3504483143208432  0.8215113518571968  1.0000
  H   H22       1.0  0.8787987740295193  0.6495550895288107  0.8215121241330509  1.0000
  H   H23       1.0  0.7703428544927675  0.6493244574466813  0.6784159681582693  1.0000
  H   H24       1.0  0.22966083801077272  0.3506757468259849  0.6784107481928743  1.0000
  H   H25       1.0  0.6202538101714269  0.7619142769329842  0.09306548197118758  1.0000
  H   H26       1.0  0.37974157239222  0.23807718749145582  0.09306497299910893  1.0000
  H   H27       1.0  0.8583285893308527  0.2381014423859682  0.4068036763349597  1.0000
  H   H28       1.0  0.14165165270163277  0.7618992350897925  0.40680789897854197  1.0000
  H   H29       1.0  0.3797392584445801  0.23807032577477122  0.9069352547171334  1.0000
  H   H30       1.0  0.6202521403716689  0.7619135584857945  0.9069334800769583  1.0000
  H   H31       1.0  0.14165592438794047  0.76189681011504  0.5931937980453981  1.0000
  H   H32       1.0  0.8583322660640675  0.23810106502556755  0.5931970787021825  1.0000
  H   H33       1.0  0.7729973014218672  0.5642584890847216  0.1129535344689288  1.0000
  H   H34       1.0  0.22701231510313144  0.4357385036323151  0.11295191643446861  1.0000
  H   H35       1.0  0.20879784173865093  0.4359286179962041  0.38708466377770623  1.0000
  H   H36       1.0  0.7911908394058713  0.564066536081576  0.38708010345422394  1.0000
  H   H37       1.0  0.22701904426839556  0.4357370392547679  0.887048833385542  1.0000
  H   H38       1.0  0.7729946556071569  0.5642577054728976  0.8870478415712597  1.0000
  H   H39       1.0  0.7911906325587168  0.564066222414965  0.6129186827527137  1.0000
  H   H40       1.0  0.2088004934051356  0.4359324002981638  0.6129147610863014  1.0000
  H   H41       1.0  0.8415580628238502  0.6836052998354063  0.24998668685937278  1.0000
  H   H42       1.0  0.15845010505218943  0.3163982834921981  0.2499888851557088  1.0000
  H   H43       1.0  0.1584609758502538  0.3164004675966297  0.7500111137711798  1.0000
  H   H44       1.0  0.8415577245428524  0.6836061166471836  0.750012830234013  1.0000
  H   H45       1.0  0.6226305144281811  0.3212296577923581  0.025222229088917903  1.0000
  H   H46       1.0  0.3773686519705564  0.678767046269563  0.0252214758039671  1.0000
  H   H47       1.0  0.3017378276667841  0.6788133084159752  0.4747826620006137  1.0000
  H   H48       1.0  0.6982536357565577  0.32118622817832687  0.4747841510644903  1.0000
  H   H49       1.0  0.3773689154407621  0.6787692801524229  0.9747778551433653  1.0000
  H   H50       1.0  0.6226291584898008  0.32123189136338237  0.9747782821969722  1.0000
  H   H51       1.0  0.698260451032482  0.32118494673856196  0.5252193796137092  1.0000
  H   H52       1.0  0.3017352679695478  0.6788127077445909  0.52521691185337  1.0000
  C   C1        1.0  0.6229092102440674  0.6037593536157713  0.0609118682607317  1.0000
  C   C2        1.0  0.37709634160162153  0.3962285948445157  0.0609104080146352  1.0000
  C   C3        1.0  0.019033294171798377  0.39625116369067837  0.4390745983302295  1.0000
  C   C4        1.0  0.9809478127077115  0.6037475716688193  0.439075148155446  1.0000
  C   C5        1.0  0.37710260831281067  0.396223887553063  0.9390895208986976  1.0000
  C   C6        1.0  0.6229052534819531  0.6037601049325616  0.9390886975264934  1.0000
  C   C7        1.0  0.9809473857535381  0.6037491357919434  0.5609241809700335  1.0000
  C   C8        1.0  0.019033676929424835  0.39625272797265865  0.5609255885280006  1.0000
  C   C9        1.0  0.9746751068569852  0.9495159511799046  0.2500477907935519  1.0000
  C   C10       1.0  0.025320447734806403  0.0504883124902378  0.250047181561655  1.0000
  C   C11       1.0  0.02532138687523401  0.05048844677556731  0.7499509885158204  1.0000
  C   C12       1.0  0.9746792848132132  0.9495160860883729  0.7499519239799569  1.0000
  C   C13       1.0  0.8095415501660669  0.7548288369150172  0.17310524933562732  1.0000
  C   C14       1.0  0.1904661894856261  0.2451765428519082  0.17310910039797284  1.0000
  C   C15       1.0  0.055015885274848145  0.24533914612686666  0.3268695956137719  1.0000
  C   C16       1.0  0.9449819311820208  0.7546653689831684  0.32687046098167366  1.0000
  C   C17       1.0  0.1904657232137481  0.24517283282028757  0.8268912463662231  1.0000
  C   C18       1.0  0.8095411718882416  0.7548285397728164  0.8268945723742931  1.0000
  C   C19       1.0  0.9449806084587351  0.7546652518291452  0.6731295099260564  1.0000
  C   C20       1.0  0.055024835191005594  0.24534176123724896  0.6731292970249854  1.0000
  C   C21       1.0  0.6898877262739377  0.6576115352162262  0.0990580375809884  1.0000
  C   C22       1.0  0.31011239908271193  0.342386092849992  0.0990581243573558  1.0000
  C   C23       1.0  0.03225007185434247  0.3425079105043666  0.4009017223030185  1.0000
  C   C24       1.0  0.9677363837151631  0.6574907011596949  0.4009022678780028  1.0000
  C   C25       1.0  0.3101176638242863  0.342379895581658  0.9009426991147719  1.0000
  C   C26       1.0  0.6898869428235558  0.6576094322176403  0.900942286105014  1.0000
  C   C27       1.0  0.9677359345206541  0.6574917074294859  0.5990967307696593  1.0000
  C   C28       1.0  0.0322550370844327  0.3425116481073332  0.5990984688111071  1.0000
  C   C29       1.0  0.7375069873011455  0.7864002927098922  0.1481325974793677  1.0000
  C   C30       1.0  0.26249149963354057  0.21359339995886018  0.14813717430871523  1.0000
  C   C31       1.0  0.9512619388058637  0.21376026470157683  0.3517689734487277  1.0000
  C   C32       1.0  0.048729520300916956  0.7862409176850349  0.3517727721423256  1.0000
  C   C33       1.0  0.2624913689502577  0.21358840643764404  0.8518622670640427  1.0000
  C   C34       1.0  0.7375084372722042  0.7864000775125392  0.8518668246888055  1.0000
  C   C35       1.0  0.04873148164855238  0.7862379895099849  0.6482275222451649  1.0000
  C   C36       1.0  0.9512671002095985  0.21376211515956103  0.6482315530847416  1.0000
  C   C37       1.0  0.9181172743208279  0.900891546796494  0.2128878223849355  1.0000
  C   C38       1.0  0.08188394013436812  0.09911805713235819  0.2128918520263881  1.0000
  C   C39       1.0  0.017432412744483414  0.099178141534388  0.28718851933695794  1.0000
  C   C40       1.0  0.9825626427509563  0.9008262433925225  0.28718880168940325  1.0000
  C   C41       1.0  0.0818851900061972  0.09911831287863042  0.7871076946236784  1.0000
  C   C42       1.0  0.9181181827511439  0.9008911199177588  0.7871114945129277  1.0000
  C   C43       1.0  0.9825616518782709  0.9008262559546623  0.7128105862015274  1.0000
  C   C44       1.0  0.017437177762467105  0.0991815680643029  0.7128106300830338  1.0000
  C   C45       1.0  0.8214153529572671  0.6741019241050026  0.1600178609185079  1.0000
  C   C46       1.0  0.17859121402141645  0.32590614295996545  0.160019104539451  1.0000
  C   C47       1.0  0.14764960928051352  0.32605679809051225  0.3400203303122851  1.0000
  C   C48       1.0  0.852345673315746  0.6739457117804547  0.3400191207474847  1.0000
  C   C49       1.0  0.17859337429587188  0.32590588906398205  0.8399815708588392  1.0000
  C   C50       1.0  0.8214131232476021  0.6741009867961693  0.8399822846181522  1.0000
  C   C51       1.0  0.8523447088633703  0.6739448691629163  0.6599813850697274  1.0000
  C   C52       1.0  0.1476556786340382  0.32605868710732716  0.6599786798731911  1.0000
  C   C53       1.0  0.6777117857266647  0.7381390783403178  0.11181723797349011  1.0000
  C   C54       1.0  0.32228294395594764  0.2618524472284136  0.1118176489452622  1.0000
  C   C55       1.0  0.9396560479393229  0.26192721004368746  0.3881061510508914  1.0000
  C   C56       1.0  0.06033695418334881  0.7380781867945316  0.3881076696804939  1.0000
  C   C57       1.0  0.3222847364202011  0.26184757274671716  0.8881828462560151  1.0000
  C   C58       1.0  0.6777140076278416  0.7381382993735671  0.8881821090544193  1.0000
  C   C59       1.0  0.060338270193646876  0.738074457205478  0.6118929544874732  1.0000
  C   C60       1.0  0.9396576666464399  0.2619289410953982  0.6118946981631269  1.0000
  C   C61       1.0  0.8698988669279688  0.8051638184060154  0.21239387372889237  1.0000
  C   C62       1.0  0.1300962848133054  0.1948369093013298  0.2123953650128882  1.0000
  C   C63       1.0  0.06510819174926041  0.19490713067516197  0.2876312495125504  1.0000
  C   C64       1.0  0.9348946230115944  0.8050965746181404  0.2876317872069052  1.0000
  C   C65       1.0  0.13010090440840122  0.19483580217389834  0.7876045793513741  1.0000
  C   C66       1.0  0.8699008039211121  0.8051654410589821  0.787607655292547  1.0000
  C   C67       1.0  0.9348916675565991  0.8050959027845721  0.7123685084899094  1.0000
  C   C68       1.0  0.0651178112839759  0.1949105566907718  0.7123673183419612  1.0000
  C   C69       1.0  0.7631328793659692  0.6264143604940955  0.1233071109879731  1.0000
  C   C70       1.0  0.23686625880266385  0.37358744204077254  0.1233045132025978  1.0000
  C   C71       1.0  0.13682945958975523  0.37372766508497085  0.3767033125834303  1.0000
  C   C72       1.0  0.8631665100323005  0.6262708693349167  0.3766985172609694  1.0000
  C   C73       1.0  0.23687554521762882  0.37358799204478993  0.8766955830932517  1.0000
  C   C74       1.0  0.7631322345966398  0.6264128608640362  0.876692961185654  1.0000
  C   C75       1.0  0.8631647706023744  0.6262705892955724  0.6233013388723166  1.0000
  C   C76       1.0  0.13683126162334253  0.3737328462903307  0.6232979784358434  1.0000
  C   C77       1.0  0.8788134106982499  0.7580756230905905  0.2500075932753276  1.0000
  C   C78       1.0  0.12119497207426383  0.2419300080640738  0.250010388699387  1.0000
  C   C79       1.0  0.12120260387782622  0.2419321914755201  0.7499895548928421  1.0000
  C   C80       1.0  0.8788155013589288  0.7580764403031991  0.7499932840747193  1.0000
  O   O1        1.0  0.6530356935172534  0.5405036518198685  0.0467505409126332  1.0000
  O   O2        1.0  0.3469753690357607  0.4594890294360496  0.0467497120711897  1.0000
  O   O3        1.0  0.11249670782461862  0.4594480322164358  0.4532803611010863  1.0000
  O   O4        1.0  0.8874963711002124  0.5405582601498011  0.45327883844925054  1.0000
  O   O5        1.0  0.34698337357967557  0.45948436874692083  0.9532505220207953  1.0000
  O   O6        1.0  0.6530347525290239  0.5405037674156788  0.9532510246273135  1.0000
  O   O7        1.0  0.887496761817758  0.5405584128763081  0.5467197231286391  1.0000
  O   O8        1.0  0.11249697178160292  0.45944955006075366  0.546719940858715  1.0000
  O   O9        1.0  0.5395065451264571  0.6241610773774369  0.0459218610335128  1.0000
  O   O10       1.0  0.4605008422482301  0.37582750503326423  0.0459221199211939  1.0000
  O   O11       1.0  0.915210076362534  0.37587803980379425  0.4540461319553515  1.0000
  O   O12       1.0  0.08477925275959577  0.6241207460538407  0.4540470031977648  1.0000
  O   O13       1.0  0.46050655134702384  0.3758214814585089  0.954075613361077  1.0000
  O   O14       1.0  0.5395031819475379  0.6241611952112934  0.9540773118517265  1.0000
  O   O15       1.0  0.08477963705899345  0.6241208962715775  0.5459529735802136  1.0000
  O   O16       1.0  0.9152119533276847  0.3758795554581128  0.5459553646433122  1.0000
  O   O17       1.0  0.6621133990334798  0.35755550568625694  3.9905560100000016e-07  1.0000
  O   O18       1.0  0.33789659577210074  0.6424386562838221  0.999999358951591  1.0000
  O   O19       1.0  0.3046010316928617  0.6423843415112245  0.4999999481263444  1.0000
  O   O20       1.0  0.6953889352538879  0.35761186433012426  0.5000027459441228  1.0000
