data_image0
_chemical_formula_structural       Zn2H40C64N8O8
_chemical_formula_sum              "Zn2 H40 C64 N8 O8"
_cell_length_a       8.271511691618995
_cell_length_b       10.710654702074525
_cell_length_c       14.2631992199716
_cell_angle_alpha    97.66581413324926
_cell_angle_beta     91.98349286793781
_cell_angle_gamma    98.48639905365431

_space_group_name_H-M_alt    "P 1"
_space_group_IT_number       1

loop_
  _space_group_symop_operation_xyz
  'x, y, z'

loop_
  _atom_site_type_symbol
  _atom_site_label
  _atom_site_symmetry_multiplicity
  _atom_site_fract_x
  _atom_site_fract_y
  _atom_site_fract_z
  _atom_site_occupancy
  Zn  Zn1       1.0  0.7737600211769333  0.28895972089825506  0.6532739632775559  1.0000
  Zn  Zn2       1.0  0.2262396371665076  0.7110392847360175  0.3467262424758387  1.0000
  H   H1        1.0  0.49395806125494346  0.1840398822929217  0.782650419583966  1.0000
  H   H2        1.0  0.5060405899745319  0.8159600769122263  0.21734845517843834  1.0000
  H   H3        1.0  0.20346684392612246  0.07046484288537158  0.7590839689828996  1.0000
  H   H4        1.0  0.7965330052916499  0.9295351185177695  0.24091703569202844  1.0000
  H   H5        1.0  0.07852623227085329  0.012909124179230996  0.5938966054158711  1.0000
  H   H6        1.0  0.9214713904470173  0.9870918029592274  0.40610514595790886  1.0000
  H   H7        1.0  0.24870696963707664  0.06332061941611758  0.45769734658035327  1.0000
  H   H8        1.0  0.7512882392728598  0.9366803152950565  0.5423036513036904  1.0000
  H   H9        1.0  0.40126249179058965  0.1381032720231872  0.3539786775116339  1.0000
  H   H10       1.0  0.5987359649982906  0.8618957338068397  0.6460200995962991  1.0000
  H   H11       1.0  0.8975936149214335  0.3030195610044045  0.3064707973206636  1.0000
  H   H12       1.0  0.10240589102492947  0.6969727660207851  0.6935287509627768  1.0000
  H   H13       1.0  0.1276740666743947  0.3759717618958404  0.37145638487208993  1.0000
  H   H14       1.0  0.8723256023678659  0.6240272365572184  0.6285417170801182  1.0000
  H   H15       1.0  0.3923439630537473  0.4502836156785505  0.45997420277189593  1.0000
  H   H16       1.0  0.6076560913034397  0.5497172919184905  0.5400247957563166  1.0000
  H   H17       1.0  0.410538885394125  0.45742879271361386  0.6390549860931571  1.0000
  H   H18       1.0  0.5894649787661592  0.5425730604900777  0.3609462922247246  1.0000
  H   H19       1.0  0.1487818018978047  0.3942653698364892  0.7185590126787885  1.0000
  H   H20       1.0  0.8512178564456363  0.6057336357977902  0.281441193074606  1.0000
  H   H21       1.0  0.8017604448054031  0.3481905338090741  0.18201454174090506  1.0000
  H   H22       1.0  0.19824224914501795  0.6518056015376174  0.8179868519172118  1.0000
  H   H23       1.0  0.3897940281224734  0.05951354018100119  0.2137343027575369  1.0000
  H   H24       1.0  0.6102042377920823  0.9404845098801644  0.7862636754288628  1.0000
  H   H25       1.0  0.32499972463393334  0.045123314816748895  0.0404175033945933  1.0000
  H   H26       1.0  0.6750045426726456  0.9548804355622309  0.959581165163989  1.0000
  H   H27       1.0  0.510966309113286  0.17906892809821778  0.9452993915032478  1.0000
  H   H28       1.0  0.4890379474944666  0.8209348294619827  0.054701380856521035  1.0000
  H   H29       1.0  0.9223693274180391  0.6018530207459776  0.9565096845498998  1.0000
  H   H30       1.0  0.0776265068572073  0.3981450488566054  0.04349104648206749  1.0000
  H   H31       1.0  0.7839883491300909  0.6133791208992393  0.10838089472315456  1.0000
  H   H32       1.0  0.21600888827286718  0.38661989709522965  0.8916199600746209  1.0000
  H   H33       1.0  0.47087001839513926  0.43023382256259873  0.8041061400267537  1.0000
  H   H34       1.0  0.5291284276949213  0.569765190448649  0.19589474088236605  1.0000
  H   H35       1.0  0.9215793314747316  0.868463862596954  0.7540186368325976  1.0000
  H   H36       1.0  0.0784217442615116  0.1315360818542572  0.24597888761835654  1.0000
  H   H37       1.0  0.9985797899526361  0.7639242179797492  0.8893549726013248  1.0000
  H   H38       1.0  0.0014204588451462977  0.23607764299242007  0.11064412358135908  1.0000
  H   H39       1.0  0.9218473502937315  0.22108952619649355  0.9373502232239304  1.0000
  H   H40       1.0  0.07815289850405091  0.7789123347756757  0.06264887295875346  1.0000
  C   C1        1.0  0.43367533778327066  0.1559347042363584  0.7121043753300853  1.0000
  C   C2        1.0  0.5663237058936801  0.8440671593252984  0.2878939934741992  1.0000
  C   C3        1.0  0.2728493439433706  0.0934695322209862  0.6985405470048248  1.0000
  C   C4        1.0  0.7271507068475387  0.9065313777697953  0.30145915279044994  1.0000
  C   C5        1.0  0.20463769614469382  0.060871471154463605  0.6060346428503607  1.0000
  C   C6        1.0  0.7953587178860744  0.9391294609672226  0.39396708241208234  1.0000
  C   C7        1.0  0.29839345539046036  0.09118028126141549  0.5304912245383946  1.0000
  C   C8        1.0  0.7016055775876708  0.9088215894814553  0.4695092480670765  1.0000
  C   C9        1.0  0.45862804134743834  0.15516924753836747  0.5502138255783109  1.0000
  C   C10       1.0  0.5413683869484274  0.8448316750083648  0.44978509461589045  1.0000
  C   C11       1.0  0.5700462471591049  0.1938674177592787  0.47603992495900366  1.0000
  C   C12       1.0  0.4299497851230142  0.8061316028246848  0.5239602024603726  1.0000
  C   C13       1.0  0.5258744365893405  0.17965569101525597  0.3794493906042362  1.0000
  C   C14       1.0  0.4741238221926665  0.82034236383339  0.620549990116288  1.0000
  C   C15       1.0  0.6434555716805477  0.21911465875921723  0.3158796027197184  1.0000
  C   C16       1.0  0.3565424962271351  0.7808824403205676  0.6841189790792724  1.0000
  C   C17       1.0  0.8027406924965276  0.2709119990426885  0.35288535223998707  1.0000
  C   C18       1.0  0.1972547108540041  0.7290898890436068  0.6471157432985281  1.0000
  C   C19       1.0  0.8375849552679709  0.2833297594470067  0.4503821519361252  1.0000
  C   C20       1.0  0.16241209482693358  0.7166683003848604  0.5496172026730619  1.0000
  C   C21       1.0  0.0005662503916780903  0.3363302233504371  0.4976462378061796  1.0000
  C   C22       1.0  0.9994316230754093  0.6636659223542266  0.5023522463383401  1.0000
  C   C23       1.0  0.13713342023088157  0.3754853489654123  0.44785012705872146  1.0000
  C   C24       1.0  0.8628663869433666  0.6245203376716899  0.5521514374316965  1.0000
  C   C25       1.0  0.28585122574303057  0.4199369402458543  0.49875690457459126  1.0000
  C   C26       1.0  0.7141502281755906  0.58006491813682  0.5012429189864989  1.0000
  C   C27       1.0  0.29528086428359757  0.4254640482206112  0.5971621196273488  1.0000
  C   C28       1.0  0.7047212114340623  0.5745349474472049  0.40283813834872717  1.0000
  C   C29       1.0  0.1517981555998489  0.38843199615979523  0.6417135792210615  1.0000
  C   C30       1.0  0.848201697184187  0.6115679628496051  0.35828672418680435  1.0000
  C   C31       1.0  0.69583365632338  0.2781171695637994  0.15362878803674107  1.0000
  C   C32       1.0  0.30416841939428  0.7218818261040169  0.8463714699393278  1.0000
  C   C33       1.0  0.6016549471430253  0.20548272450528052  0.21345962575268368  1.0000
  C   C34       1.0  0.39834776107249326  0.7945134012664569  0.7865389628371844  1.0000
  C   C35       1.0  0.465961903494538  0.11944449303274497  0.17127632986715463  1.0000
  C   C36       1.0  0.5340411900359001  0.880553541882975  0.8287231552987249  1.0000
  C   C37       1.0  0.43009421133591264  0.11052201091741409  0.07458100549492738  1.0000
  C   C38       1.0  0.5699113067012861  0.8894760092443689  0.9254171293595022  1.0000
  C   C39       1.0  0.5337640231294998  0.18543861682037735  0.02186624855978179  1.0000
  C   C40       1.0  0.4662394592821357  0.8145613248455915  0.9781334319150331  1.0000
  C   C41       1.0  0.7865753102828064  0.5172378714253298  0.7792030899058486  1.0000
  C   C42       1.0  0.21342636585483626  0.4827592246734582  0.22079907656246428  1.0000
  C   C43       1.0  0.7022368974241076  0.5189928879040051  0.8708452565092981  1.0000
  C   C44       1.0  0.297760530853175  0.48100708585933205  0.12915639721001776  1.0000
  C   C45       1.0  0.7914221130044294  0.5697142402480323  0.9577885941342571  1.0000
  C   C46       1.0  0.2085759477707043  0.43028286361922596  0.04221139019885808  1.0000
  C   C47       1.0  0.7144244896694758  0.5745066804445358  0.041792301418858785  1.0000
  C   C48       1.0  0.28557193506011197  0.42549424449593687  0.9582073200424047  1.0000
  C   C49       1.0  0.5375718834935128  0.4703362200180834  0.8712184531264524  1.0000
  C   C50       1.0  0.46242554835004057  0.5296637513515136  0.12878249932579414  1.0000
  C   C51       1.0  0.5450278951399312  0.5272895745327303  0.04367890432807538  1.0000
  C   C52       1.0  0.4549695331373442  0.472710399230607  0.9563227493912405  1.0000
  C   C53       1.0  0.8673051542359289  0.10993703107217095  0.7542568203229933  1.0000
  C   C54       1.0  0.13269508742931177  0.8900648346874717  0.24574367839381486  1.0000
  C   C55       1.0  0.921110411776901  0.05216616484491961  0.8378654025716512  1.0000
  C   C56       1.0  0.07888901008242749  0.9478376126482003  0.16213526534275494  1.0000
  C   C57       1.0  0.9432678402121938  0.9221278668042601  0.8249531201068974  1.0000
  C   C58       1.0  0.05673342639837388  0.07787303341581259  0.17504520326559  1.0000
  C   C59       1.0  0.9865272413321619  0.8644761810201941  0.9005624663372201  1.0000
  C   C60       1.0  0.013471604337915699  0.1355247315600749  0.09943650607965537  1.0000
  C   C61       1.0  0.010933003018209254  0.9341053357427708  0.9932257859828153  1.0000
  C   C62       1.0  0.9890727023270429  0.0658936425816137  0.0067738490602096  1.0000
  C   C63       1.0  0.9436309275283108  0.12245662968718556  0.927465394895705  1.0000
  C   C64       1.0  0.056367903876676534  0.8775442924680449  0.07253638258941207  1.0000
  N   N1        1.0  0.5235560702099704  0.18614434454219259  0.6399315591172653  1.0000
  N   N2        1.0  0.4764441857203607  0.8138575116424891  0.36006613453129427  1.0000
  N   N3        1.0  0.7223379069791704  0.24626989968233196  0.5090100936677898  1.0000
  N   N4        1.0  0.2776581253029491  0.7537291209016316  0.49099003375158645  1.0000
  N   N5        1.0  0.008783496430616808  0.34485626258722846  0.5931445632305241  1.0000
  N   N6        1.0  0.9912211982343991  0.6551436717017721  0.4068544420885729  1.0000
  N   N7        1.0  0.6650168935231663  0.2672912419151316  0.05994237924715409  1.0000
  N   N8        1.0  0.3349865853221983  0.7327087021445776  0.940058002494723  1.0000
  O   O1        1.0  0.7021922511163651  0.45352205409062657  0.7043766810160433  1.0000
  O   O2        1.0  0.29781040435681655  0.5464798040962932  0.2956245711905083  1.0000
  O   O3        1.0  0.9292853042286495  0.5757781115777548  0.7777274333603827  1.0000
  O   O4        1.0  0.07071718458235672  0.4242170775750367  0.22227596644444955  1.0000
  O   O5        1.0  0.8602571050620468  0.23074758894748024  0.7687154475084694  1.0000
  O   O6        1.0  0.13974173347548197  0.7692533284202695  0.23128492744253035  1.0000
  O   O7        1.0  0.8304244329609674  0.04025378956983869  0.6757428529698541  1.0000
  O   O8        1.0  0.16957882009909747  0.9597509191674902  0.3242558871318621  1.0000
