data_image0
_chemical_formula_structural       Cd2H48C48N24Cl4
_chemical_formula_sum              "Cd2 H48 C48 N24 Cl4"
_cell_length_a       7.599579808
_cell_length_b       8.890074215625708
_cell_length_c       21.895
_cell_angle_alpha    90.0
_cell_angle_beta     90.0
_cell_angle_gamma    109.1584481621576

_space_group_name_H-M_alt    "P 1"
_space_group_IT_number       1

loop_
  _space_group_symop_operation_xyz
  'x, y, z'

loop_
  _atom_site_type_symbol
  _atom_site_label
  _atom_site_symmetry_multiplicity
  _atom_site_fract_x
  _atom_site_fract_y
  _atom_site_fract_z
  _atom_site_occupancy
  Cd  Cd1       1.0  4.5716196689999997e-07  1.1908030828e-06  0.4999995432747184  1.0000
  Cd  Cd2       1.0  0.9999996715703219  0.4999991611387671  0.9999995432747184  1.0000
  H   H1        1.0  0.2362479476406776  0.3988213865026395  0.441433660653118  1.0000
  H   H2        1.0  0.2362449622219955  0.8988205476414066  0.058565425896326  1.0000
  H   H3        1.0  0.7637571464699561  0.6011816989872258  0.5585672527974452  1.0000
  H   H4        1.0  0.7637516683059574  0.10117420222688617  0.9414341173783995  1.0000
  H   H5        1.0  0.6603400309564336  0.1600641778271878  0.45499748801096024  1.0000
  H   H6        1.0  0.6603365883757775  0.6600621481628721  0.0450015985384766  1.0000
  H   H7        1.0  0.3396650631542002  0.8399389076626775  0.5450006850879205  1.0000
  H   H8        1.0  0.3396622723383373  0.3399349833115863  0.9549974880109603  1.0000
  H   H9        1.0  0.7450781701661171  0.596091015813137  0.41157570221511725  1.0000
  H   H10       1.0  0.7450749778119601  0.0960894730682043  0.0884229276090451  1.0000
  H   H11       1.0  0.2549282398067447  0.4039120696767284  0.5884224708837635  1.0000
  H   H12       1.0  0.25492388290215456  0.9039076584062469  0.9115766156656804  1.0000
  H   H13       1.0  0.5739545971161917  0.4329521844291122  0.44720712491436393  1.0000
  H   H14       1.0  0.5739493815113477  0.9329489639617207  0.052794245261473804  1.0000
  H   H15       1.0  0.4260558160670271  0.5670544734699945  0.5527942452614738  1.0000
  H   H16       1.0  0.4260463903163512  0.06704697670965488  0.947204841287963  1.0000
  H   H17       1.0  0.7952547592283069  0.5842115642705181  0.2958698332952707  1.0000
  H   H18       1.0  0.7952572874850219  0.0842112123286682  0.20413153688056704  1.0000
  H   H19       1.0  0.20474278562357986  0.4157855672039332  0.7041319936058485  1.0000
  H   H20       1.0  0.20473636540386758  0.9157894915550315  0.7958684631194332  1.0000
  H   H21       1.0  0.652429937634615  0.4761902443241013  0.1966800639415425  1.0000
  H   H22       1.0  0.6524282680781538  0.9761894054628755  0.3033203927837391  1.0000
  H   H23       1.0  0.3475702945654078  0.5238104595595985  0.8033190226079014  1.0000
  H   H24       1.0  0.3475622959243196  0.0238101076177486  0.6966791504909793  1.0000
  H   H25       1.0  0.23673283826464342  0.0971600050386172  0.2897972139757954  1.0000
  H   H26       1.0  0.23673248457040327  0.5971591661773843  0.2102032427494862  1.0000
  H   H27       1.0  0.7632704828218023  0.9028418896481654  0.7102050696506055  1.0000
  H   H28       1.0  0.7632685507061936  0.4028367744939914  0.7897972139757954  1.0000
  H   H29       1.0  0.3718782173333608  0.2112615655199761  0.38996117835122135  1.0000
  H   H30       1.0  0.3718787779630616  0.7112631082649088  0.1100392783740602  1.0000
  H   H31       1.0  0.628123275105203  0.7887355659544824  0.6100411052751795  1.0000
  H   H32       1.0  0.6281182541031781  0.2887292599972184  0.8899602649006653  1.0000
  H   H33       1.0  0.4606665060480779  0.220983281878631  0.1413350079926943  1.0000
  H   H34       1.0  0.46066878407829387  0.7209824430173981  0.35866636218314346  1.0000
  H   H35       1.0  0.5393319531277497  0.7790162312019859  0.8586672756337066  1.0000
  H   H36       1.0  0.5393327639839569  0.2790182608663017  0.6413327243662934  1.0000
  H   H37       1.0  0.271661178264246  0.0815033261209805  0.18106097282484512  1.0000
  H   H38       1.0  0.2716608245700058  0.5815024872597476  0.3189394839004365  1.0000
  H   H39       1.0  0.7283351063490996  0.918497377762719  0.818939940625711  1.0000
  H   H40       1.0  0.7283376346058219  0.4184970258208693  0.6810614295501267  1.0000
  H   H41       1.0  0.1351403846448562  0.1164569689768769  0.653245033112583  1.0000
  H   H42       1.0  0.1351400309506161  0.616456130115651  0.8467535967115793  1.0000
  H   H43       1.0  0.8648620777413285  0.8835461165129885  0.3467540534368609  1.0000
  H   H44       1.0  0.8648597440874326  0.3835433829649729  0.153245033112583  1.0000
  H   H45       1.0  0.6397527324344735  0.1169511522557656  0.5671454670016018  1.0000
  H   H46       1.0  0.6397492898538175  0.616949122591457  0.9328536195478421  1.0000
  H   H47       1.0  0.3602510458139392  0.8830519332340998  0.4328540762731238  1.0000
  H   H48       1.0  0.3602509423462052  0.3830515812922499  0.0671459237268763  1.0000
  C   C1        1.0  0.08669555167244876  0.3726058566599447  0.4388385476136136  1.0000
  C   C2        1.0  0.08669296779205377  0.8726026361925534  0.0611609956611119  1.0000
  C   C3        1.0  0.9133091408998978  0.6273996104360862  0.561161909111668  1.0000
  C   C4        1.0  0.913304119897866  0.1273933044788222  0.9388390043388882  1.0000
  C   C5        1.0  0.7960680616745748  0.247752535154298  0.44636035624571957  1.0000
  C   C6        1.0  0.7960667936564007  0.7477493146868994  0.0536391870289989  1.0000
  C   C7        1.0  0.20393703243605896  0.7522505503355674  0.5536382735784429  1.0000
  C   C8        1.0  0.203930751195486  0.2522478167875519  0.946360812971001  1.0000
  C   C9        1.0  0.678944910795849  0.4665221141041229  0.4106891984471375  1.0000
  C   C10       1.0  0.6789392936527107  0.9665212752428972  0.0893108015528625  1.0000
  C   C11       1.0  0.3210614991770128  0.5334809713857425  0.589310344827588  1.0000
  C   C12       1.0  0.3210556194747269  0.0334758562315614  0.9106882849965744  1.0000
  C   C13       1.0  0.5920388944835934  0.4053993827257187  0.3495880337976729  1.0000
  C   C14       1.0  0.5920376820890993  0.9053997346675686  0.1504115094770526  1.0000
  C   C15       1.0  0.40796351227891137  0.5946001303549053  0.6504124229276087  1.0000
  C   C16       1.0  0.4079576882003053  0.0945985876099726  0.8495880337976729  1.0000
  C   C17       1.0  0.6707878039586674  0.4790529349324117  0.2949015757022124  1.0000
  C   C18       1.0  0.6707861344022064  0.9790520960711788  0.2050988810230621  1.0000
  C   C19       1.0  0.3292101980551934  0.5209453873451295  0.7050988810230621  1.0000
  C   C20       1.0  0.3292092358872054  0.0209462262063624  0.7949006622516563  1.0000
  C   C21       1.0  0.5925865555600751  0.4160082473802049  0.2390431605389338  1.0000
  C   C22       1.0  0.592587116189776  0.9160097901251376  0.2609568394610662  1.0000
  C   C23       1.0  0.4074145909638815  0.5839948381096602  0.7609550125599469  1.0000
  C   C24       1.0  0.4074109414477576  0.083992104561645  0.7390427038136593  1.0000
  C   C25       1.0  0.437632046512512  0.2772487274869562  0.2368202786024227  1.0000
  C   C26       1.0  0.43763123565631185  0.7772466978226475  0.2631810915734221  1.0000
  C   C27       1.0  0.5623668698252827  0.7227519763967434  0.7631797213975773  1.0000
  C   C28       1.0  0.5623654504953208  0.2227516244548937  0.7368193651518596  1.0000
  C   C29       1.0  0.35855486315519164  0.20448470518226  0.2914432518839902  1.0000
  C   C30       1.0  0.3585562824851536  0.704485057124117  0.2085567481160098  1.0000
  C   C31       1.0  0.6414453690448241  0.7955159987014397  0.7085581182918476  1.0000
  C   C32       1.0  0.6414404036664791  0.2955132651534242  0.7914432518839902  1.0000
  C   C33       1.0  0.43438272876061745  0.2684867984121197  0.3474272664992029  1.0000
  C   C34       1.0  0.4343846052525464  0.7684883411570524  0.15257364695136033  1.0000
  C   C35       1.0  0.5656179049776922  0.7315115238654144  0.6525745604019164  1.0000
  C   C36       1.0  0.5656147126235425  0.23150998112048166  0.8474263530486397  1.0000
  C   C37       1.0  0.35366525579159713  0.2082964658466508  0.1765398492806582  1.0000
  C   C38       1.0  0.353664043397103  0.7082968177885007  0.3234610641699049  1.0000
  C   C39       1.0  0.6463332033842306  0.791703047233973  0.8234619776204611  1.0000
  C   C40       1.0  0.6463335570784706  0.291703886095199  0.6765384791048207  1.0000
  C   C41       1.0  0.9962066498523966  0.3646239036035936  0.1440474994290923  1.0000
  C   C42       1.0  0.996209842206554  0.8646254463485263  0.3559525005709077  1.0000
  C   C43       1.0  0.0037913521614640856  0.6353744186739476  0.8559520438456261  1.0000
  C   C44       1.0  0.003793936041859101  0.135377639141339  0.6440474994290923  1.0000
  C   C45       1.0  0.755326652360729  0.133373517554908  0.5987312171728689  1.0000
  C   C46       1.0  0.7553258415045293  0.6333714878905994  0.9012683261018495  1.0000
  C   C47       1.0  0.2446771258876765  0.8666295679349574  0.4012687828271311  1.0000
  C   C48       1.0  0.2446761637196886  0.3666304067961832  0.0987321306234321  1.0000
  N   N1        1.0  0.9615723938215553  0.228343635726354  0.4542507421785801  1.0000
  N   N2        1.0  0.9615694084028661  0.7283427968651279  0.0457478876455824  1.0000
  N   N3        1.0  0.03843355898933957  0.7716582589604286  0.5457488010961384  1.0000
  N   N4        1.0  0.038425961886538594  0.2716555254124131  0.9542516556291362  1.0000
  N   N5        1.0  0.00782510517819194  0.47895767068587963  0.4215437314455386  1.0000
  N   N6        1.0  0.007818573711112648  0.9789544502184809  0.0784553551039053  1.0000
  N   N7        1.0  0.992183077818865  0.5210466056070686  0.5784562685544614  1.0000
  N   N8        1.0  0.992177198116579  0.0210414904528946  0.9215451016213764  1.0000
  N   N9        1.0  0.8226005048160232  0.3970161290308454  0.4270988810230635  1.0000
  N   N10       1.0  0.8225944305109181  0.8970140993665365  0.072900662251655  1.0000
  N   N11       1.0  0.17740590515683857  0.60298695645902  0.5729011189769366  1.0000
  N   N12       1.0  0.17740225564071477  0.1029842229110045  0.9270997944736266  1.0000
  N   N13       1.0  0.2302815271960128  0.2899522147620814  0.1522566796072198  1.0000
  N   N14       1.0  0.2302829465259748  0.7899525667039313  0.347744690568625  1.0000
  N   N15       1.0  0.7697173891417819  0.7100484891216182  0.8477442338433434  1.0000
  N   N16       1.0  0.769719058698243  0.2100493279828513  0.6522562228819382  1.0000
  N   N17       1.0  0.07256865721979008  0.2873193491485395  0.1821607672984698  1.0000
  N   N18       1.0  0.07257139241197312  0.7873197010903894  0.3178396894268118  1.0000
  N   N19       1.0  0.9274298019560375  0.7126801639320846  0.8178387759762487  1.0000
  N   N20       1.0  0.9274314715124987  0.2126810027933104  0.6821607672984698  1.0000
  N   N21       1.0  0.0974173756215393  0.4159713324846734  0.0921973053208518  1.0000
  N   N22       1.0  0.09741879495149423  0.9159716844265233  0.4078031514044298  1.0000
  N   N23       1.0  0.9025828565784834  0.5840293713990263  0.9078026946791482  1.0000
  N   N24       1.0  0.9025854404588856  0.0840325918664249  0.5921963918702886  1.0000
  Cl  Cl1       1.0  0.6430831310361214  0.8345850570075442  0.474648549897239  1.0000
  Cl  Cl2       1.0  0.6430830275683873  0.3345847050656943  0.0253509933774865  1.0000
  Cl  Cl3       1.0  0.3569188741880964  0.1654168376792384  0.5253509933774865  1.0000
  Cl  Cl4       1.0  0.3569167474696684  0.6654148080149227  0.974648549897239  1.0000
