data_image0
_chemical_formula_structural       Zn4H64C80N8O16
_chemical_formula_sum              "Zn4 H64 C80 N8 O16"
_cell_length_a       10.215173754518252
_cell_length_b       15.374142295875687
_cell_length_c       18.250109166000055
_cell_angle_alpha    89.9999966427717
_cell_angle_beta     90.00000805971504
_cell_angle_gamma    91.05756592039617

_space_group_name_H-M_alt    "P 1"
_space_group_IT_number       1

loop_
  _space_group_symop_operation_xyz
  'x, y, z'

loop_
  _atom_site_type_symbol
  _atom_site_label
  _atom_site_symmetry_multiplicity
  _atom_site_fract_x
  _atom_site_fract_y
  _atom_site_fract_z
  _atom_site_occupancy
  Zn  Zn1       1.0  0.9029916919322644  0.9616178104805541  0.3089400824603317  1.0000
  Zn  Zn2       1.0  0.5970089190711717  0.5383830332145719  0.8089398294038617  1.0000
  Zn  Zn3       1.0  0.0970090794210989  0.0383829600487715  0.6910594308576562  1.0000
  Zn  Zn4       1.0  0.4029908733553141  0.4616177376367998  0.1910591359721607  1.0000
  H   H1        1.0  0.6403443190403664  0.7485951895163366  0.2632466518708725  1.0000
  H   H2        1.0  0.8596553017276917  0.751405657613887  0.7632469573235382  1.0000
  H   H3        1.0  0.3596564337572303  0.25140493045944357  0.7367534093890596  1.0000
  H   H4        1.0  0.1403444721430986  0.24859446268391844  0.23675310393635834  1.0000
  H   H5        1.0  0.23453385226766693  0.6850538587804352  0.2985828642894148  1.0000
  H   H6        1.0  0.26546599735983284  0.8149461124936436  0.7985826112631074  1.0000
  H   H7        1.0  0.7654668634182613  0.3149449600882903  0.7014171969705457  1.0000
  H   H8        1.0  0.7345347554377567  0.18505400748213668  0.20141744999682484  1.0000
  H   H9        1.0  0.20970733767104116  0.821934565332313  0.37082626348257713  1.0000
  H   H10       1.0  0.2902925483917826  0.6780660515733457  0.8708260190262748  1.0000
  H   H11       1.0  0.790292436199813  0.17806555496547105  0.6291743457192496  1.0000
  H   H12       1.0  0.7097092018884509  0.3219347186339334  0.12917404223367865  1.0000
  H   H13       1.0  0.4052183146137693  0.920292114858256  0.39143984419328587  1.0000
  H   H14       1.0  0.09478059762396639  0.5797085009650117  0.8914401369093381  1.0000
  H   H15       1.0  0.5947814407011833  0.07970735488602536  0.6085602170666249  1.0000
  H   H16       1.0  0.9052182158758554  0.4202922702083426  0.1085599243505015  1.0000
  H   H17       1.0  0.1324868158995898  0.03996712213589149  0.39483051924747764  1.0000
  H   H18       1.0  0.367510194860003  0.46003161097230094  0.8948291714379266  1.0000
  H   H19       1.0  0.8675109630059907  0.960031697698895  0.6051700899542991  1.0000
  H   H20       1.0  0.6324895790107162  0.5399685093255185  0.10517034188003997  1.0000
  H   H21       1.0  0.2749080342869732  0.9882742215930661  0.49895645452670573  1.0000
  H   H22       1.0  0.22508990707730447  0.5117257366736182  0.9989562129179106  1.0000
  H   H23       1.0  0.7250907606570108  0.011725899026764398  0.5010436067331481  1.0000
  H   H24       1.0  0.7749098667934221  0.48827438362420844  0.0010433004000560996  1.0000
  H   H25       1.0  0.006928964999730195  0.7695739666231984  0.5219223391906808  1.0000
  H   H26       1.0  0.49307173941645743  0.7304240715171346  0.021922062600189893  1.0000
  H   H27       1.0  0.993070771759385  0.23042485256755185  0.47807772206924415  1.0000
  H   H28       1.0  0.5069289948253015  0.2695753979051148  0.9780779986597564  1.0000
  H   H29       1.0  0.8752240381072198  0.8317771902800641  0.42101174287738974  1.0000
  H   H30       1.0  0.6247745685559067  0.6682210442095452  0.921012033705196  1.0000
  H   H31       1.0  0.12477471972502487  0.16822162923273254  0.5789877704405697  1.0000
  H   H32       1.0  0.37522618424169  0.331779075766228  0.0789880275547361  1.0000
  H   H33       1.0  0.3489600186212484  0.8410509845975936  0.549526569477649  1.0000
  H   H34       1.0  0.15103975081163407  0.6589483530911334  0.04952681713813689  1.0000
  H   H35       1.0  0.6510397366936401  0.1589484851467091  0.45047294384033154  1.0000
  H   H36       1.0  0.8489609834301958  0.3410511163311013  0.9504737920637393  1.0000
  H   H37       1.0  0.250245904053827  0.8763951814291459  0.6217606531748316  1.0000
  H   H38       1.0  0.24975388325623976  0.62360415133827  0.1217609103717479  1.0000
  H   H39       1.0  0.7497538698168925  0.12360493886867367  0.378238860143135  1.0000
  H   H40       1.0  0.750246850985519  0.3763953180839792  0.8782391508881983  1.0000
  H   H41       1.0  0.2095170507257649  0.7014548816670965  0.5411583981891752  1.0000
  H   H42       1.0  0.2904827351919153  0.7985451071452798  0.0411586501821617  1.0000
  H   H43       1.0  0.790481762774057  0.2985458895062649  0.45884166307066476  1.0000
  H   H44       1.0  0.7095189779767139  0.2014543619549229  0.9588419590197574  1.0000
  H   H45       1.0  0.11982369494025848  0.735696014540096  0.6177721821001683  1.0000
  H   H46       1.0  0.3801760913827081  0.7643033184990597  0.11777244286068368  1.0000
  H   H47       1.0  0.8801751000036617  0.2643041060797557  0.3822273312177629  1.0000
  H   H48       1.0  0.6198256032300193  0.2356955000476404  0.8822276183993195  1.0000
  H   H49       1.0  0.18736977149647058  0.5793813958503193  0.6491089874025278  1.0000
  H   H50       1.0  0.31263004113786497  0.9206185856073855  0.1491092352664793  1.0000
  H   H51       1.0  0.8126290234473785  0.42061872476954687  0.35088997797347327  1.0000
  H   H52       1.0  0.6873697327329255  0.07938153469041957  0.8508908259934171  1.0000
  H   H53       1.0  0.34116621201712144  0.5014288864095775  0.732269593831951  1.0000
  H   H54       1.0  0.158834618681162  0.998571739613915  0.232269277792696  1.0000
  H   H55       1.0  0.6588325829267987  0.49857123421027444  0.2677299194859727  1.0000
  H   H56       1.0  0.8411661341163637  0.0014283803618794998  0.7677302355253061  1.0000
  H   H57       1.0  0.6035715538947528  0.7094670006526229  0.7321222028475558  1.0000
  H   H58       1.0  0.8964270616876745  0.7905331983666104  0.23212246363274855  1.0000
  H   H59       1.0  0.39642626212243204  0.2905331202892396  0.2678778584122625  1.0000
  H   H60       1.0  0.1035736725541483  0.20946627105562493  0.7678781455691279  1.0000
  H   H61       1.0  0.46030522656987216  0.7973962813612301  0.6505791211663733  1.0000
  H   H62       1.0  0.039694586428296895  0.7026036999963097  0.15057935788750845  1.0000
  H   H63       1.0  0.5396925894473767  0.20260383958061104  0.3494214880353752  1.0000
  H   H64       1.0  0.9603071267404033  0.29739576910387205  0.8494217992563333  1.0000
  C   C1        1.0  0.651179692833729  0.8998643019608888  0.34170590536147927  1.0000
  C   C2        1.0  0.8488199287963383  0.6001358892703833  0.8417062172484862  1.0000
  C   C3        1.0  0.3488200624812236  0.1001351677833924  0.6582941558984317  1.0000
  C   C4        1.0  0.1511789960383538  0.3998687852241856  0.15829274812740826  1.0000
  C   C5        1.0  0.5344246756971742  0.8408579179812178  0.32883967774431255  1.0000
  C   C6        1.0  0.9655749613044051  0.659142924680175  0.8288394481077359  1.0000
  C   C7        1.0  0.465577037471455  0.15914155111898506  0.6711609314575994  1.0000
  C   C8        1.0  0.034424849678060795  0.3408584967246853  0.17116061315213218  1.0000
  C   C9        1.0  0.5464442663176925  0.7651197164456888  0.2871297925568257  1.0000
  C   C10       1.0  0.9535553603611219  0.734881129057392  0.7871295583145751  1.0000
  C   C11       1.0  0.45355646792420146  0.23487975297651786  0.7128713645869809  1.0000
  C   C12       1.0  0.0464453924364747  0.2651189909183885  0.21287050294535695  1.0000
  C   C13       1.0  0.4390344102202519  0.7088673299204941  0.27655396250243297  1.0000
  C   C14       1.0  0.0609654525111551  0.7911332934079383  0.776553694398892  1.0000
  C   C15       1.0  0.5609634243528987  0.2911334415748569  0.7234471946412241  1.0000
  C   C16       1.0  0.9390382185109444  0.2088661750482501  0.22344581891924517  1.0000
  C   C17       1.0  0.3174412254012822  0.7295099012003945  0.3071099387879172  1.0000
  C   C18       1.0  0.18255864489241702  0.7704907200462544  0.8071096813271834  1.0000
  C   C19       1.0  0.6825585484695081  0.2704902190974109  0.6928901224719792  1.0000
  C   C20       1.0  0.817442089349342  0.22950874937599508  0.19289037993276983  1.0000
  C   C21       1.0  0.30451089247591767  0.8057512849667248  0.3477250359552925  1.0000
  C   C22       1.0  0.19548800894285281  0.6942493338348324  0.8477253311386332  1.0000
  C   C23       1.0  0.6954888999505685  0.19424948588464727  0.6522739294207369  1.0000
  C   C24       1.0  0.8045127438546018  0.30575078614098317  0.1522736342374458  1.0000
  C   C25       1.0  0.4126114752427695  0.8609599465929347  0.3591167515928219  1.0000
  C   C26       1.0  0.08738936829310968  0.6390400202349156  0.8591170408614487  1.0000
  C   C27       1.0  0.5873873197010794  0.1390401740269311  0.6408822137831791  1.0000
  C   C28       1.0  0.9126133609137241  0.3609607496503883  0.1408813765727643  1.0000
  C   C29       1.0  0.45769474201583177  0.6260807324741008  0.23476681793649587  1.0000
  C   C30       1.0  0.0423060707447291  0.873919242825707  0.7347670923025047  1.0000
  C   C31       1.0  0.5423059922259271  0.3739187369481485  0.7652332433234577  1.0000
  C   C32       1.0  0.9576946820528676  0.12608087715006627  0.2652329689574273  1.0000
  C   C33       1.0  0.1096913102161423  0.9808360785577364  0.42569990004894714  1.0000
  C   C34       1.0  0.3903066130178274  0.5191638846999352  0.9256991232481866  1.0000
  C   C35       1.0  0.8903074661721461  0.0191633915085347  0.574301257094774  1.0000
  C   C36       1.0  0.6096931608528918  0.48083623559789157  0.07430039006978009  1.0000
  C   C37       1.0  0.18822606774502756  0.9509976961269685  0.482079840608705  1.0000
  C   C38       1.0  0.3117728298133642  0.5490016124139814  0.9820790561381115  1.0000
  C   C39       1.0  0.8117737061258338  0.049002424170815594  0.5179207685931217  1.0000
  C   C40       1.0  0.6882269255015245  0.4509978573303143  0.0179204571798692  1.0000
  C   C41       1.0  0.15701439585757979  0.8720508409349106  0.5171311384568894  1.0000
  C   C42       1.0  0.34298532844603363  0.627947197853871  0.0171308548995981  1.0000
  C   C43       1.0  0.8429843619747998  0.1279479785778435  0.4828694707449301  1.0000
  C   C44       1.0  0.6570154057957253  0.3720522715683784  0.9828692063603484  1.0000
  C   C45       1.0  0.040157907010041086  0.8298048584119896  0.4960233158947318  1.0000
  C   C46       1.0  0.4598410125553229  0.6701950997324458  0.996024729096078  1.0000
  C   C47       1.0  0.9598409064895819  0.17019591276142879  0.5039751015393249  1.0000
  C   C48       1.0  0.540159721686436  0.3298043696898033  0.0039753321638685  1.0000
  C   C49       1.0  0.9653392658204466  0.8638416036237473  0.43977601699872076  1.0000
  C   C50       1.0  0.5346623008228875  0.6361572791748953  0.9397763022228246  1.0000
  C   C51       1.0  0.034661449865474495  0.13615721524497096  0.560224044261247  1.0000
  C   C52       1.0  0.46533845197470913  0.3638428408008778  0.0602237590371146  1.0000
  C   C53       1.0  0.2494391827118463  0.8347615837233419  0.5724908118776354  1.0000
  C   C54       1.0  0.2505605924044474  0.665237752400827  0.0724910671310397  1.0000
  C   C55       1.0  0.7505605911588802  0.16523853657448473  0.42750870144033115  1.0000
  C   C56       1.0  0.7494391629105053  0.3347617173434471  0.9275089941288711  1.0000
  C   C57       1.0  0.2172842563086732  0.7404201962271201  0.5919257651156613  1.0000
  C   C58       1.0  0.28271552361756846  0.7595791385729453  0.09192601837126087  1.0000
  C   C59       1.0  0.782715517562117  0.25957992407068525  0.40807429614423535  1.0000
  C   C60       1.0  0.7172852106242614  0.24042033084928252  0.9080745908306155  1.0000
  C   C61       1.0  0.3111703034907478  0.6951240211147789  0.6418328686633288  1.0000
  C   C62       1.0  0.18882947023114838  0.8048746597315883  0.14183311228570966  1.0000
  C   C63       1.0  0.6888284914532363  0.30487609950505146  0.3581671925965253  1.0000
  C   C64       1.0  0.8111712640106817  0.1951248096906396  0.8581674969161737  1.0000
  C   C65       1.0  0.27925424676095634  0.6107016375922781  0.6658212190921731  1.0000
  C   C66       1.0  0.22074557000941297  0.8892983427268462  0.16582091323412126  1.0000
  C   C67       1.0  0.7207435692562286  0.38929848334958445  0.33417884216764543  1.0000
  C   C68       1.0  0.7792551827881127  0.1107017772489556  0.8341786000838879  1.0000
  C   C69       1.0  0.36301472929868345  0.5669005267518088  0.7120072485700317  1.0000
  C   C70       1.0  0.13698509890224392  0.9330994504206559  0.21200693395422118  1.0000
  C   C71       1.0  0.6369840656452297  0.4330995938680431  0.287992264747892  1.0000
  C   C72       1.0  0.8630156538952816  0.06690066955513876  0.7879925793637879  1.0000
  C   C73       1.0  0.509854022812597  0.6837239591848101  0.7122664281106239  1.0000
  C   C74       1.0  0.9901445878557381  0.8162762411871964  0.21226669509024987  1.0000
  C   C75       1.0  0.49014379320451695  0.3162761617570737  0.2877330852072646  1.0000
  C   C76       1.0  0.009856146386091797  0.18372322823503848  0.7877339141116266  1.0000
  C   C77       1.0  0.4297162337723037  0.7317343002324178  0.6663110822266203  1.0000
  C   C78       1.0  0.07028360167520019  0.7682663306068347  0.16631131820859218  1.0000
  C   C79       1.0  0.5702815822448811  0.2682658207094447  0.3336889790331981  1.0000
  C   C80       1.0  0.9297181114935  0.23173313849334679  0.8336898389352568  1.0000
  N   N1        1.0  0.0005977711878130892  0.9370795451302881  0.40385947947363826  1.0000
  N   N2        1.0  0.499400109529283  0.5629191185082901  0.9038592571606328  1.0000
  N   N3        1.0  0.9994009866444387  0.06291927438250869  0.5961400338443211  1.0000
  N   N4        1.0  0.5005996643414362  0.43708100178952947  0.09614025615733367  1.0000
  N   N5        1.0  0.4774685017249708  0.6027828747310267  0.7349802655127178  1.0000
  N   N6        1.0  0.022532329644178593  0.8972177511077887  0.23497994354614346  1.0000
  N   N7        1.0  0.5225302932190133  0.39721724588880386  0.2650197957471434  1.0000
  N   N8        1.0  0.9774694020802245  0.1027823685459595  0.7650201177138314  1.0000
  O   O1        1.0  0.7564274036560973  0.8772591649660484  0.3064902303203779  1.0000
  O   O2        1.0  0.7435722092584527  0.6227410286644641  0.806490532766837  1.0000
  O   O3        1.0  0.243571372731985  0.12274030510027957  0.6935092829975671  1.0000
  O   O4        1.0  0.256428543539144  0.3772590913113163  0.19350952849310227  1.0000
  O   O5        1.0  0.6443796643769842  0.9640663641960785  0.38335825713173927  1.0000
  O   O6        1.0  0.8556199861173753  0.5359344747509666  0.8833580247120876  1.0000
  O   O7        1.0  0.3556210884205413  0.035933755779716095  0.61664125618627  1.0000
  O   O8        1.0  0.1443778484558464  0.46406629674436317  0.11664368037349958  1.0000
  O   O9        1.0  0.3553846817478643  0.5745484298984849  0.23089067392251642  1.0000
  O   O10       1.0  0.14461614860915972  0.9254521962189486  0.7308904059792382  1.0000
  O   O11       1.0  0.6446150921229261  0.42545169039932057  0.7691093873373802  1.0000
  O   O12       1.0  0.855386580597809  0.07454857366631978  0.26910910733883486  1.0000
  O   O13       1.0  0.5666592552209906  0.608821972718168  0.20703164611303745  1.0000
  O   O14       1.0  0.933340333078533  0.8911782276884707  0.7070314027304005  1.0000
  O   O15       1.0  0.4333405000938981  0.39117749702612764  0.7929678672049432  1.0000
  O   O16       1.0  0.06666043827483037  0.1088225428408549  0.29296811058758715  1.0000
