data_image0
_chemical_formula_structural       K4H20C16N16O16
_chemical_formula_sum              "K4 H20 C16 N16 O16"
_cell_length_a       5.051107767025108
_cell_length_b       11.627233271403645
_cell_length_c       13.37455466101005
_cell_angle_alpha    89.99997207891386
_cell_angle_beta     90.00014078060993
_cell_angle_gamma    99.90124455265811

_space_group_name_H-M_alt    "P 1"
_space_group_IT_number       1

loop_
  _space_group_symop_operation_xyz
  'x, y, z'

loop_
  _atom_site_type_symbol
  _atom_site_label
  _atom_site_symmetry_multiplicity
  _atom_site_fract_x
  _atom_site_fract_y
  _atom_site_fract_z
  _atom_site_occupancy
  K   K1        1.0  0.9292901101998227  0.367251476369482  0.1300734698342083  1.0000
  K   K2        1.0  0.5707067029236513  0.1327578782137948  0.6300713096476188  1.0000
  K   K3        1.0  0.07070498533432362  0.6327528129899705  0.869931667081296  1.0000
  K   K4        1.0  0.4292931306469327  0.8672533959251255  0.36992635038413363  1.0000
  H   H1        1.0  0.16405936666545526  0.31052449083591677  0.7389218096788924  1.0000
  H   H2        1.0  0.33594183262028576  0.18947545420090958  0.23892171588114045  1.0000
  H   H3        1.0  0.8359422693873455  0.6894763077190192  0.2610788411097218  1.0000
  H   H4        1.0  0.6640587691209986  0.8105227251939336  0.7610781872191055  1.0000
  H   H5        1.0  0.20551559453522117  0.4916462901982541  0.6439593760445064  1.0000
  H   H6        1.0  0.2944823217913211  0.0083519153502039  0.1439608164102779  1.0000
  H   H7        1.0  0.7944833720703599  0.5083527618977826  0.3560397793663483  1.0000
  H   H8        1.0  0.7055163000469733  0.9916462636924379  0.8560390866890444  1.0000
  H   H9        1.0  0.3210958267635746  0.3941571347473953  0.5569756197973773  1.0000
  H   H10       1.0  0.17890316271925846  0.10584020448490611  0.056976163318473994  1.0000
  H   H11       1.0  0.6789070996503953  0.6058419180530237  0.4430242833037639  1.0000
  H   H12       1.0  0.8210954591190357  0.8941579745577358  0.9430237397808552  1.0000
  H   H13       1.0  0.7852020712799754  0.47303159000372824  0.5914397700904388  1.0000
  H   H14       1.0  0.7147959499481331  0.026966418778151494  0.0914381376223048  1.0000
  H   H15       1.0  0.21479922000312257  0.5269683354978341  0.4085608806982036  1.0000
  H   H16       1.0  0.2852026718853296  0.9730317602645402  0.9085602701001321  1.0000
  H   H17       1.0  0.6537955618465003  0.5981193212793413  0.6318582243097666  1.0000
  H   H18       1.0  0.8462023171450639  0.9018788477132769  0.1318602924104226  1.0000
  H   H19       1.0  0.34620374952877603  0.401880603870076  0.3681409311010597  1.0000
  H   H20       1.0  0.15379828459862924  0.09811933168153789  0.8681403583782696  1.0000
  C   C1        1.0  0.35658095452395605  0.43568643797953405  0.6303208733037022  1.0000
  C   C2        1.0  0.14341687368806794  0.0643117685700574  0.1303221492379478  1.0000
  C   C3        1.0  0.6434203367567265  0.5643134875220568  0.3696790297964866  1.0000
  C   C4        1.0  0.8565817481502264  0.9356864104725845  0.8696777538613745  1.0000
  C   C5        1.0  0.6440362695451611  0.5041670540992768  0.6436141452806223  1.0000
  C   C6        1.0  0.8559623749320976  0.9958328601372128  0.143614686958081  1.0000
  C   C7        1.0  0.3559633865998181  0.4958337441035141  0.3563850101301753  1.0000
  C   C8        1.0  0.1440365916734763  0.0041661919588306985  0.8563844684527664  1.0000
  C   C9        1.0  0.5640269918269212  0.33596565762767483  0.8751478345237726  1.0000
  C   C10       1.0  0.9359745862064694  0.1640366955955912  0.37514934002550143  1.0000
  C   C11       1.0  0.4359749889931662  0.6640360139806631  0.12485206857636648  1.0000
  C   C12       1.0  0.06402240050095996  0.8359623561481868  0.624851310761329  1.0000
  C   C13       1.0  0.5460538518002737  0.39240925655217734  0.7769927702028736  1.0000
  C   C14       1.0  0.953953977387762  0.1075904861247778  0.27699431653392276  1.0000
  C   C15       1.0  0.4539494193858147  0.6075906693015939  0.22300788058668528  1.0000
  C   C16       1.0  0.046050239392208356  0.8924068209210673  0.723006334256638  1.0000
  N   N1        1.0  0.7332326570389823  0.2543517954094127  0.8838241073910852  1.0000
  N   N2        1.0  0.7667679427320451  0.24564793801695123  0.3838231775643308  1.0000
  N   N3        1.0  0.2667689790162341  0.7456490031455018  0.11617729108597527  1.0000
  N   N4        1.0  0.23323067910624934  0.7543502410256906  0.6161767255349915  1.0000
  N   N5        1.0  0.4041578086158282  0.3621112630768621  0.9530449277122273  1.0000
  N   N6        1.0  0.09583917911066209  0.137889538239186  0.45304463258666766  1.0000
  N   N7        1.0  0.5958395228612972  0.6378886617202895  0.04695572307457498  1.0000
  N   N8        1.0  0.904160477036733  0.8621112599635766  0.5469552705125834  1.0000
  N   N9        1.0  0.34676022196835987  0.34767923314309707  0.7101867243416109  1.0000
  N   N10       1.0  0.1532407916759695  0.15232071400292568  0.2101887195153012  1.0000
  N   N11       1.0  0.653241414082025  0.6523215654118673  0.2898131787585569  1.0000
  N   N12       1.0  0.8467614451985952  0.847676592690746  0.78981118358589  1.0000
  N   N13       1.0  0.7224906587683861  0.47996769916462523  0.7471301570111135  1.0000
  N   N14       1.0  0.777510781723045  0.020036409562429493  0.24713157659811455  1.0000
  N   N15       1.0  0.27751037645539617  0.5200365912516604  0.2528689983995847  1.0000
  N   N16       1.0  0.22249085432974877  0.9799643889925066  0.7528690741904993  1.0000
  O   O1        1.0  0.4143848188317278  0.320953287561764  0.0397719157555585  1.0000
  O   O2        1.0  0.085617073711667  0.1790466724457289  0.5397712450432195  1.0000
  O   O3        1.0  0.5856164724537862  0.6790466379397699  0.9602294827215304  1.0000
  O   O4        1.0  0.9143861974720053  0.8209532534080638  0.4602286580579005  1.0000
  O   O5        1.0  0.8341736844051937  0.2253925299560464  0.8017391844037434  1.0000
  O   O6        1.0  0.6658244051430274  0.2746072091434399  0.30173964368199074  1.0000
  O   O7        1.0  0.16582597174220126  0.774608268246716  0.1982607186955008  1.0000
  O   O8        1.0  0.3341712024783518  0.7253883503869287  0.6982587640396006  1.0000
  O   O9        1.0  0.23920476145839584  0.4300190341794162  0.9322172271137318  1.0000
  O   O10       1.0  0.26079174693790447  0.0699808956120904  0.43221711444168415  1.0000
  O   O11       1.0  0.7607925700187294  0.5699808906177354  0.0677834236730703  1.0000
  O   O12       1.0  0.7392091995730823  0.930018156836127  0.5677827886585334  1.0000
  O   O13       1.0  0.7857532535988341  0.20992671325644355  0.9652010564705475  1.0000
  O   O14       1.0  0.7142415874460539  0.2900721400864938  0.46520080649816004  1.0000
  O   O15       1.0  0.2142437331085958  0.7900723384873345  0.0347995943162758  1.0000
  O   O16       1.0  0.28575737916194294  0.7099269120095214  0.5347990966011408  1.0000
