data_image0
_chemical_formula_structural       K4H28C16O16
_chemical_formula_sum              "K4 H28 C16 O16"
_cell_length_a       3.9984802230353007
_cell_length_b       7.15749991577962
_cell_length_c       23.95338760831685
_cell_angle_alpha    89.99988533655439
_cell_angle_beta     90.0005897065685
_cell_angle_gamma    98.33081872726687

_space_group_name_H-M_alt    "P 1"
_space_group_IT_number       1

loop_
  _space_group_symop_operation_xyz
  'x, y, z'

loop_
  _atom_site_type_symbol
  _atom_site_label
  _atom_site_symmetry_multiplicity
  _atom_site_fract_x
  _atom_site_fract_y
  _atom_site_fract_z
  _atom_site_occupancy
  K   K1        1.0  0.5226006030574909  0.7489293560083894  0.7831545908145403  1.0000
  K   K2        1.0  0.9773884352292584  0.7510700312306043  0.2831543054581473  1.0000
  K   K3        1.0  0.47736568856220885  0.251091624650762  0.21684816145405963  1.0000
  K   K4        1.0  0.022604870529981714  0.24892976684554927  0.7168438545876301  1.0000
  H   H1        1.0  0.25527210809587336  0.4636043595547862  0.8751681525374696  1.0000
  H   H2        1.0  0.2447240300467115  0.036391324073058194  0.3751659236934941  1.0000
  H   H3        1.0  0.7447308348742041  0.5363940258520259  0.1248325123819285  1.0000
  H   H4        1.0  0.755278179828707  0.9636042372650594  0.6248318188837205  1.0000
  H   H5        1.0  0.1768710689633792  0.5379487931450555  0.6156373402580186  1.0000
  H   H6        1.0  0.32313128594852714  0.9620547074288341  0.1156366646210856  1.0000
  H   H7        1.0  0.823113268082686  0.46204535726113954  0.38436165473667944  1.0000
  H   H8        1.0  0.6768752574262182  0.0379479139275603  0.8843635828226727  1.0000
  H   H9        1.0  0.19826944328742263  0.7758624308384654  0.5906116005452234  1.0000
  H   H10       1.0  0.30173601876551  0.724139703192641  0.09061186369445551  1.0000
  H   H11       1.0  0.8017206285953619  0.22413454332302513  0.40938781193106183  1.0000
  H   H12       1.0  0.6982726590540195  0.27586150596907544  0.9093896361840168  1.0000
  H   H13       1.0  0.809245817312856  0.6216920036071371  0.5883444342755056  1.0000
  H   H14       1.0  0.6907570669715496  0.8783105627224826  0.08834525019850763  1.0000
  H   H15       1.0  0.19073748486029984  0.37830779509886275  0.411655395671602  1.0000
  H   H16       1.0  0.3092487434232609  0.121689234561785  0.911655832200424  1.0000
  H   H17       1.0  0.1862206761859113  0.7991745045760723  0.9909862675224659  1.0000
  H   H18       1.0  0.31379276331077216  0.7008212493784499  0.4909840603384411  1.0000
  H   H19       1.0  0.8137883681618304  0.20082811662056346  0.009016067310874102  1.0000
  H   H20       1.0  0.6862123139511384  0.2991757238382746  0.5090128472858525  1.0000
  H   H21       1.0  0.7996424260533813  0.6459556490377948  0.9904800231050573  1.0000
  H   H22       1.0  0.7003635413490416  0.854040534308723  0.4904771126114086  1.0000
  H   H23       1.0  0.2003605169549303  0.354042736367866  0.0095218942467952  1.0000
  H   H24       1.0  0.2996390350290953  0.14595643906508127  0.5095206299656994  1.0000
  H   H25       1.0  0.8230468584585182  0.8768950068006446  0.9598028944750183  1.0000
  H   H26       1.0  0.6769626039610656  0.6231026444200582  0.45980008023553165  1.0000
  H   H27       1.0  0.17695895193628533  0.12310479048362309  0.04019818792391311  1.0000
  H   H28       1.0  0.3230463756367214  0.3768900923731592  0.5401976623483408  1.0000
  C   C1        1.0  0.9522142095269859  0.7248747514840801  0.6702026769962333  1.0000
  C   C2        1.0  0.547791172461409  0.7751276651648668  0.17020080296376255  1.0000
  C   C3        1.0  0.047776961876692815  0.27512645878407227  0.3297971529572267  1.0000
  C   C4        1.0  0.45221073561025804  0.22487636854251042  0.8297998619530775  1.0000
  C   C5        1.0  0.04209241502010041  0.6601851133300659  0.6126033792441775  1.0000
  C   C6        1.0  0.45790762023765563  0.8398198049903272  0.1126034253526029  1.0000
  C   C7        1.0  0.9578955224688742  0.3398132730245679  0.3873964507073354  1.0000
  C   C8        1.0  0.5420939213313005  0.16018281668136322  0.8873972395643365  1.0000
  C   C9        1.0  0.051051692964250626  0.6769284686304715  0.9111294242098041  1.0000
  C   C10       1.0  0.4489525365076262  0.8230603714845872  0.4111232026415338  1.0000
  C   C11       1.0  0.9489655226217124  0.32306709175293946  0.08887666793001614  1.0000
  C   C12       1.0  0.5510486385841061  0.1769408381506636  0.5888782972304796  1.0000
  C   C13       1.0  0.956573538416251  0.7557220427783522  0.9662768685679384  1.0000
  C   C14       1.0  0.5434330854526194  0.7442727726773908  0.4662750052727703  1.0000
  C   C15       1.0  0.04343727382258321  0.2442777541894614  0.0337250487902736  1.0000
  C   C16       1.0  0.4565737597258703  0.2557213763097366  0.5337223198313623  1.0000
  O   O1        1.0  0.0009892176165990701  0.6277399167805909  0.7125524729398621  1.0000
  O   O2        1.0  0.49901198387744466  0.8722747033061465  0.21255340557146954  1.0000
  O   O3        1.0  0.999000552398698  0.3722655297520703  0.28744777448863357  1.0000
  O   O4        1.0  0.5009906571741567  0.1277321544733638  0.7874464243901971  1.0000
  O   O5        1.0  0.8227987775445695  0.8800681796346195  0.6740078270041752  1.0000
  O   O6        1.0  0.6771907965638776  0.6199398792933266  0.17400960729993645  1.0000
  O   O7        1.0  0.1771927603235781  0.1199344426703632  0.32599075051673765  1.0000
  O   O8        1.0  0.32280574322477656  0.38006274269291407  0.825992310045159  1.0000
  O   O9        1.0  0.9951725761340738  0.7501237095130762  0.8655696448517107  1.0000
  O   O10       1.0  0.5048329644985045  0.7498811743770446  0.36556938171047193  1.0000
  O   O11       1.0  0.00483256582680271  0.2498831481085872  0.13443018511210883  1.0000
  O   O12       1.0  0.4951702801733475  0.25010873866356315  0.6344250210494311  1.0000
  O   O13       1.0  0.19974946237634586  0.5250775708537319  0.9159727533750941  1.0000
  O   O14       1.0  0.30024689188636705  0.9749183212007749  0.415971613266322  1.0000
  O   O15       1.0  0.8002595819459087  0.4749250503436643  0.08402874650327162  1.0000
  O   O16       1.0  0.6997628207296032  0.0250772396634318  0.5840265467948316  1.0000
