data_image0
_chemical_formula_structural       Cd4P4H40C8N4Cl4O20
_chemical_formula_sum              "Cd4 P4 H40 C8 N4 Cl4 O20"
_cell_length_a       6.871285596181304
_cell_length_b       7.12034053705811
_cell_length_c       16.3553888704516
_cell_angle_alpha    89.99967086532035
_cell_angle_beta     100.17744943284201
_cell_angle_gamma    89.99975018373398

_space_group_name_H-M_alt    "P 1"
_space_group_IT_number       1

loop_
  _space_group_symop_operation_xyz
  'x, y, z'

loop_
  _atom_site_type_symbol
  _atom_site_label
  _atom_site_symmetry_multiplicity
  _atom_site_fract_x
  _atom_site_fract_y
  _atom_site_fract_z
  _atom_site_occupancy
  Cd  Cd1       1.0  0.4675984755258114  0.905900712918644  0.8853921168863721  1.0000
  Cd  Cd2       1.0  0.9675956876213762  0.594093516794949  0.3853884592218789  1.0000
  Cd  Cd3       1.0  0.5324068898909148  0.09409621307319328  0.11460596463263072  1.0000
  Cd  Cd4       1.0  0.032424407377490604  0.405907622450961  0.6146093816233602  1.0000
  P   P1        1.0  0.9549402391785691  0.9393140710909194  0.8566711615235505  1.0000
  P   P2        1.0  0.4549360341784522  0.5606848032888008  0.3566623870493046  1.0000
  P   P3        1.0  0.04505926659915361  0.06073341428657391  0.1433277521710821  1.0000
  P   P4        1.0  0.5450708905391649  0.43928824742449984  0.6433376330585787  1.0000
  H   H1        1.0  0.8394459866741145  0.2290680544127071  0.9652597864189758  1.0000
  H   H2        1.0  0.3394644124788826  0.2709383376947372  0.46525749275847517  1.0000
  H   H3        1.0  0.16052142687006216  0.7709302760251973  0.0347467713162075  1.0000
  H   H4        1.0  0.6605309279978258  0.7290557794182532  0.5347472584127999  1.0000
  H   H5        1.0  0.08128247021390682  0.1943168239383439  0.9923587104468296  1.0000
  H   H6        1.0  0.5813006110503736  0.30568039949027076  0.49235652453045725  1.0000
  H   H7        1.0  0.9187115266991981  0.805680102012026  0.0076490087180331985  1.0000
  H   H8        1.0  0.41871553414384977  0.694326357400996  0.5076520602565111  1.0000
  H   H9        1.0  0.4501837070292183  0.5018484529196102  0.883940085307664  1.0000
  H   H10       1.0  0.9501888626326006  0.9981472694202438  0.3839365461563062  1.0000
  H   H11       1.0  0.5498099933407445  0.49814566422170264  0.1160608873528943  1.0000
  H   H12       1.0  0.04981359999570862  0.0018510609977156  0.6160625648044659  1.0000
  H   H13       1.0  0.5174359731369622  0.5200825760011512  0.7968929259447748  1.0000
  H   H14       1.0  0.017433976480639  0.9799146105301658  0.296889964272836  1.0000
  H   H15       1.0  0.48256347889557116  0.4799073278689504  0.20310476119639986  1.0000
  H   H16       1.0  0.9825772484018032  0.020089337591649298  0.7031072849860962  1.0000
  H   H17       1.0  0.49752085100948323  0.17288883926784854  0.7528473533945929  1.0000
  H   H18       1.0  0.9975152092452645  0.327111320068326  0.2528435270785678  1.0000
  H   H19       1.0  0.5024874441464391  0.8271094911481569  0.2471503119974656  1.0000
  H   H20       1.0  0.002485667198996598  0.6728856059424971  0.7471530320114397  1.0000
  H   H21       1.0  0.2938554607415824  0.06626111547164021  0.7226840800586203  1.0000
  H   H22       1.0  0.7938417854682029  0.4337332284015147  0.22267944805388853  1.0000
  H   H23       1.0  0.7061558720031654  0.9337344060704141  0.27731562248845876  1.0000
  H   H24       1.0  0.20615476375901662  0.566263697603553  0.7773192685208201  1.0000
  H   H25       1.0  0.11283086753000761  0.24079726773068433  0.8435393719227021  1.0000
  H   H26       1.0  0.6128464122751398  0.2592074239049539  0.34353896507351317  1.0000
  H   H27       1.0  0.8871439107735455  0.7592137025383393  0.1564670654601557  1.0000
  H   H28       1.0  0.3871608089391287  0.7407838843167197  0.6564678015160226  1.0000
  H   H29       1.0  0.8509346533215879  0.2637878415040618  0.8198975365163079  1.0000
  H   H30       1.0  0.3509445258757395  0.23620217708213428  0.3198972063977479  1.0000
  H   H31       1.0  0.14906391343746614  0.7362104888421614  0.18011354503232718  1.0000
  H   H32       1.0  0.6490760813570732  0.7637961532309986  0.680112287511612  1.0000
  H   H33       1.0  0.8960006509571914  0.5391475813134293  0.9097724214147502  1.0000
  H   H34       1.0  0.3960153274490352  0.9608550346939566  0.4097773467234446  1.0000
  H   H35       1.0  0.1039588586386628  0.46083951380305177  0.0902219902917523  1.0000
  H   H36       1.0  0.6040004672877971  0.0391475089692861  0.590223264923381  1.0000
  H   H37       1.0  0.15364864971073192  0.4982743888796932  0.9417607327265785  1.0000
  H   H38       1.0  0.6536553687554728  0.0017246241349865997  0.4417597775026749  1.0000
  H   H39       1.0  0.8463255894588075  0.5017197283452859  0.05823343830203951  1.0000
  H   H40       1.0  0.3463603720248543  0.9982905593814025  0.5582396074877208  1.0000
  C   C1        1.0  0.973733903603872  0.19571754372188374  0.8615830323257327  1.0000
  C   C2        1.0  0.4737450065585378  0.3042742442298731  0.3615862810823742  1.0000
  C   C3        1.0  0.026246514380687803  0.8042021390285967  0.1383840324445558  1.0000
  C   C4        1.0  0.5262638771037231  0.6957872855431261  0.6383912432887725  1.0000
  C   C5        1.0  0.006905325294532396  0.4689276727312545  0.9561674863118341  1.0000
  C   C6        1.0  0.5069146895620946  0.031088583119306203  0.4561635755954896  1.0000
  C   C7        1.0  0.993070288550925  0.5311479010616224  0.0438579638636654  1.0000
  C   C8        1.0  0.4930945223388791  0.9688662099129529  0.5438549427046269  1.0000
  N   N1        1.0  0.9740128648022479  0.2628064578498979  0.9479452502277964  1.0000
  N   N2        1.0  0.4740300962071656  0.23719682249974744  0.4479447968778558  1.0000
  N   N3        1.0  0.0259629066709124  0.73717642394557  0.0520502460522252  1.0000
  N   N4        1.0  0.5259767205382601  0.7628211699007892  0.5520527698883413  1.0000
  Cl  Cl1       1.0  0.4906835614400507  0.2484077632382267  0.9568532753924472  1.0000
  Cl  Cl2       1.0  0.9906904166968503  0.25159111959412434  0.4568553658839818  1.0000
  Cl  Cl3       1.0  0.5093175306738759  0.7515905671668149  0.04314819024708781  1.0000
  Cl  Cl4       1.0  0.009320835170186089  0.7484044019603003  0.5431424967062524  1.0000
  O   O1        1.0  0.8989562010473903  0.8887343485471533  0.7643635164802375  1.0000
  O   O2        1.0  0.39894298329537053  0.6112547373163081  0.2643576820143423  1.0000
  O   O3        1.0  0.10107833135488418  0.11128223919264  0.2356609711114217  1.0000
  O   O4        1.0  0.6010764152249664  0.3887281442598436  0.7356578465101149  1.0000
  O   O5        1.0  0.7976097464963489  0.8847422042862334  0.9094211279298249  1.0000
  O   O6        1.0  0.29760403121469636  0.6152650192638661  0.4094188413092823  1.0000
  O   O7        1.0  0.20242590941009553  0.1152645527363561  0.09056185118188147  1.0000
  O   O8        1.0  0.7024275131570477  0.384738928865552  0.5905712018428204  1.0000
  O   O9        1.0  0.4271225989670171  0.0516967076404313  0.7579214189331225  1.0000
  O   O10       1.0  0.9271030035215732  0.4482924276421303  0.2579181897910274  1.0000
  O   O11       1.0  0.5728858040300794  0.9483002183318731  0.24207869973678697  1.0000
  O   O12       1.0  0.07289061597490588  0.5517002850843511  0.7420809429147397  1.0000
  O   O13       1.0  0.43971370924724346  0.5883081393772825  0.8360585703392971  1.0000
  O   O14       1.0  0.9397119665112896  0.9116896644275273  0.3360541784451243  1.0000
  O   O15       1.0  0.5602799372042425  0.4116859777722795  0.16394117568336236  1.0000
  O   O16       1.0  0.0602948772694418  0.08830304827909431  0.6639440016770877  1.0000
  O   O17       1.0  0.1545914674584949  0.8607025577957401  0.8995199707978969  1.0000
  O   O18       1.0  0.6545956644519679  0.639299745659649  0.3995136069572496  1.0000
  O   O19       1.0  0.8453544672942712  0.1393140303656324  0.10046742030259989  1.0000
  O   O20       1.0  0.3453813696901733  0.36068594501964657  0.6004770813641045  1.0000
