data_image0
_chemical_formula_structural       Mn2H28C28S4N4O10
_chemical_formula_sum              "Mn2 H28 C28 S4 N4 O10"
_cell_length_a       6.421668781483805
_cell_length_b       11.083776322544818
_cell_length_c       11.892760402097974
_cell_angle_alpha    85.87977646045147
_cell_angle_beta     74.32907965485482
_cell_angle_gamma    73.13337328698546

_space_group_name_H-M_alt    "P 1"
_space_group_IT_number       1

loop_
  _space_group_symop_operation_xyz
  'x, y, z'

loop_
  _atom_site_type_symbol
  _atom_site_label
  _atom_site_symmetry_multiplicity
  _atom_site_fract_x
  _atom_site_fract_y
  _atom_site_fract_z
  _atom_site_occupancy
  Mn  Mn1       1.0  0.8055060598194357  0.25001968164863086  0.7500296656316721  1.0000
  Mn  Mn2       1.0  0.19448801112081776  0.7499824224086638  0.2499623222109121  1.0000
  H   H1        1.0  0.19930864286077127  0.2738617706826502  0.8142246919808968  1.0000
  H   H2        1.0  0.7127717052752159  0.7739815074954421  0.3142398523516476  1.0000
  H   H3        1.0  0.8006826126994468  0.7261433297438984  0.1857798708291938  1.0000
  H   H4        1.0  0.28722902215379537  0.22601610297993355  0.6857686959577974  1.0000
  H   H5        1.0  0.8247774652608374  0.006959918520770695  0.4471572044960154  1.0000
  H   H6        1.0  0.7220857320440217  0.5068160037161603  0.9470259586142119  1.0000
  H   H7        1.0  0.1752163798495799  0.993017819055538  0.5528455908677187  1.0000
  H   H8        1.0  0.2779279502135735  0.49319007569584267  0.052981565136541085  1.0000
  H   H9        1.0  0.8875187232571519  0.1346463424466364  0.3622585412551232  1.0000
  H   H10       1.0  0.6160385280513551  0.6345387308405677  0.8622400640970653  1.0000
  H   H11       1.0  0.11247761341021352  0.8653323837625847  0.6377477218138878  1.0000
  H   H12       1.0  0.383988406553364  0.3654634046525018  0.1377546359766484  1.0000
  H   H13       1.0  0.7551356651225949  0.32898767848434574  0.339805428477284  1.0000
  H   H14       1.0  0.5756097974990412  0.8292675255356059  0.8397952625668665  1.0000
  H   H15       1.0  0.24486324234541715  0.6710166396092133  0.6602112367394922  1.0000
  H   H16       1.0  0.42440112801739366  0.17074120791338737  0.16019918244059284  1.0000
  H   H17       1.0  0.6212888406441479  0.5503016669934622  0.2830377938106636  1.0000
  H   H18       1.0  0.5446526963681821  0.0506912049289099  0.7833250633942371  1.0000
  H   H19       1.0  0.37868500332582045  0.4496969608967731  0.7169760605204515  1.0000
  H   H20       1.0  0.45535682497378355  0.9493090976919732  0.21667338729807273  1.0000
  H   H21       1.0  0.9624685684720831  0.5358365950657172  0.35152404842631313  1.0000
  H   H22       1.0  0.14983192386999636  0.03579732418213409  0.8515389328114294  1.0000
  H   H23       1.0  0.03752679573581486  0.4641561270762152  0.6484713473435733  1.0000
  H   H24       1.0  0.8501610600178536  0.9642115417616137  0.1484652467468378  1.0000
  H   H25       1.0  0.06683204357033654  0.31051005440002644  0.41497471012379344  1.0000
  H   H26       1.0  0.20772198119953322  0.81025599733357  0.9146004846402747  1.0000
  H   H27       1.0  0.9331691522542728  0.6894892733358376  0.5850212398542993  1.0000
  H   H28       1.0  0.7922822898307161  0.18975190972447104  0.08540260590855553  1.0000
  C   C1        1.0  0.7632464251076531  0.17097100860306816  0.5486031541895713  1.0000
  C   C2        1.0  0.5177600069415007  0.6707474645827033  0.04864275328716158  1.0000
  C   C3        1.0  0.23676667818863717  0.8290142414360202  0.4513976542971817  1.0000
  C   C4        1.0  0.48223755264722035  0.3292546996923064  0.9513537851029454  1.0000
  C   C5        1.0  0.7648634433654778  0.11016263271001489  0.4374860686018636  1.0000
  C   C6        1.0  0.6880965894964606  0.6100393915642995  0.9374190998987544  1.0000
  C   C7        1.0  0.2351209618693629  0.8898151240007692  0.5625180583136639  1.0000
  C   C8        1.0  0.31191961363751375  0.38996750531448743  0.0625790647018718  1.0000
  C   C9        1.0  0.4216617526431677  0.2980814040637653  0.3793443996416245  1.0000
  C   C10       1.0  0.9008110263029754  0.7981302995041232  0.8790613210665014  1.0000
  C   C11       1.0  0.5783299466806042  0.7019123461057503  0.6206573492939782  1.0000
  C   C12       1.0  0.09921148018829483  0.20187564090082327  0.12093588121584281  1.0000
  C   C13       1.0  0.5768969221897464  0.36945844777305575  0.3452034016273941  1.0000
  C   C14       1.0  0.7081968143791856  0.8695715514656969  0.8450409163104949  1.0000
  C   C15       1.0  0.4230873274253073  0.6305447237064925  0.6547978248413385  1.0000
  C   C16       1.0  0.29182085825809173  0.13042487525242308  0.1549497525041943  1.0000
  C   C17       1.0  0.5029077390374468  0.49429816449277547  0.313243350599258  1.0000
  C   C18       1.0  0.6891370642154442  0.9944853142806592  0.813220606745176  1.0000
  C   C19       1.0  0.49709193300229526  0.5056994173611074  0.6867630413712219  1.0000
  C   C20       1.0  0.31086301725094495  0.005515007474706097  0.186779175498927  1.0000
  C   C21       1.0  0.13653718818013522  0.4854633492673698  0.34984829405968293  1.0000
  C   C22       1.0  0.027892131576720804  0.9854488129765283  0.84974004940711  1.0000
  C   C23       1.0  0.8634478539836723  0.514536874161763  0.6501439565107461  1.0000
  C   C24       1.0  0.9721008816305672  0.014559881801090996  0.15025130329576802  1.0000
  C   C25       1.0  0.1948703818734928  0.3601029095717506  0.38281396708720905  1.0000
  C   C26       1.0  0.062100707055492255  0.8600639164899776  0.8825187579634743  1.0000
  C   C27       1.0  0.8051238679761853  0.6398908065896832  0.6171852609486804  1.0000
  C   C28       1.0  0.9378985475252363  0.1399534434743188  0.1174862043270508  1.0000
  S   S1        1.0  0.4922719214500689  0.13793851845005628  0.4119610388378661  1.0000
  S   S2        1.0  0.9583032298547637  0.6379829216984946  0.9116229235002322  1.0000
  S   S3        1.0  0.5077005453211642  0.862058126787765  0.5880455155219693  1.0000
  S   S4        1.0  0.04170235840397399  0.3620306506393973  0.08838085262073749  1.0000
  N   N1        1.0  0.28687531693125123  0.5529455804984947  0.3138554263295177  1.0000
  N   N2        1.0  0.8458935894889804  0.053040437012441495  0.8138601596552492  1.0000
  N   N3        1.0  0.7131187230170751  0.4470613343890549  0.6861438474660346  1.0000
  N   N4        1.0  0.15410564012961453  0.946964535743078  0.18613492198632287  1.0000
  O   O1        1.0  0.5829004438689652  0.20787056630923928  0.6291330762044041  1.0000
  O   O2        1.0  0.5807734599738055  0.7073450154189942  0.1292436237606722  1.0000
  O   O3        1.0  0.4171266409969405  0.7921213727764068  0.3708746288163168  1.0000
  O   O4        1.0  0.41921240304587587  0.2926553678402398  0.870760613365249  1.0000
  O   O5        1.0  0.9522276862579987  0.17832851083781517  0.5582505079662566  1.0000
  O   O6        1.0  0.3116785948421779  0.6783114171145925  0.0582437167397174  1.0000
  O   O7        1.0  0.047792130493434164  0.8216565429512245  0.44173566637414297  1.0000
  O   O8        1.0  0.6883297231930212  0.3216924339503962  0.9417380514673468  1.0000
  O   O9        1.0  0.14719504363817762  0.2497089661771454  0.7501243461827157  1.0000
  O   O10       1.0  0.8527948300359256  0.750307390280632  0.24987595905462  1.0000
