data_image0
_chemical_formula_structural       Cu4H36C20N4O20
_chemical_formula_sum              "Cu4 H36 C20 N4 O20"
_cell_length_a       7.147498295707944
_cell_length_b       10.09125936079181
_cell_length_c       10.857140031965855
_cell_angle_alpha    90.02775123375318
_cell_angle_beta     89.99329151052999
_cell_angle_gamma    90.01057666169011

_space_group_name_H-M_alt    "P 1"
_space_group_IT_number       1

loop_
  _space_group_symop_operation_xyz
  'x, y, z'

loop_
  _atom_site_type_symbol
  _atom_site_label
  _atom_site_symmetry_multiplicity
  _atom_site_fract_x
  _atom_site_fract_y
  _atom_site_fract_z
  _atom_site_occupancy
  Cu  Cu1       1.0  0.929117039564588  0.051536682724517405  0.4980046790915864  1.0000
  Cu  Cu2       1.0  0.5703158591937836  0.9484719096101699  0.9977896805319163  1.0000
  Cu  Cu3       1.0  0.4290801678659977  0.44842184560511816  0.5020426722250946  1.0000
  Cu  Cu4       1.0  0.0706894377915077  0.5515082157088569  0.0021552683710198  1.0000
  H   H1        1.0  0.7928073828249824  0.3118514284322487  0.7278142161681629  1.0000
  H   H2        1.0  0.7076066969748568  0.6886954285404271  0.2275717800569268  1.0000
  H   H3        1.0  0.29292665472366514  0.18807939413836997  0.2722408929717872  1.0000
  H   H4        1.0  0.20739239920060737  0.8115483705686587  0.7724436945691836  1.0000
  H   H5        1.0  0.635711278381372  0.9376498645255822  0.48697890782863595  1.0000
  H   H6        1.0  0.8639474400563076  0.06237081807141459  0.9866705709263639  1.0000
  H   H7        1.0  0.13574523912723183  0.562254575079102  0.5130586153452725  1.0000
  H   H8        1.0  0.364327427032599  0.4377902516430367  0.0132022405711822  1.0000
  H   H9        1.0  0.748156283160462  0.7955174308417766  0.5138962174178587  1.0000
  H   H10       1.0  0.7516674700172673  0.20456829454101208  0.013769309980645498  1.0000
  H   H11       1.0  0.24825586451159157  0.7043878413875148  0.4861841932396231  1.0000
  H   H12       1.0  0.2519791497075304  0.2955870204110198  0.9861038897609473  1.0000
  H   H13       1.0  0.8139124439622877  0.05063390327173071  0.7249121507450835  1.0000
  H   H14       1.0  0.6853548818386274  0.949890591320745  0.22479559361978824  1.0000
  H   H15       1.0  0.31424064478972724  0.44937202008013344  0.2751044942518561  1.0000
  H   H16       1.0  0.1855882365725776  0.5502859018661611  0.7751589364395386  1.0000
  H   H17       1.0  0.67741011931399  0.1351711199538173  0.6285261890246403  1.0000
  H   H18       1.0  0.8222702672194871  0.8655480125734769  0.12841165870626978  1.0000
  H   H19       1.0  0.1774907239678285  0.3648179164305532  0.3713821940565509  1.0000
  H   H20       1.0  0.32237423622952843  0.6347989618916685  0.8715231241837242  1.0000
  H   H21       1.0  0.10226912044597472  0.3257831438325666  0.8130331407486436  1.0000
  H   H22       1.0  0.3982260530975595  0.6742314569605695  0.3129851034963096  1.0000
  H   H23       1.0  0.6024952618153635  0.17420603287365574  0.1870219643175375  1.0000
  H   H24       1.0  0.8980210828313987  0.8257171785709401  0.687072679502023  1.0000
  H   H25       1.0  0.9844399641118786  0.18846694896996752  0.8721393052527375  1.0000
  H   H26       1.0  0.5157469883294256  0.811735876619565  0.3721136799903633  1.0000
  H   H27       1.0  0.4846463934667257  0.31144727345814255  0.12783190949922127  1.0000
  H   H28       1.0  0.015681511830635503  0.6883203454172885  0.6278861777208107  1.0000
  H   H29       1.0  0.3132715298216341  0.1880180737626773  0.6903557411331107  1.0000
  H   H30       1.0  0.18662973698564406  0.8117236368116136  0.19060528793341547  1.0000
  H   H31       1.0  0.8132096617840292  0.3121928983810491  0.30977614629360767  1.0000
  H   H32       1.0  0.6867197399519612  0.6880051583953346  0.8095691798788136  1.0000
  H   H33       1.0  0.17112095387727783  0.0472652651269598  0.7058400373480893  1.0000
  H   H34       1.0  0.32847818430000336  0.9526410505114528  0.2060748652972109  1.0000
  H   H35       1.0  0.6710999517715167  0.45286860006174834  0.2940163682814045  1.0000
  H   H36       1.0  0.8286391468729377  0.5472013571564389  0.7938841903715356  1.0000
  C   C1        1.0  0.9852738513771585  0.3106904243252728  0.5781833166341954  1.0000
  C   C2        1.0  0.5150029937816569  0.6893514888217493  0.0780565629231234  1.0000
  C   C3        1.0  0.48534451365203785  0.1892784132423628  0.42183574598673346  1.0000
  C   C4        1.0  0.014848715766262904  0.8106313157306317  0.9220059707591376  1.0000
  C   C5        1.0  0.9003402012338102  0.24458868906641124  0.6910181785474165  1.0000
  C   C6        1.0  0.599762772317135  0.7557438109789132  0.1908880231437067  1.0000
  C   C7        1.0  0.4004607049695395  0.2553868912647914  0.3089954731849787  1.0000
  C   C8        1.0  0.0996601796809173  0.744375909069518  0.809124700148061  1.0000
  C   C9        1.0  0.05170078368771411  0.2267324339387145  0.7890248659457056  1.0000
  C   C10       1.0  0.4484782618897328  0.7733588500878881  0.2890185254093254  1.0000
  C   C11       1.0  0.5518519658688847  0.2732530895934532  0.2109742803975009  1.0000
  C   C12       1.0  0.948391501309786  0.7266260794316963  0.7110095885073874  1.0000
  C   C13       1.0  0.21626735584757034  0.1378145584173183  0.754062928185668  1.0000
  C   C14       1.0  0.28360584396974536  0.8620544329466  0.25427698353232836  1.0000
  C   C15       1.0  0.7163501943785492  0.36226480038165926  0.2459354988381861  1.0000
  C   C16       1.0  0.7836338783763921  0.6377989754633333  0.7457804156882231  1.0000
  C   C17       1.0  0.3279494326484382  0.09289711790066951  0.8656018102638114  1.0000
  C   C18       1.0  0.17193195039670434  0.9069050834488412  0.3659276247505616  1.0000
  C   C19       1.0  0.8282792059237852  0.4070591139640385  0.1344312387753419  1.0000
  C   C20       1.0  0.6718253787987722  0.5929773455367523  0.6341955210359415  1.0000
  N   N1        1.0  0.8139414616981072  0.11771017643001609  0.6540808012112791  1.0000
  N   N2        1.0  0.6856728045727255  0.8827566601682761  0.1539164807551927  1.0000
  N   N3        1.0  0.3140675183351647  0.3822501429578793  0.3458953127464994  1.0000
  N   N4        1.0  0.18580337248927495  0.6174406712148722  0.846012243924136  1.0000
  O   O1        1.0  0.7560368852887863  0.8959719825271578  0.5092138180626762  1.0000
  O   O2        1.0  0.743281345685574  0.10419122312693219  0.0078660853557224  1.0000
  O   O3        1.0  0.25604789324516736  0.6039223760818402  0.4906900634836049  1.0000
  O   O4        1.0  0.24385326192876283  0.3960124061568492  0.9914118420289242  1.0000
  O   O5        1.0  0.014863459441528405  0.23788151656869158  0.4814966075364637  1.0000
  O   O6        1.0  0.48510934764838964  0.7620016950204728  0.9813865937769535  1.0000
  O   O7        1.0  0.5148130863601992  0.26209225523175667  0.5185440747527963  1.0000
  O   O8        1.0  0.9851217323260572  0.7378750640971745  0.0186662928647934  1.0000
  O   O9        1.0  0.030088796859665503  0.43010865052600855  0.5857647740448186  1.0000
  O   O10       1.0  0.47065234402848694  0.5698451623112317  0.0856512093702975  1.0000
  O   O11       1.0  0.5302418390175916  0.0698998158589461  0.4142397316650345  1.0000
  O   O12       1.0  0.9703181422414605  0.9300614248312937  0.9145124198388288  1.0000
  O   O13       1.0  0.44476168958282614  0.9973972930218762  0.8460059103514227  1.0000
  O   O14       1.0  0.05461805813094862  0.0020864824111370994  0.3462985924270611  1.0000
  O   O15       1.0  0.9454175883335696  0.5023602785868917  0.1540537266173416  1.0000
  O   O16       1.0  0.5544694713158479  0.49781124389645015  0.6538403203179683  1.0000
  O   O17       1.0  0.3068681554110242  0.14462327199229463  0.970689841226843  1.0000
  O   O18       1.0  0.1935360787101388  0.8554952671156709  0.47104233767243636  1.0000
  O   O19       1.0  0.8069764330738566  0.35540252643506415  0.029325518985388  1.0000
  O   O20       1.0  0.6934139910603253  0.6444316050289558  0.529086517706503  1.0000
