data_image0
_chemical_formula_structural       Sr2H16C4N16O12
_chemical_formula_sum              "Sr2 H16 C4 N16 O12"
_cell_length_a       5.615238796988127
_cell_length_b       6.637102817992772
_cell_length_c       15.198564469301472
_cell_angle_alpha    81.87948697082899
_cell_angle_beta     79.3536500703296
_cell_angle_gamma    64.96788368245201

_space_group_name_H-M_alt    "P 1"
_space_group_IT_number       1

loop_
  _space_group_symop_operation_xyz
  'x, y, z'

loop_
  _atom_site_type_symbol
  _atom_site_label
  _atom_site_symmetry_multiplicity
  _atom_site_fract_x
  _atom_site_fract_y
  _atom_site_fract_z
  _atom_site_occupancy
  Sr  Sr1       1.0  0.976577607915921  0.24997637678956147  0.750005608408209  1.0000
  Sr  Sr2       1.0  0.023418543763860048  0.7500254519025943  0.2499942646808435  1.0000
  H   H1        1.0  0.20675321426447363  0.4279441521300599  0.8853535163495182  1.0000
  H   H2        1.0  0.520215451495247  0.072077207742808  0.6146334320989765  1.0000
  H   H3        1.0  0.7932445506340643  0.5720543425923097  0.11464646476183299  1.0000
  H   H4        1.0  0.47978743249918687  0.927924632894289  0.38536695059318754  1.0000
  H   H5        1.0  0.6549951656105221  0.9410671379516132  0.7826164513447439  1.0000
  H   H6        1.0  0.3784808577121766  0.5589695600029502  0.7173915358244187  1.0000
  H   H7        1.0  0.34500415121051714  0.05893301092203272  0.21738294640841363  1.0000
  H   H8        1.0  0.6215161704368838  0.4410339386603397  0.2826084106542623  1.0000
  H   H9        1.0  0.8941123479802255  0.5781088051827012  0.8952225619706268  1.0000
  H   H10       1.0  0.3675699590102184  0.9219047258450884  0.6048092242766288  1.0000
  H   H11       1.0  0.10588528576215589  0.42189134070471124  0.10477670838174899  1.0000
  H   H12       1.0  0.6324339326096506  0.07809713359809219  0.3951919425641393  1.0000
  H   H13       1.0  0.9107445408927148  0.8079889265738842  0.7175749501746936  1.0000
  H   H14       1.0  0.4362834526989867  0.6919783475472842  0.7824292222626994  1.0000
  H   H15       1.0  0.08925477592832462  0.19201122229975454  0.2824244475784567  1.0000
  H   H16       1.0  0.5637151273725748  0.30802680526727505  0.21757014085778792  1.0000
  C   C1        1.0  0.13760951592963971  0.9293671784110132  0.0020777640232196885  1.0000
  C   C2        1.0  0.06915541985133436  0.5704899963261809  0.4979273240341868  1.0000
  C   C3        1.0  0.8623936303771061  0.07063135989600508  0.9979240401868948  1.0000
  C   C4        1.0  0.9308403996562261  0.42951179774003395  0.5020711081584324  1.0000
  N   N1        1.0  0.33614130675209725  0.8794024970454046  0.9303877193307031  1.0000
  N   N2        1.0  0.14599746431260724  0.6204445620045294  0.5696392170384641  1.0000
  N   N3        1.0  0.6638594810227615  0.1205960540952375  0.06961461422646657  1.0000
  N   N4        1.0  0.8540000382736181  0.3795572350479191  0.4303593425549365  1.0000
  N   N5        1.0  0.5660639831652862  0.7458728330933795  0.9618465660097897  1.0000
  N   N6        1.0  0.27371887960967467  0.7540650709577009  0.5381955637214092  1.0000
  N   N7        1.0  0.43393358071718774  0.2541239758380129  0.03815268496410339  1.0000
  N   N8        1.0  0.7262804372113648  0.24593507791594507  0.4618038340317412  1.0000
  N   N9        1.0  0.5086031333813281  0.7146569918994671  0.049126577538103795  1.0000
  N   N10       1.0  0.27233461327528335  0.785309937845064  0.45091080364127833  1.0000
  N   N11       1.0  0.49140189956528263  0.28533482503593893  0.9508732176715711  1.0000
  N   N12       1.0  0.7276645723895996  0.214691862193618  0.5490878833529039  1.0000
  N   N13       1.0  0.2490111531953545  0.8241972140714678  0.076105663298236  1.0000
  N   N14       1.0  0.14934402718004244  0.675753029798365  0.42390073960730495  1.0000
  N   N15       1.0  0.7509969026275767  0.17579465928220372  0.9238964843572504  1.0000
  N   N16       1.0  0.8506536764222399  0.32425045304506744  0.5760985501235537  1.0000
  O   O1        1.0  0.32987825421552247  0.9380895640624729  0.8448788511327194  1.0000
  O   O2        1.0  0.112991701981485  0.5615739850952012  0.6551429724440824  1.0000
  O   O3        1.0  0.6701197116990798  0.061910616450880716  0.15512186011608967  1.0000
  O   O4        1.0  0.8870050552916168  0.4384244908210775  0.344856224518665  1.0000
  O   O5        1.0  0.045862843435607106  0.47776410367397676  0.8559504316591885  1.0000
  O   O6        1.0  0.3798806738199258  0.022143684418445303  0.6440849594329309  1.0000
  O   O7        1.0  0.9541357979322099  0.5222360610195195  0.14404962284179124  1.0000
  O   O8        1.0  0.6201225423467208  0.977858190844593  0.35591686415566676  1.0000
  O   O9        1.0  0.8179001079660182  0.9484296435985872  0.7479048883861451  1.0000
  O   O10       1.0  0.5140145151385199  0.5514759041608883  0.7521399934657111  1.0000
  O   O11       1.0  0.1821033816217295  0.0515688442626256  0.2520948181797138  1.0000
  O   O12       1.0  0.48598426594910643  0.44853093444465497  0.2478600997922342  1.0000
