data_image0
_chemical_formula_structural       Cu6H20C24N12O12
_chemical_formula_sum              "Cu6 H20 C24 N12 O12"
_cell_length_a       7.013588646428256
_cell_length_b       9.41832262169514
_cell_length_c       13.520776950560371
_cell_angle_alpha    89.99872077949605
_cell_angle_beta     104.41205560042684
_cell_angle_gamma    90.00086333566962

_space_group_name_H-M_alt    "P 1"
_space_group_IT_number       1

loop_
  _space_group_symop_operation_xyz
  'x, y, z'

loop_
  _atom_site_type_symbol
  _atom_site_label
  _atom_site_symmetry_multiplicity
  _atom_site_fract_x
  _atom_site_fract_y
  _atom_site_fract_z
  _atom_site_occupancy
  Cu  Cu1       1.0  0.9999973898574195  0.9999982198757209  0.5000009759035322  1.0000
  Cu  Cu2       1.0  0.5000008798133776  0.49999984087664745  0.5000014488983382  1.0000
  Cu  Cu3       1.0  0.7899453931267857  0.9707667178968793  0.9642142919663712  1.0000
  Cu  Cu4       1.0  0.7100523717801435  0.4707623328184241  0.0357870393036492  1.0000
  Cu  Cu5       1.0  0.21006808968309082  0.029234025672003797  0.0357891884989172  1.0000
  Cu  Cu6       1.0  0.28994169725833524  0.5292384107504235  0.9642098108591242  1.0000
  H   H1        1.0  0.5715399205319116  0.0016328592338226  0.39993139989598353  1.0000
  H   H2        1.0  0.9284704024862406  0.5016367628924385  0.6000784635324123  1.0000
  H   H3        1.0  0.4284558583200492  0.9983710695620333  0.6000693431062913  1.0000
  H   H4        1.0  0.0715313094538388  0.4983629188726584  0.3999236888932032  1.0000
  H   H5        1.0  0.6055300811684957  0.8673156772880048  0.47668808701600807  1.0000
  H   H6        1.0  0.894482086254861  0.36732303027826424  0.5233112582343367  1.0000
  H   H7        1.0  0.39446555463086946  0.1326893133034446  0.5233104198658864  1.0000
  H   H8        1.0  0.1055180112599601  0.6326755897566017  0.4766884920794752  1.0000
  H   H9        1.0  0.8934455387946084  0.23421984022065356  0.6461729115621466  1.0000
  H   H10       1.0  0.6065601599473637  0.7342228469956639  0.35382476259381695  1.0000
  H   H11       1.0  0.10654411615561797  0.7657787798114697  0.35382344059747334  1.0000
  H   H12       1.0  0.39344876569936094  0.26577364955152655  0.6461759837695737  1.0000
  H   H13       1.0  0.9657869049450268  0.78127862282291  0.8275995211151894  1.0000
  H   H14       1.0  0.5342158493114936  0.2812699932041129  0.17240968702081713  1.0000
  H   H15       1.0  0.0342060741993322  0.21871787360531417  0.172403126039022  1.0000
  H   H16       1.0  0.4657871432694093  0.7187339356543916  0.8275896498975897  1.0000
  H   H17       1.0  0.8498662592786841  0.21484276174145123  0.8252764028224677  1.0000
  H   H18       1.0  0.6501455779334151  0.7148223197622059  0.174730397874896  1.0000
  H   H19       1.0  0.15012629069301653  0.7851547965531793  0.1747195359850338  1.0000
  H   H20       1.0  0.3498649144593244  0.2851763002872048  0.8252720052220398  1.0000
  C   C1        1.0  0.023275795984524405  0.7658322136963635  0.6319580449238842  1.0000
  C   C2        1.0  0.47672738622995325  0.26584231812645953  0.3680425406546775  1.0000
  C   C3        1.0  0.9767230686058852  0.23416640627403507  0.3680452662393351  1.0000
  C   C4        1.0  0.5232727112848679  0.7341563019084063  0.6319572096591274  1.0000
  C   C5        1.0  0.9782957733496501  0.8925226030243892  0.6895750019566123  1.0000
  C   C6        1.0  0.5217031778809156  0.3925178603525198  0.3104402297352067  1.0000
  C   C7        1.0  0.021702662023500397  0.1074707082512916  0.310421600903183  1.0000
  C   C8        1.0  0.4782999577228465  0.6074807596696347  0.6895613433324287  1.0000
  C   C9        1.0  0.9118238633363731  0.1326544921912216  0.6866556980943342  1.0000
  C   C10       1.0  0.5881784172437107  0.6326628534863089  0.3133349909098158  1.0000
  C   C11       1.0  0.0881703964190805  0.8673420042896612  0.3133441335815093  1.0000
  C   C12       1.0  0.41182894168672834  0.36733576659941053  0.6866640986911889  1.0000
  C   C13       1.0  0.9507027951631386  0.8828354845763047  0.7877599808681096  1.0000
  C   C14       1.0  0.5493074575516558  0.38284272012921866  0.2122514928110633  1.0000
  C   C15       1.0  0.049291321532287186  0.1171610119399844  0.2122376146945726  1.0000
  C   C16       1.0  0.45070009217009505  0.6171622704704233  0.7877505782308775  1.0000
  C   C17       1.0  0.7784986990900222  0.7809404233226473  0.9949629009152473  1.0000
  C   C18       1.0  0.7214946978049993  0.2809424691633141  0.0050371166266032115  1.0000
  C   C19       1.0  0.2214838852433374  0.2190656289327322  0.005037093390910713  1.0000
  C   C20       1.0  0.2785185942804702  0.7190614597333465  0.994963382332827  1.0000
  C   C21       1.0  0.8857065958076901  0.12179200588894899  0.785303179213976  1.0000
  C   C22       1.0  0.6143019903830904  0.6218080967730446  0.21469726580274082  1.0000
  C   C23       1.0  0.11428609723891729  0.8782076758906568  0.2146949956922626  1.0000
  C   C24       1.0  0.3857068876141269  0.37819370858688484  0.785302735153536  1.0000
  N   N1        1.0  0.958531135899534  0.0172835900118855  0.6395009296383378  1.0000
  N   N2        1.0  0.5414756052498007  0.5172930932342156  0.3604949724142871  1.0000
  N   N3        1.0  0.041467585601111516  0.98271078295317  0.36050014544057524  1.0000
  N   N4        1.0  0.4585274826895896  0.4827087120803099  0.6395058552606585  1.0000
  N   N5        1.0  0.9044522770184217  0.997582059620996  0.8358209767330538  1.0000
  N   N6        1.0  0.5955720142650661  0.49761047472251374  0.16417776048123056  1.0000
  N   N7        1.0  0.09554041602074652  0.0024165603984230006  0.164177198180397  1.0000
  N   N8        1.0  0.4044354400610287  0.5023913306201635  0.8358228198402387  1.0000
  N   N9        1.0  0.7725970077456735  0.6584843989332542  0.011361521794960123  1.0000
  N   N10       1.0  0.7273943405013056  0.15848545623311594  0.9886349419706022  1.0000
  N   N11       1.0  0.22741381840176442  0.34150678871222345  0.9886460989498503  1.0000
  N   N12       1.0  0.27259512373938577  0.8415184726471595  0.01135842866873561  1.0000
  O   O1        1.0  0.04841226135008721  0.7925147752106271  0.5423401513406105  1.0000
  O   O2        1.0  0.45158260933497013  0.2925110824961622  0.4576613118727693  1.0000
  O   O3        1.0  0.951585179546903  0.20748065946195746  0.4576637392094439  1.0000
  O   O4        1.0  0.5484101313908737  0.7074875375114545  0.5423376084117351  1.0000
  O   O5        1.0  0.032517027148344424  0.645784758135193  0.672280308760378  1.0000
  O   O6        1.0  0.46748405163631895  0.14578438615388484  0.3277381401357644  1.0000
  O   O7        1.0  0.9674890988799943  0.3542170471666353  0.32772234166839814  1.0000
  O   O8        1.0  0.5325205076459979  0.8542152956457156  0.6722628535594595  1.0000
  O   O9        1.0  0.6640975723802852  0.9248928122843271  0.4308908552507731  1.0000
  O   O10       1.0  0.8359080921281431  0.42488529360490196  0.5691076231397646  1.0000
  O   O11       1.0  0.33589953477687823  0.0751121783125726  0.5691078176369828  1.0000
  O   O12       1.0  0.16409200539411017  0.5751143881901514  0.4308921271668282  1.0000
