data_image0
_chemical_formula_structural       K6Ga6Co24H48C108O90
_chemical_formula_sum              "K6 Ga6 Co24 H48 C108 O90"
_cell_length_a       10.676247756739427
_cell_length_b       21.732968180122228
_cell_length_c       21.729720751043118
_cell_angle_alpha    117.3650367985665
_cell_angle_beta     99.41575959495805
_cell_angle_gamma    99.43495083144012

_space_group_name_H-M_alt    "P 1"
_space_group_IT_number       1

loop_
  _space_group_symop_operation_xyz
  'x, y, z'

loop_
  _atom_site_type_symbol
  _atom_site_label
  _atom_site_symmetry_multiplicity
  _atom_site_fract_x
  _atom_site_fract_y
  _atom_site_fract_z
  _atom_site_occupancy
  K   K1        1.0  0.6178188855430946  0.8431609860083426  0.6778962281986977  1.0000
  K   K2        1.0  0.7751995398030969  0.8348074015685398  0.15705123881539854  1.0000
  K   K3        1.0  0.9410408112292786  0.3221916874250112  0.16524464474352377  1.0000
  K   K4        1.0  0.3821817006700173  0.1568313373462331  0.3220969278958279  1.0000
  K   K5        1.0  0.22480642737724574  0.16519569269348716  0.8429509835336405  1.0000
  K   K6        1.0  0.05896162742426006  0.6778119452966394  0.8347575402539817  1.0000
  Ga  Ga1       1.0  0.5244929274880262  0.624683391520712  0.7516369168998338  1.0000
  Ga  Ga2       1.0  0.9000889948225462  0.1269777606170379  0.37534055966963104  1.0000
  Ga  Ga3       1.0  0.7732153909171302  0.2483643532154075  0.8731174714393147  1.0000
  Ga  Ga4       1.0  0.4755081809617323  0.3753137786826882  0.2483603497558491  1.0000
  Ga  Ga5       1.0  0.09991139930097133  0.8730274875348626  0.6246649639372635  1.0000
  Ga  Ga6       1.0  0.22678299697295753  0.751634971117042  0.1268805656455001  1.0000
  Co  Co1       1.0  0.6069277127546187  0.7300319059726873  0.8751188090112336  1.0000
  Co  Co2       1.0  0.8769670450723624  0.14512118370546287  0.2700046470581157  1.0000
  Co  Co3       1.0  0.7320097325000178  0.1247981116802777  0.8548623708537664  1.0000
  Co  Co4       1.0  0.3930714926602761  0.2699652640157594  0.12488106512611095  1.0000
  Co  Co5       1.0  0.12303376260887697  0.8548829874687202  0.729998574156248  1.0000
  Co  Co6       1.0  0.2679893348120004  0.8751969036901458  0.14514340486447708  1.0000
  Co  Co7       1.0  0.5964175247842931  0.596960422340608  0.6419558265172685  1.0000
  Co  Co8       1.0  0.9996365883573263  0.04503598206839849  0.4030561589180905  1.0000
  Co  Co9       1.0  0.9546546272691501  0.35812383890553434  0.955011197737015  1.0000
  Co  Co10      1.0  0.4035827763833737  0.40303513222112736  0.35804017222648815  1.0000
  Co  Co11      1.0  0.0003643587639388353  0.9549665733773125  0.5969477115623079  1.0000
  Co  Co12      1.0  0.04533820397223547  0.6418738695809123  0.04498656856495827  1.0000
  Co  Co13      1.0  0.351216620038123  0.5875682640229557  0.6456878648790791  1.0000
  Co  Co14      1.0  0.7636828504830362  0.05809652632943601  0.41231814917169635  1.0000
  Co  Co15      1.0  0.7057820186220028  0.35432018899505374  0.9419377635647805  1.0000
  Co  Co16      1.0  0.64878529706381  0.4124305218776314  0.35430974942601523  1.0000
  Co  Co17      1.0  0.23631512247925462  0.9419038749252168  0.5876831105681717  1.0000
  Co  Co18      1.0  0.29421785669009637  0.6456802124468054  0.05806134882467959  1.0000
  Co  Co19      1.0  0.5655300946199162  0.5973936112483925  0.8467329288488372  1.0000
  Co  Co20      1.0  0.9683161550113797  0.2493508186269295  0.4026399940039767  1.0000
  Co  Co21      1.0  0.7191409732258478  0.1532875986184834  0.7507220725017802  1.0000
  Co  Co22      1.0  0.4344681647579094  0.402603558854615  0.15326456797928492  1.0000
  Co  Co23      1.0  0.03168735339617957  0.7506549680153113  0.5973683294782359  1.0000
  Co  Co24      1.0  0.2808601208379784  0.8467095710020587  0.2492848569102861  1.0000
  H   H1        1.0  0.4741382742136224  0.8682248878172842  0.522005055399532  1.0000
  H   H2        1.0  0.6058439154224401  0.653757240065147  0.1317439882170888  1.0000
  H   H3        1.0  0.9522894773784288  0.4780018356973059  0.34630089316113555  1.0000
  H   H4        1.0  0.5258617425936407  0.1317738979793646  0.4779933258621938  1.0000
  H   H5        1.0  0.39415744936680136  0.3462442385693834  0.8682548190832409  1.0000
  H   H6        1.0  0.04771203027605969  0.5219980273475288  0.6536962627489444  1.0000
  H   H7        1.0  0.6432778028180193  0.8820711346633913  0.5219728964245361  1.0000
  H   H8        1.0  0.7611496390596884  0.6399405311109162  0.11792222958485604  1.0000
  H   H9        1.0  0.1214664450240263  0.47812010160389906  0.36020561533209156  1.0000
  H   H10       1.0  0.3567196349247297  0.11792818961708917  0.47802552413859445  1.0000
  H   H11       1.0  0.23885159790233246  0.360058793321933  0.8820755773275195  1.0000
  H   H12       1.0  0.8785319449211997  0.5218792228118118  0.6397910413589543  1.0000
  H   H13       1.0  0.6023517755843386  0.69898114154131  0.4678617831325411  1.0000
  H   H14       1.0  0.9033341699645019  0.7688683162402581  0.3009906981083431  1.0000
  H   H15       1.0  0.13469785279976781  0.5322238562610124  0.23117128267595186  1.0000
  H   H16       1.0  0.3976462199514614  0.30101549022727164  0.5321317633853013  1.0000
  H   H17       1.0  0.09666706494238039  0.23113100810931533  0.6990084891978015  1.0000
  H   H18       1.0  0.8652999985006958  0.46777439104175755  0.7688248354946482  1.0000
  H   H19       1.0  0.4613715220861252  0.691995055893038  0.5011748639100447  1.0000
  H   H20       1.0  0.7693408193078924  0.8091613762808407  0.30800478741325327  1.0000
  H   H21       1.0  0.9604074756101966  0.4988668231243808  0.19087811179605307  1.0000
  H   H22       1.0  0.5386234835676335  0.30800319144810107  0.4988191837767176  1.0000
  H   H23       1.0  0.23066258590110073  0.19083848675690968  0.6919934420652255  1.0000
  H   H24       1.0  0.03959159378990048  0.5011319627313141  0.8091188124189658  1.0000
  H   H25       1.0  0.5929764216128606  0.78463122669568  0.40035419305736036  1.0000
  H   H26       1.0  0.8081926512135951  0.6156909886278257  0.2153632926701974  1.0000
  H   H27       1.0  0.19274278372379416  0.5996021274226349  0.3841952827985366  1.0000
  H   H28       1.0  0.4070220968446279  0.21537025194948  0.5996430038903853  1.0000
  H   H29       1.0  0.19180844425326882  0.38430995145022706  0.7846352453699055  1.0000
  H   H30       1.0  0.8072576486963143  0.4003955814795646  0.6157994156768893  1.0000
  H   H31       1.0  0.4431125975727284  0.8097020989656869  0.39375553989434314  1.0000
  H   H32       1.0  0.633170795214788  0.5840896018520069  0.19032527488483447  1.0000
  H   H33       1.0  0.04961360593551223  0.6063333040655435  0.4160304083338886  1.0000
  H   H34       1.0  0.5568868696620157  0.19029937967592764  0.6062421938375949  1.0000
  H   H35       1.0  0.3668316612169562  0.415910261189282  0.8096724178094449  1.0000
  H   H36       1.0  0.9503917009382479  0.3936665591316525  0.5839661339254363  1.0000
  H   H37       1.0  0.3336574786528813  0.7185334081909146  0.418182549840374  1.0000
  H   H38       1.0  0.615014744637179  0.6996546590338963  0.2814326437675945  1.0000
  H   H39       1.0  0.9155896375582061  0.5818791224643008  0.30037139720018763  1.0000
  H   H40       1.0  0.6663381921027637  0.28146807040935323  0.5818139570172961  1.0000
  H   H41       1.0  0.3849870282294249  0.30034574240087153  0.7185675421902503  1.0000
  H   H42       1.0  0.08441240942608629  0.4181218177212287  0.6996258370990844  1.0000
  H   H43       1.0  0.4314425894760062  0.6716737714383569  0.3637885839824334  1.0000
  H   H44       1.0  0.7596361420235169  0.6921470166861283  0.32836996747663255  1.0000
  H   H45       1.0  0.06785864242129945  0.6362511722473413  0.30790249926897667  1.0000
  H   H46       1.0  0.5685548558022333  0.3283255531474295  0.6362047751368821  1.0000
  H   H47       1.0  0.24036604440080106  0.30785230777092915  0.6716279160886813  1.0000
  H   H48       1.0  0.9321442255130208  0.36374761373296854  0.6920942714265409  1.0000
  C   C1        1.0  0.48242496715604233  0.655056944594058  0.6389423981681475  1.0000
  C   C2        1.0  0.8274666022016035  0.9839030226194937  0.3449400943268586  1.0000
  C   C3        1.0  0.8437613620558295  0.3610669982535554  0.01616000342337995  1.0000
  C   C4        1.0  0.5175727570022489  0.3449391485347774  0.3610522594832446  1.0000
  C   C5        1.0  0.17252757428158821  0.016097378593812602  0.6550599385387414  1.0000
  C   C6        1.0  0.15623498267433425  0.6389339415646517  0.983840452008316  1.0000
  C   C7        1.0  0.4457328209909619  0.7331667731798817  0.8851927484795324  1.0000
  C   C8        1.0  0.7126825540686355  0.1521107209133774  0.2668711944032225  1.0000
  C   C9        1.0  0.5607779439508962  0.1147835697742181  0.8479191582529496  1.0000
  C   C10       1.0  0.5542669381067215  0.2668277041301295  0.11480501240006188  1.0000
  C   C11       1.0  0.28732001241211685  0.8478950660099613  0.7331319909822369  1.0000
  C   C12       1.0  0.43922803141702355  0.8852157544188797  0.15208501363045454  1.0000
  C   C13       1.0  0.6932939546780827  0.7964287812814985  0.9641749136690124  1.0000
  C   C14       1.0  0.8971420175701967  0.1677212747658245  0.20358151102083608  1.0000
  C   C15       1.0  0.7293780925067495  0.035764986725759194  0.8322129047798726  1.0000
  C   C16       1.0  0.3067009128727918  0.20356731144162413  0.035825035598641426  1.0000
  C   C17       1.0  0.102861228365434  0.8322839735974981  0.796421941888589  1.0000
  C   C18       1.0  0.27062246907772186  0.9642311060316331  0.16778934493044773  1.0000
  C   C19       1.0  0.6495983263846553  0.7711965322629837  0.825380741685116  1.0000
  C   C20       1.0  0.8784430992327403  0.054244174728339103  0.22888509560088724  1.0000
  C   C21       1.0  0.8243927681877494  0.17459542449041265  0.9457337115562083  1.0000
  C   C22       1.0  0.35040277658474395  0.22880063771837206  0.17462020602062012  1.0000
  C   C23       1.0  0.12155675967124306  0.945759996449389  0.7711175888292771  1.0000
  C   C24       1.0  0.17560859043609148  0.8254060538943192  0.05426923692543535  1.0000
  C   C25       1.0  0.7247400602371954  0.672120388717552  0.8754551540447295  1.0000
  C   C26       1.0  0.05282321923786527  0.2033411116688271  0.3279032611366404  1.0000
  C   C27       1.0  0.8496267271491932  0.12451759899587961  0.7966487533628381  1.0000
  C   C28       1.0  0.27526185275447546  0.327878397016498  0.12454522104790297  1.0000
  C   C29       1.0  0.9471769103585856  0.7966635981208867  0.6720987722912355  1.0000
  C   C30       1.0  0.15037247210030782  0.8754795707427614  0.20335526195581338  1.0000
  C   C31       1.0  0.5879608621576011  0.5056560509130463  0.618360179844018  1.0000
  C   C32       1.0  0.0824188171850295  0.1127088003530616  0.494380395696453  1.0000
  C   C33       1.0  0.969796995616406  0.381789674450104  0.8872919613409351  1.0000
  C   C34       1.0  0.4120390261373926  0.4943405806541533  0.3816376611610153  1.0000
  C   C35       1.0  0.9175817321015811  0.8872910623067294  0.505622665267026  1.0000
  C   C36       1.0  0.030200710763679743  0.6182101883590932  0.1127071886136761  1.0000
  C   C37       1.0  0.637047387166028  0.5954878738105478  0.5660179029047826  1.0000
  C   C38       1.0  0.04155413323039159  0.9705617103680098  0.404520292891803  1.0000
  C   C39       1.0  0.0711986911932883  0.4340429998189492  0.029493113617768085  1.0000
  C   C40       1.0  0.3629552087057419  0.40451037350226227  0.4339804390555387  1.0000
  C   C41       1.0  0.9584376036283189  0.029437613600649098  0.5954804285412366  1.0000
  C   C42       1.0  0.9287927825084453  0.5659557858430374  0.9705031973737448  1.0000
  C   C43       1.0  0.39008777438262143  0.5708302121746486  0.8261853829395989  1.0000
  C   C44       1.0  0.8194130451025218  0.2553884685406587  0.42917067853318974  1.0000
  C   C45       1.0  0.564209243462372  0.17377510261439255  0.7446253455655807  1.0000
  C   C46       1.0  0.6099102143027364  0.42916641931637395  0.17381276489081188  1.0000
  C   C47       1.0  0.18059195072704878  0.7446183952109919  0.5708387202536613  1.0000
  C   C48       1.0  0.4357845310759103  0.826222605646464  0.25537663857063825  1.0000
  C   C49       1.0  0.2530878531202489  0.5614862043479361  0.5591509125653077  1.0000
  C   C50       1.0  0.6915350161449751  0.9976772798947451  0.43842876193235714  1.0000
  C   C51       1.0  0.6943142817670137  0.44085377803327924  0.002396353904586563  1.0000
  C   C52       1.0  0.7469132423466149  0.43851473573011646  0.44084762547480233  1.0000
  C   C53       1.0  0.3084664655107758  0.0023263524973842  0.5615784078560325  1.0000
  C   C54       1.0  0.305681798436076  0.559146623422741  0.9976006113480905  1.0000
  C   C55       1.0  0.3120574777338234  0.5031041300295911  0.6435347215903278  1.0000
  C   C56       1.0  0.8089952213391031  0.14037362153682406  0.49679640238232275  1.0000
  C   C57       1.0  0.6688060899758028  0.3564809764938133  0.8596574430151023  1.0000
  C   C58       1.0  0.6879411774235108  0.4968957327760677  0.35646496514848286  1.0000
  C   C59       1.0  0.19100166066572644  0.8596283953388236  0.503205511832327  1.0000
  C   C60       1.0  0.3311929753140319  0.6435178091953516  0.1403422419874615  1.0000
  C   C61       1.0  0.6031642617967776  0.5992520876474358  0.9300608847844316  1.0000
  C   C62       1.0  0.004214953306956184  0.3307795394905995  0.4007294047247498  1.0000
  C   C63       1.0  0.6736083311299624  0.0699595730134064  0.6693017531152564  1.0000
  C   C64       1.0  0.39683331812617695  0.400745621015588  0.06993634451971789  1.0000
  C   C65       1.0  0.9957924978701699  0.669224631742061  0.5992761935852116  1.0000
  C   C66       1.0  0.3263905892394873  0.930040828182193  0.33070096367131896  1.0000
  C   C67       1.0  0.7441192673619313  0.6527998456606311  0.7078334723494919  1.0000
  C   C68       1.0  0.09151693982020959  0.054985987675152614  0.3471581740511098  1.0000
  C   C69       1.0  0.036495313003506176  0.2922500437565745  0.9450066129135735  1.0000
  C   C70       1.0  0.2558806229881938  0.3471967859898442  0.29216298826177217  1.0000
  C   C71       1.0  0.9084770924276524  0.9450160290723416  0.6528444304672405  1.0000
  C   C72       1.0  0.9635030728314504  0.7077492804926065  0.054992804565010295  1.0000
  C   C73       1.0  0.278100970542809  0.6470792692581355  0.7044187588122598  1.0000
  C   C74       1.0  0.6310691897141752  0.05735878957820258  0.35283422245651513  1.0000
  C   C75       1.0  0.5739971085401692  0.2955754449162952  0.9427284370909775  1.0000
  C   C76       1.0  0.7218999957267443  0.35291951656272147  0.2955796991024044  1.0000
  C   C77       1.0  0.3689267414582744  0.9426432272177223  0.6471685353677117  1.0000
  C   C78       1.0  0.4260035740540218  0.7044265721672289  0.057271943210409404  1.0000
  C   C79       1.0  0.549805097029086  0.8407986921843075  0.503153407170295  1.0000
  C   C80       1.0  0.7089174007853886  0.6623455890988907  0.1591846423170082  1.0000
  C   C81       1.0  0.04680441997346216  0.49690539710584153  0.33772336379643525  1.0000
  C   C82       1.0  0.45019370441872303  0.15919955517042436  0.4968423275219891  1.0000
  C   C83       1.0  0.29108505359121745  0.3376542738591297  0.8408144307710473  1.0000
  C   C84       1.0  0.9531966775485332  0.5030955430554799  0.6622737938498988  1.0000
  C   C85       1.0  0.6110134406643937  0.5221131733476623  0.7873841172630591  1.0000
  C   C86       1.0  0.08905164147294896  0.26523416111674436  0.47790844787257925  1.0000
  C   C87       1.0  0.8239191073321023  0.21267978862695708  0.7348085488282123  1.0000
  C   C88       1.0  0.38898386788105205  0.4778839966756152  0.21261422317463288  1.0000
  C   C89       1.0  0.9109515976122396  0.734771086969026  0.5220996063494141  1.0000
  C   C90       1.0  0.17607644104372602  0.7873157655916642  0.265190747700906  1.0000
  C   C91       1.0  0.5177316494230624  0.7206405326554445  0.47980641947596325  1.0000
  C   C92       1.0  0.7970498722206116  0.759164154596931  0.27932299103814257  1.0000
  C   C93       1.0  0.03812592448629458  0.5202092724373201  0.2408763698678129  1.0000
  C   C94       1.0  0.4822687665889305  0.2793609459826243  0.520191851040174  1.0000
  C   C95       1.0  0.2029538009406764  0.2408362469417824  0.7206764279630706  1.0000
  C   C96       1.0  0.9618732857239182  0.47978789774541036  0.7591202833507324  1.0000
  C   C97       1.0  0.5065618887284201  0.7902079191069331  0.4217372973889225  1.0000
  C   C98       1.0  0.7162264983395515  0.6315330989373037  0.20980736551277349  1.0000
  C   C99       1.0  0.08496217203461497  0.5783119598350125  0.3685072394795128  1.0000
  C   C100      1.0  0.4934367719092734  0.20979194392076286  0.5782587082998347  1.0000
  C   C101      1.0  0.28377595672210276  0.36846676404847756  0.7901912474440209  1.0000
  C   C102      1.0  0.9150383882127074  0.4216879032688681  0.631488459383867  1.0000
  C   C103      1.0  0.43528734010244824  0.7189761839430558  0.41452101463922725  1.0000
  C   C104      1.0  0.7162271098769536  0.6955684360193714  0.28103929463610205  1.0000
  C   C105      1.0  0.0208957188009221  0.5855096349929595  0.30446531065468446  1.0000
  C   C106      1.0  0.5647088829658956  0.2810226019232616  0.5854742992232005  1.0000
  C   C107      1.0  0.2837772454793779  0.30443142707034104  0.7189585513640537  1.0000
  C   C108      1.0  0.9791052515789005  0.41448915099443434  0.6955303864724415  1.0000
  O   O1        1.0  0.4868494878828144  0.7082766368038588  0.6351744641614943  1.0000
  O   O2        1.0  0.7786790047423435  0.9268912290353907  0.29175345589766255  1.0000
  O   O3        1.0  0.8519740575698834  0.36479929645933856  0.07314417393685352  1.0000
  O   O4        1.0  0.5131481091332972  0.29171730215104924  0.36481873297069  1.0000
  O   O5        1.0  0.22131854647464885  0.07311401926591542  0.7082481567003569  1.0000
  O   O6        1.0  0.14802608432442096  0.635201643427969  0.9268570482378564  1.0000
  O   O7        1.0  0.6766695007664438  0.8073042291180953  0.8003468377156793  1.0000
  O   O8        1.0  0.8693628507175859  0.9931175372228225  0.19273069724976463  1.0000
  O   O9        1.0  0.8764348087740643  0.1996995377431787  0.006887456892840756  1.0000
  O   O10       1.0  0.3233345948251767  0.19269132540171796  0.1996517682961141  1.0000
  O   O11       1.0  0.130641068507515  0.006887172330678501  0.8072771643649403  1.0000
  O   O12       1.0  0.1235605694006451  0.8003051717589356  0.9931169540578821  1.0000
  O   O13       1.0  0.6732346293369247  0.598567507388509  0.5196873570491505  1.0000
  O   O14       1.0  0.0744306076749267  0.9210995145551732  0.4014098025925464  1.0000
  O   O15       1.0  0.15362391234103262  0.48030359698766745  0.07898344493085571  1.0000
  O   O16       1.0  0.3267733803183006  0.4014339713600065  0.48031290708426166  1.0000
  O   O17       1.0  0.9255599103991087  0.07889927083279959  0.5985905729273356  1.0000
  O   O18       1.0  0.8463683748081935  0.5196968045657897  0.9210099927912694  1.0000
  O   O19       1.0  0.5870067503101525  0.44628900474680233  0.6000322828296447  1.0000
  O   O20       1.0  0.1407713044283838  0.1537396859181115  0.5537606992749886  1.0000
  O   O21       1.0  0.9870922506420642  0.40010710035131314  0.8462238752691462  1.0000
  O   O22       1.0  0.4129965229613504  0.5537087039227302  0.3999677070484254  1.0000
  O   O23       1.0  0.85923413503496  0.8462585612730535  0.44624109356294633  1.0000
  O   O24       1.0  0.012912893533112436  0.5998981480326792  0.15378019107741636  1.0000
  O   O25       1.0  0.28357190710565316  0.4483706656479356  0.641913156597397  1.0000
  O   O26       1.0  0.8353275163337416  0.19344611557087887  0.5515629342103239  1.0000
  O   O27       1.0  0.641850341515891  0.3581265186266974  0.8065615897537696  1.0000
  O   O28       1.0  0.7164267459965502  0.5516291970744547  0.35808791053518263  1.0000
  O   O29       1.0  0.1646737042201636  0.8065569785978398  0.44843844474276306  1.0000
  O   O30       1.0  0.3581469663445064  0.6418706513688264  0.1934372108151834  1.0000
  O   O31       1.0  0.27585493003594763  0.5517058288329508  0.8125931822384089  1.0000
  O   O32       1.0  0.7242808785350691  0.26096287982068117  0.4482664104968634  1.0000
  O   O33       1.0  0.4635515522210767  0.1873242841809741  0.7389964865699882  1.0000
  O   O34       1.0  0.7241418378096044  0.44829026399411737  0.1874060000726132  1.0000
  O   O35       1.0  0.275724109791966  0.7390477540276663  0.5517405786243686  1.0000
  O   O36       1.0  0.5364430309693873  0.8126750397770621  0.2610058452156423  1.0000
  O   O37       1.0  0.6257690433240128  0.5974852325985933  0.9832191704007301  1.0000
  O   O38       1.0  0.028670110922952574  0.3856620594938107  0.4024231779942014  1.0000
  O   O39       1.0  0.6431688095681879  0.016768476400066804  0.6144298926274702  1.0000
  O   O40       1.0  0.3742301648310686  0.4025119375008686  0.016778863211584352  1.0000
  O   O41       1.0  0.9713274512217963  0.6143394188495747  0.5975785436131673  1.0000
  O   O42       1.0  0.35683879745707964  0.9832303093682453  0.3855727829078218  1.0000
  O   O43       1.0  0.8524224281472571  0.6848805773859539  0.7435577436493759  1.0000
  O   O44       1.0  0.16771689427967126  0.05857169169762239  0.3150421917827373  1.0000
  O   O45       1.0  0.10890317995015407  0.25645353616326355  0.9414225205035295  1.0000
  O   O46       1.0  0.14757541972799257  0.31511766977804  0.2564406751775152  1.0000
  O   O47       1.0  0.832278360178087  0.9414308637693339  0.6849584579924937  1.0000
  O   O48       1.0  0.8910991308761638  0.743547942356706  0.05857866410602243  1.0000
  O   O49       1.0  0.8401947482789325  0.6778303877200074  0.8866623364330765  1.0000
  O   O50       1.0  0.1625281236106773  0.20877567553363008  0.3221370885816199  1.0000
  O   O51       1.0  0.9539078864184063  0.11335342183834739  0.7911750597821481  1.0000
  O   O52       1.0  0.1598041891836743  0.3221662437674695  0.11333634818153367  1.0000
  O   O53       1.0  0.8374743013749253  0.7912317270349192  0.6778668279315667  1.0000
  O   O54       1.0  0.04609183986304529  0.8866485949434093  0.20882984517886166  1.0000
  O   O55       1.0  0.7479018026883822  0.8428802209743367  0.022567715779437877  1.0000
  O   O56       1.0  0.9055696113444542  0.17962822281964463  0.15712147569264803  1.0000
  O   O57       1.0  0.7256895887808881  0.977386423912357  0.8202963899899701  1.0000
  O   O58       1.0  0.2520885861883428  0.15711641015644057  0.9774325796150053  1.0000
  O   O59       1.0  0.09444420650364561  0.8203791800117203  0.8428838207870515  1.0000
  O   O60       1.0  0.2743018862579802  0.0226085914031344  0.1797064718484833  1.0000
  O   O61       1.0  0.21774773551580023  0.6829539939156744  0.7388042480016778  1.0000
  O   O62       1.0  0.5347612031834644  0.05592813241774049  0.3170580068364188  1.0000
  O   O63       1.0  0.47920366257526587  0.2611937497222526  0.944196419592558  1.0000
  O   O64       1.0  0.782255127623209  0.3170447918703445  0.26119574361263187  1.0000
  O   O65       1.0  0.4652370268033507  0.944076577295796  0.6829443334168346  1.0000
  O   O66       1.0  0.520799327705923  0.7388071902377006  0.05580503254095954  1.0000
  O   O67       1.0  0.3437639046600296  0.7385039494860024  0.8963315763660448  1.0000
  O   O68       1.0  0.6054161669165268  0.15796521264623922  0.2615369292689991  1.0000
  O   O69       1.0  0.4476847148936969  0.1037404489025562  0.8421478700738235  1.0000
  O   O70       1.0  0.6562336896159097  0.26148998935788365  0.10366346129116975  1.0000
  O   O71       1.0  0.3945872170890396  0.8420384199330966  0.7384680931689829  1.0000
  O   O72       1.0  0.5523224669610514  0.8962631837736339  0.15785745897591139  1.0000
  O   O73       1.0  0.5668521867292354  0.7962326601285454  0.5355207062333136  1.0000
  O   O74       1.0  0.7705181436453259  0.7392857190060056  0.2037245239581509  1.0000
  O   O75       1.0  0.03155924892234189  0.4645036051103515  0.2607924774306979  1.0000
  O   O76       1.0  0.43315107766964195  0.2037688185821693  0.4644777942416384  1.0000
  O   O77       1.0  0.22948662047341634  0.2607130669117127  0.7962742405682735  1.0000
  O   O78       1.0  0.9684410378923403  0.5354957192705215  0.7392057129599934  1.0000
  O   O79       1.0  0.6342328769750977  0.46869155357382636  0.7509035833314143  1.0000
  O   O80       1.0  0.1657545838776144  0.282166278779421  0.5313127940890611  1.0000
  O   O81       1.0  0.8835982290156822  0.24913321093760035  0.7178156489501717  1.0000
  O   O82       1.0  0.3657638888153158  0.531304539169973  0.2490969793733768  1.0000
  O   O83       1.0  0.8342501303317318  0.717843816318158  0.4686971466907437  1.0000
  O   O84       1.0  0.11640450081575433  0.7508634204246931  0.2821870233262445  1.0000
  O   O85       1.0  0.1862094361951705  0.5469537974443384  0.5039641468833977  1.0000
  O   O86       1.0  0.6392068556843924  0.9570767393036518  0.4530344627669365  1.0000
  O   O87       1.0  0.6826820887296421  0.49605976389445056  0.04302581493229236  1.0000
  O   O88       1.0  0.8137934180712136  0.45304875838287006  0.4960343553278008  1.0000
  O   O89       1.0  0.3607994969997891  0.04292904724469789  0.5469768514616362  1.0000
  O   O90       1.0  0.3173027435313287  0.5039390217923269  0.9569667385698538  1.0000
