data_image0
_chemical_formula_structural       Zn2H26C40N2O14
_chemical_formula_sum              "Zn2 H26 C40 N2 O14"
_cell_length_a       10.986190372930922
_cell_length_b       16.37814457818133
_cell_length_c       17.615432328163855
_cell_angle_alpha    95.05903970824748
_cell_angle_beta     90.43021941241963
_cell_angle_gamma    92.53686312526038

_space_group_name_H-M_alt    "P 1"
_space_group_IT_number       1

loop_
  _space_group_symop_operation_xyz
  'x, y, z'

loop_
  _atom_site_type_symbol
  _atom_site_label
  _atom_site_symmetry_multiplicity
  _atom_site_fract_x
  _atom_site_fract_y
  _atom_site_fract_z
  _atom_site_occupancy
  Zn  Zn1       1.0  0.5016826184015457  0.4100679203702171  0.5038461998632613  1.0000
  Zn  Zn2       1.0  0.5066105104232009  0.5886327891836064  0.5060945160774183  1.0000
  H   H1        1.0  0.34465004900817325  0.7182094274282634  0.4928648826046071  1.0000
  H   H2        1.0  0.344993429190346  0.8693596852942916  0.49305377232912667  1.0000
  H   H3        1.0  0.7345600508013489  0.8736742395448119  0.53802442581744  1.0000
  H   H4        1.0  0.28610743553633716  0.12037737458496883  0.46031179915873127  1.0000
  H   H5        1.0  0.6632300995784989  0.13341567319802292  0.5375117610106201  1.0000
  H   H6        1.0  0.6600779913337435  0.2839308646757033  0.5331632097685244  1.0000
  H   H7        1.0  0.6439068938090672  0.0018224906860808997  0.5310020134039064  1.0000
  H   H8        1.0  0.373518394671656  0.9960301497613315  0.4821173461296553  1.0000
  H   H9        1.0  0.5252658048406645  0.6241356224864705  0.2687151995184891  1.0000
  H   H10       1.0  0.512446933589935  0.6207165538555873  0.12800207723522314  1.0000
  H   H11       1.0  0.5029038964073395  0.35512382837487166  0.11477275294868153  1.0000
  H   H12       1.0  0.49752471950603194  0.6627427885570045  0.8903809177713171  1.0000
  H   H13       1.0  0.47955099518259203  0.39750453510641404  0.8848360758756755  1.0000
  H   H14       1.0  0.4729372835703174  0.38929981646268175  0.7439875548545416  1.0000
  H   H15       1.0  0.49052186799707437  0.4159442080710464  0.002100593240555814  1.0000
  H   H16       1.0  0.5051056193696583  0.6044950583883023  0.006601815668233318  1.0000
  H   H17       1.0  0.7625950527509177  0.5887898860903392  0.4016987287711657  1.0000
  H   H18       1.0  0.21304663029068394  0.5945259613888396  0.373393399902355  1.0000
  H   H19       1.0  0.1277665433380903  0.40454160063398353  0.5618253897259537  1.0000
  H   H20       1.0  0.9015683248504659  0.40125594282952903  0.5755534843387835  1.0000
  H   H21       1.0  0.728556179327427  0.6560084520576839  0.5325151391414593  1.0000
  H   H22       1.0  0.28393165702942014  0.33754175378107487  0.46668677728945346  1.0000
  H   H23       1.0  0.5196115587192836  0.36014326409625147  0.3155033066966412  1.0000
  H   H24       1.0  0.4830856828411569  0.6511581915572222  0.6895056893772633  1.0000
  H   H25       1.0  0.7644482917745351  0.6705694082155348  0.30597563480795753  1.0000
  H   H26       1.0  0.1790643210035299  0.674779556264923  0.27688787299531736  1.0000
  C   C1        1.0  0.5279698079318392  0.49844819464043155  0.3554216896864304  1.0000
  C   C2        1.0  0.2661742367900431  0.49939872877297403  0.48306297424512923  1.0000
  C   C3        1.0  0.4806118473033508  0.5113490740689741  0.653106229881864  1.0000
  C   C4        1.0  0.7426632561650381  0.491064339629105  0.5116243396649481  1.0000
  C   C5        1.0  0.4288770412560511  0.7558316503478296  0.5019708770429645  1.0000
  C   C6        1.0  0.43011409351406377  0.8399057149549379  0.5021257248308046  1.0000
  C   C7        1.0  0.5419828370644665  0.8856454165704691  0.5150547941887353  1.0000
  C   C8        1.0  0.6456844694026885  0.8423690368360042  0.5275262244358886  1.0000
  C   C9        1.0  0.6378948330514335  0.7561911603668391  0.5260055096447047  1.0000
  C   C10       1.0  0.5534128004264006  0.9746986786852931  0.5157487741763305  1.0000
  C   C11       1.0  0.46329407525631444  0.023654460254739707  0.498460040501449  1.0000
  C   C12       1.0  0.3714280894922553  0.1535933073787632  0.4773670038654529  1.0000
  C   C13       1.0  0.47308329781225217  0.11264249766573191  0.49868084296596044  1.0000
  C   C14       1.0  0.5802257359825234  0.16074212877683183  0.5199001424594982  1.0000
  C   C15       1.0  0.5792754644484504  0.2445816334181786  0.5182274755271834  1.0000
  C   C16       1.0  0.37634155135498304  0.2396716731893989  0.47798038580557295  1.0000
  C   C17       1.0  0.5228629875688142  0.49338424381873125  0.27161466638465737  1.0000
  C   C18       1.0  0.5215274148982942  0.5657077913679417  0.23366285576377527  1.0000
  C   C19       1.0  0.5137713235614713  0.5635460962903166  0.1552244967314209  1.0000
  C   C20       1.0  0.5068095521772307  0.4869779963199292  0.11057681201187822  1.0000
  C   C21       1.0  0.5083030505225068  0.4148040271821998  0.1477058750232914  1.0000
  C   C22       1.0  0.516099958385297  0.4165794810666057  0.22727895083784233  1.0000
  C   C23       1.0  0.49766069439114347  0.4792437466577581  0.027772354318024405  1.0000
  C   C24       1.0  0.4977046717500785  0.5409594719471187  0.9814739322089493  1.0000
  C   C25       1.0  0.49159623278959697  0.6020842744602677  0.8592083579311024  1.0000
  C   C26       1.0  0.48996553622711775  0.5313553624492755  0.8985512796702579  1.0000
  C   C27       1.0  0.4818888917711207  0.45365337223427105  0.8559514515810562  1.0000
  C   C28       1.0  0.47788699903504295  0.4486921209590875  0.7773189155235516  1.0000
  C   C29       1.0  0.4804895208811785  0.5194430248585673  0.7371077408763754  1.0000
  C   C30       1.0  0.48613808196849834  0.5975276081715253  0.7793854231358637  1.0000
  C   C31       1.0  0.8763709270731539  0.49274856932472494  0.4978410359052817  1.0000
  C   C32       1.0  0.9310892989663628  0.5438729452905235  0.4447348908033391  1.0000
  C   C33       1.0  0.9461227828495283  0.441437315011079  0.5370720345607793  1.0000
  C   C34       1.0  0.8616246548903489  0.5902244530041403  0.3973165077919489  1.0000
  C   C35       1.0  0.9154633599924654  0.636273155222085  0.3439113610820642  1.0000
  C   C36       1.0  0.13059037109358942  0.4954033150465023  0.48137249293136364  1.0000
  C   C37       1.0  0.07284521996911052  0.4429108047434624  0.5289514747727253  1.0000
  C   C38       1.0  0.06137720470111671  0.5453253143883289  0.4362649049017264  1.0000
  C   C39       1.0  0.11449131619500011  0.5933448478574591  0.3809084514114289  1.0000
  C   C40       1.0  0.0446631168558511  0.6376544907705224  0.3353003978557894  1.0000
  N   N1        1.0  0.5303801904707585  0.7136882553596139  0.5133003043045576  1.0000
  N   N2        1.0  0.47985685153975777  0.28457896373662095  0.4977623789212019  1.0000
  O   O1        1.0  0.5223041077517011  0.4305075350804374  0.38779334725389714  1.0000
  O   O2        1.0  0.5373333607461462  0.5692942235223272  0.3920496415041939  1.0000
  O   O3        1.0  0.3226646234304625  0.5686341280034811  0.4837094989746832  1.0000
  O   O4        1.0  0.31901971033995125  0.43131287929084294  0.48701611444428045  1.0000
  O   O5        1.0  0.47822022122201713  0.5786298779581714  0.6193701335120211  1.0000
  O   O6        1.0  0.48399739027343713  0.4404347975414353  0.6177822326404724  1.0000
  O   O7        1.0  0.6876503641057427  0.4214680945657959  0.5120248734705157  1.0000
  O   O8        1.0  0.6900285019423437  0.5596279361124202  0.5226024158099208  1.0000
  O   O9        1.0  0.7398975266777442  0.7179743901350335  0.5372480213448725  1.0000
  O   O10       1.0  0.27573916228173806  0.2753718104356865  0.4586014211133787  1.0000
  O   O11       1.0  0.5164054558792586  0.34465440895538535  0.25898537152445295  1.0000
  O   O12       1.0  0.487550279509037  0.6684055438115877  0.7456560955207651  1.0000
  O   O13       1.0  0.8510740216057685  0.6808546112647421  0.29688097388653034  1.0000
  O   O14       1.0  0.0918971395066634  0.6831511981988709  0.2802059321543666  1.0000
