data_image0
_chemical_formula_structural       Mn4H20C16O26
_chemical_formula_sum              "Mn4 H20 C16 O26"
_cell_length_a       7.565071570311178
_cell_length_b       8.945579585706344
_cell_length_c       11.015241535810867
_cell_angle_alpha    89.99986597708231
_cell_angle_beta     90.0097439705317
_cell_angle_gamma    99.20947657464399

_space_group_name_H-M_alt    "P 1"
_space_group_IT_number       1

loop_
  _space_group_symop_operation_xyz
  'x, y, z'

loop_
  _atom_site_type_symbol
  _atom_site_label
  _atom_site_symmetry_multiplicity
  _atom_site_fract_x
  _atom_site_fract_y
  _atom_site_fract_z
  _atom_site_occupancy
  Mn  Mn1       1.0  0.23666308112856876  0.2395762395854605  0.37378102689521614  1.0000
  Mn  Mn2       1.0  0.7631760221313966  0.7601273734907112  0.87382181899973  1.0000
  Mn  Mn3       1.0  0.3451062463501273  0.21611005723427476  0.8854257448957487  1.0000
  Mn  Mn4       1.0  0.6549000597143363  0.7840286275828492  0.38556016532113807  1.0000
  H   H1        1.0  0.002368461268339699  0.04497673540227961  0.4906420606502453  1.0000
  H   H2        1.0  0.9976302405825734  0.9547191220459444  0.990450001431029  1.0000
  H   H3        1.0  0.5060442159654315  0.0295922764863121  0.7610659260869073  1.0000
  H   H4        1.0  0.4942646675443428  0.9707953133004854  0.26097584516322314  1.0000
  H   H5        1.0  0.3935511471712657  0.2884190191545031  0.6006512321801409  1.0000
  H   H6        1.0  0.6070763201008232  0.711900135695359  0.10068310877090174  1.0000
  H   H7        1.0  0.09629323789866359  0.306891284781841  0.7016366277897391  1.0000
  H   H8        1.0  0.9050750670890154  0.6915749739264218  0.2029161816679094  1.0000
  H   H9        1.0  0.1352184886123382  0.36848729078129594  0.03246691605281171  1.0000
  H   H10       1.0  0.8644445756584817  0.6314963882914528  0.5325480699915346  1.0000
  H   H11       1.0  0.30592938436711137  0.33210152356200956  0.11196407344510113  1.0000
  H   H12       1.0  0.6939159358437693  0.6681019523403081  0.6121441212598173  1.0000
  H   H13       1.0  0.10865560778026415  0.8500360151894812  0.5454847216205964  1.0000
  H   H14       1.0  0.8918738460975177  0.14980339173546758  0.04535362560021381  1.0000
  H   H15       1.0  0.32335640650997277  0.8427428222465212  0.6975111844048529  1.0000
  H   H16       1.0  0.6773834772371926  0.15748643722607622  0.19734592903743942  1.0000
  H   H17       1.0  0.39920403470432564  0.591949124596923  0.5461729583907912  1.0000
  H   H18       1.0  0.6003986639035476  0.40812918744001103  0.04622862283276421  1.0000
  H   H19       1.0  0.21601018045788578  0.578595726863114  0.7367418534582131  1.0000
  H   H20       1.0  0.7829472889971002  0.4210644751565626  0.23702309540408356  1.0000
  C   C1        1.0  0.3530350938066818  0.9521608361225378  0.4678727594922807  1.0000
  C   C2        1.0  0.6473261793477789  0.048184885668419525  0.9676869574558895  1.0000
  C   C3        1.0  0.20190315173828569  0.9566726494321787  0.5593126728365692  1.0000
  C   C4        1.0  0.7983925863824339  0.043294641276951006  0.059148295979071015  1.0000
  C   C5        1.0  0.2697807252659671  0.9498304542547018  0.6894218281645694  1.0000
  C   C6        1.0  0.7305761237875217  0.05019773117550842  0.18928309804457658  1.0000
  C   C7        1.0  0.11512396026560621  0.9407298212374899  0.780568325907581  1.0000
  C   C8        1.0  0.8851546370214294  0.05893906746135263  0.2804966471945464  1.0000
  C   C9        1.0  0.13060168697376182  0.4931569599780305  0.5107728150843373  1.0000
  C   C10       1.0  0.8691473145482718  0.5067102367058355  0.011093780338129003  1.0000
  C   C11       1.0  0.3118601438607698  0.4872598691024311  0.5730317016167279  1.0000
  C   C12       1.0  0.6878346176671781  0.512712643994057  0.07317896415689523  1.0000
  C   C13       1.0  0.2912350654726125  0.4880168238430544  0.7108159457084968  1.0000
  C   C14       1.0  0.7082318954512561  0.5118928692045659  0.2109810388854215  1.0000
  C   C15       1.0  0.47719486704123437  0.5157499146040937  0.769114181181003  1.0000
  C   C16       1.0  0.5221971196369637  0.48473971700367724  0.26912690886927493  1.0000
  O   O1        1.0  0.36562350137266725  0.040089012903123916  0.3754683444505674  1.0000
  O   O2        1.0  0.6345085898277033  0.9602699734766919  0.8752783433382734  1.0000
  O   O3        1.0  0.45324766614074014  0.8547637150367682  0.4878901188509632  1.0000
  O   O4        1.0  0.5474484373974279  0.14585383563598248  0.9877295651059871  1.0000
  O   O5        1.0  0.1408120814335376  0.021546124424148206  0.8773997567125638  1.0000
  O   O6        1.0  0.8591953536853011  0.9781277720720782  0.37732958829573715  1.0000
  O   O7        1.0  0.9743604790191398  0.8505096905107836  0.7563077669790348  1.0000
  O   O8        1.0  0.026134110131628994  0.14887692242135134  0.25636245629386434  1.0000
  O   O9        1.0  0.11136643921575032  0.08365773630318071  0.5402496399604929  1.0000
  O   O10       1.0  0.8885780120653806  0.916122766321614  0.040049639612782115  1.0000
  O   O11       1.0  0.4110969555739814  0.07338942110310143  0.7160526794539807  1.0000
  O   O12       1.0  0.5890280990399077  0.9268769726586329  0.21592478256701508  1.0000
  O   O13       1.0  0.07160407055719278  0.39197193574997874  0.43344847457982655  1.0000
  O   O14       1.0  0.9279896271806011  0.6075473038716557  0.9334826534768229  1.0000
  O   O15       1.0  0.05684653407185183  0.6027618009846237  0.5443472735506207  1.0000
  O   O16       1.0  0.943047607348646  0.3972942756629224  0.04498857259907402  1.0000
  O   O17       1.0  0.533811395248577  0.408519098053681  0.8225536060738893  1.0000
  O   O18       1.0  0.4660299393242654  0.5922862796768344  0.3224168992458659  1.0000
  O   O19       1.0  0.5654664640554188  0.6493457748831023  0.7540264120784956  1.0000
  O   O20       1.0  0.43335860608850396  0.35134969298371743  0.2540727724919948  1.0000
  O   O21       1.0  0.3939868273695168  0.3608682959744273  0.5336331002372675  1.0000
  O   O22       1.0  0.6058785093186999  0.6392033374339265  0.033765867007851114  1.0000
  O   O23       1.0  0.19941832779532123  0.343496395112048  0.752966934376673  1.0000
  O   O24       1.0  0.8003821725155194  0.6563131332020193  0.2531614029683525  1.0000
  O   O25       1.0  0.25695353998908393  0.3332994059679636  0.029399245598469306  1.0000
  O   O26       1.0  0.7427380278039807  0.6666920375358956  0.5295650349914355  1.0000
