data_image0
_chemical_formula_structural       K6Cu2P2H32C20N4O24
_chemical_formula_sum              "K6 Cu2 P2 H32 C20 N4 O24"
_cell_length_a       8.314677932148147
_cell_length_b       9.730466120166179
_cell_length_c       11.994438900045612
_cell_angle_alpha    90.00021440395463
_cell_angle_beta     89.99977249268055
_cell_angle_gamma    90.00064061289251

_space_group_name_H-M_alt    "P 1"
_space_group_IT_number       1

loop_
  _space_group_symop_operation_xyz
  'x, y, z'

loop_
  _atom_site_type_symbol
  _atom_site_label
  _atom_site_symmetry_multiplicity
  _atom_site_fract_x
  _atom_site_fract_y
  _atom_site_fract_z
  _atom_site_occupancy
  K   K1        1.0  0.49998016919691673  0.856009839897538  0.49999732268064173  1.0000
  K   K2        1.0  0.9999927635900009  0.14398661620245434  1.3614492501999992e-06  1.0000
  K   K3        1.0  0.1512771163273854  0.8925814530955093  0.7298093512794352  1.0000
  K   K4        1.0  0.848723385275413  0.8925888849685749  0.2701879054268231  1.0000
  K   K5        1.0  0.6512876667253379  0.10741190961289247  0.7701903707370121  1.0000
  K   K6        1.0  0.348721894599251  0.1074112517242227  0.22979784963633415  1.0000
  Cu  Cu1       1.0  3.7908018341999996e-06  0.25214427253397526  0.5000029269979577  1.0000
  Cu  Cu2       1.0  0.4999917444251664  0.747855586303565  2.9498563662999986e-06  1.0000
  P   P1        1.0  6.2169705472999995e-06  0.6262733178520818  0.4999968210614084  1.0000
  P   P2        1.0  0.500014574841174  0.37372962418779554  7.185662908999996e-07  1.0000
  H   H1        1.0  0.392886322774352  0.348745162690534  0.6445111751312068  1.0000
  H   H2        1.0  0.6071179495520695  0.3487290805361312  0.355492779574412  1.0000
  H   H3        1.0  0.8928769718836519  0.6512772487789746  0.8555028983223705  1.0000
  H   H4        1.0  0.1071047648123056  0.6512440627357989  0.14450280195865156  1.0000
  H   H5        1.0  0.36116556841191993  0.32322996352558425  0.4987894819704762  1.0000
  H   H6        1.0  0.6388528053287673  0.3232169195239081  0.501211894657061  1.0000
  H   H7        1.0  0.8611453770520116  0.6767980409486184  0.0012195835507284995  1.0000
  H   H8        1.0  0.1388366906130472  0.6767598801012298  0.9987836924845366  1.0000
  H   H9        1.0  0.0695541908508659  0.5173800819357053  0.7121923994549701  1.0000
  H   H10       1.0  0.9304642955464216  0.5173647462838746  0.28780622747093787  1.0000
  H   H11       1.0  0.5695598837691166  0.4826412686944934  0.7878025420410139  1.0000
  H   H12       1.0  0.4304461251268208  0.48262179038568576  0.21219681391029607  1.0000
  H   H13       1.0  0.19611731271207583  0.38268324609557425  0.7594322503877463  1.0000
  H   H14       1.0  0.8038958186789245  0.38267263734453383  0.24056513684804054  1.0000
  H   H15       1.0  0.6961117974598848  0.6173506290231002  0.7405756872380848  1.0000
  H   H16       1.0  0.30388272882683504  0.6173167902727811  0.25943241192671707  1.0000
  H   H17       1.0  0.21685453916518327  0.4856098327321304  0.43608586384223696  1.0000
  H   H18       1.0  0.7831491029898813  0.48560977550432227  0.5639076650510901  1.0000
  H   H19       1.0  0.7168559313021917  0.5144023931575461  0.0639135885665354  1.0000
  H   H20       1.0  0.2831492868086372  0.5143807473246084  0.9360883642717182  1.0000
  H   H21       1.0  0.2684442915176177  0.5810703367466488  0.5591287921799689  1.0000
  H   H22       1.0  0.7315641967696962  0.5810640722023095  0.4408608558229402  1.0000
  H   H23       1.0  0.7684422557278623  0.41895293074502155  0.9408664433758812  1.0000
  H   H24       1.0  0.23156172435215444  0.41891540902265223  0.059131053150892385  1.0000
  H   H25       1.0  0.8454687895534931  0.8419199356606838  0.6090090183569288  1.0000
  H   H26       1.0  0.154517825340271  0.8419232934613631  0.3909905868241025  1.0000
  H   H27       1.0  0.3454934788093738  0.1580752987448264  0.8909968464763904  1.0000
  H   H28       1.0  0.6545275637631178  0.1580688053518031  0.1090015312116606  1.0000
  H   H29       1.0  0.8241605884922834  0.9867955984885267  0.5527273498180847  1.0000
  H   H30       1.0  0.17583632428135593  0.9868045616552338  0.44726602226426576  1.0000
  H   H31       1.0  0.32416623409657314  0.0131963473496768  0.9472752379754963  1.0000
  H   H32       1.0  0.6758288756565491  0.013192881011150301  0.05271269844154599  1.0000
  C   C1        1.0  0.30782943719152916  0.3093723926740353  0.5818488585495201  1.0000
  C   C2        1.0  0.6921779326253131  0.309363587603876  0.418149975172639  1.0000
  C   C3        1.0  0.8078238410159886  0.6906502267185033  0.918157108497681  1.0000
  C   C4        1.0  0.1921692305420208  0.6906134586010068  0.08184787671551418  1.0000
  C   C5        1.0  0.2838864024561687  0.15540743314085856  0.5951356498603175  1.0000
  C   C6        1.0  0.716126186586635  0.15539057554349262  0.40486772210066846  1.0000
  C   C7        1.0  0.783857623801829  0.8446170107796505  0.9048712159084003  1.0000
  C   C8        1.0  0.21611940432462967  0.8445897845870501  0.09513173224750908  1.0000
  C   C9        1.0  0.098853506562314  0.4079599504610342  0.7008644452422812  1.0000
  C   C10       1.0  0.9011587499573608  0.4079474681118071  0.29913135073805813  1.0000
  C   C11       1.0  0.5988473231919259  0.5920647656133298  0.7991370865310116  1.0000
  C   C12       1.0  0.40113605099298166  0.5920398137725301  0.2008642666915179  1.0000
  C   C13       1.0  0.9478394608555404  0.3265322569689105  0.7352616117962397  1.0000
  C   C14       1.0  0.05217173955871599  0.32651862622328315  0.2647389410737659  1.0000
  C   C15       1.0  0.4478234603783449  0.6734834901878344  0.7647448090678421  1.0000
  C   C16       1.0  0.5521645779431664  0.6734735138115724  0.23525845701152545  1.0000
  C   C17       1.0  0.1759737738962599  0.5156063369490269  0.5194829460908679  1.0000
  C   C18       1.0  0.8240326626592349  0.5156021755120009  0.4805106732038452  1.0000
  C   C19       1.0  0.6759699513402354  0.48440370691763956  0.9805175426774109  1.0000
  C   C20       1.0  0.3240300669490139  0.4843864185361184  0.019487654635319995  1.0000
  N   N1        1.0  0.1546333799221671  0.38680988188092874  0.5840018473583156  1.0000
  N   N2        1.0  0.8453761969408476  0.38680254331024594  0.4159930511660617  1.0000
  N   N3        1.0  0.6546183730615098  0.6132112609692227  0.916005369105008  1.0000
  N   N4        1.0  0.3453676807176649  0.613183173321566  0.08400688620213256  1.0000
  O   O1        1.0  0.1439300673484283  0.1081818215626384  0.5663432587347329  1.0000
  O   O2        1.0  0.8560783011647074  0.10817364050844697  0.43366413950256083  1.0000
  O   O3        1.0  0.6439137607297097  0.8918248303230881  0.9336639867511423  1.0000
  O   O4        1.0  0.3560614742899162  0.8917998468395963  0.0663399374176379  1.0000
  O   O5        1.0  0.39739473459859204  0.0811536465119147  0.6270976960938767  1.0000
  O   O6        1.0  0.6026217021576697  0.0811355464644237  0.3729079532134846  1.0000
  O   O7        1.0  0.8973671046658609  0.9188698360020738  0.8729080279558797  1.0000
  O   O8        1.0  0.10260126494055298  0.9188385811417276  0.12708930797052884  1.0000
  O   O9        1.0  0.8534677328223026  0.28292837105816904  0.6596324589833742  1.0000
  O   O10       1.0  0.1465392940209966  0.2829190842865684  0.3403671287542592  1.0000
  O   O11       1.0  0.35345907455118925  0.7170710510821365  0.8403742179166683  1.0000
  O   O12       1.0  0.6465138941719105  0.7170749928700956  0.1596291795797953  1.0000
  O   O13       1.0  0.9263734194882004  0.31323087321488424  0.8389071528045091  1.0000
  O   O14       1.0  0.07363520296484438  0.31320977396029537  0.16109836228472565  1.0000
  O   O15       1.0  0.42636420705783007  0.686782611718435  0.6611134995283334  1.0000
  O   O16       1.0  0.5736240037207594  0.6867733236232212  0.33890064499233563  1.0000
  O   O17       1.0  0.9685646898705257  0.7068026391529331  0.6068859973692752  1.0000
  O   O18       1.0  0.031441821064767304  0.7068027651043207  0.39310819820958887  1.0000
  O   O19       1.0  0.4685790923695947  0.2932009754743135  0.8931095288428422  1.0000
  O   O20       1.0  0.5314473108351548  0.29319739678746265  0.10688508752119219  1.0000
  O   O21       1.0  0.7782628858970497  0.9272228265088883  0.6108092389222006  1.0000
  O   O22       1.0  0.2217212273152498  0.9272309344464345  0.38918311990040877  1.0000
  O   O23       1.0  0.2782792631627443  0.072777926316455  0.8891918059706254  1.0000
  O   O24       1.0  0.7217274435035391  0.07276489512893389  0.1107979774383239  1.0000
