data_image0
_chemical_formula_structural       CdH18C26S2N4O2
_chemical_formula_sum              "Cd1 H18 C26 S2 N4 O2"
_cell_length_a       5.82690227704742
_cell_length_b       7.550607345236044
_cell_length_c       13.590285843174788
_cell_angle_alpha    104.92163703115985
_cell_angle_beta     92.73421790549413
_cell_angle_gamma    93.92729654141115

_space_group_name_H-M_alt    "P 1"
_space_group_IT_number       1

loop_
  _space_group_symop_operation_xyz
  'x, y, z'

loop_
  _atom_site_type_symbol
  _atom_site_label
  _atom_site_symmetry_multiplicity
  _atom_site_fract_x
  _atom_site_fract_y
  _atom_site_fract_z
  _atom_site_occupancy
  Cd  Cd1       1.0  9.848063299994521e-06  0.49999410829475716  0.4999989049805862  1.0000
  H   H1        1.0  0.5606671854590954  0.2549363754945944  0.35549194931547123  1.0000
  H   H2        1.0  0.439324454398509  0.7450728989506602  0.6445144319185019  1.0000
  H   H3        1.0  0.37137442182323344  0.20028537365144672  0.1803574032305093  1.0000
  H   H4        1.0  0.6286206877830266  0.799706071791995  0.8196325116110189  1.0000
  H   H5        1.0  0.9846521425068672  0.4687860411487534  0.09773240977239787  1.0000
  H   H6        1.0  0.015348657307207195  0.5312122259187575  0.902271128349767  1.0000
  H   H7        1.0  0.14122026364245235  0.5233141932369065  0.2780893106698343  1.0000
  H   H8        1.0  0.8587723539862179  0.4766868626922759  0.7219070803556065  1.0000
  H   H9        1.0  0.9569604393945069  0.14482018011572964  0.007494524659293197  1.0000
  H   H10       1.0  0.04302665948773671  0.8551616140516529  0.9925011733090798  1.0000
  H   H11       1.0  0.14654054232961033  0.004277257572354599  0.8507645052549648  1.0000
  H   H12       1.0  0.8534523380599737  0.9956935473914683  0.1492245945290165  1.0000
  H   H13       1.0  0.9625306401326339  0.9979070220218491  0.6803189520279603  1.0000
  H   H14       1.0  0.037458733885571895  0.0020954245392630004  0.319674620431897  1.0000
  H   H15       1.0  0.5870150978850075  0.1284356913261746  0.6679096105883104  1.0000
  H   H16       1.0  0.4129831159296415  0.8715859839299116  0.3320920857087728  1.0000
  H   H17       1.0  0.39669084242113684  0.27318683429145096  0.8264155873859309  1.0000
  H   H18       1.0  0.6033141312109436  0.7268334679008535  0.17358386085113153  1.0000
  C   C1        1.0  0.48563294261721507  0.29505506608318643  0.5356165448344115  1.0000
  C   C2        1.0  0.5143898551122844  0.7049569148080296  0.46439462912309887  1.0000
  C   C3        1.0  0.6481488426189869  0.3011823918399585  0.29642206671346116  1.0000
  C   C4        1.0  0.3518449850994329  0.6988145182684847  0.7035781707471642  1.0000
  C   C5        1.0  0.5436894185243233  0.2702289418066641  0.19869766445928863  1.0000
  C   C6        1.0  0.4563075638851828  0.7297652171262146  0.801301514493872  1.0000
  C   C7        1.0  0.6633321372927409  0.32800308926383087  0.12411817150553621  1.0000
  C   C8        1.0  0.33666299235398606  0.6719896988520803  0.8758800312581414  1.0000
  C   C9        1.0  0.8835162151752557  0.41941104204988017  0.15202287870782527  1.0000
  C   C10       1.0  0.11647729694656307  0.5805831112289751  0.8479784263048841  1.0000
  C   C11       1.0  0.972969347300676  0.4489448142787398  0.2524039739332054  1.0000
  C   C12       1.0  0.027018910649601907  0.55104798040027  0.7475940701004689  1.0000
  C   C13       1.0  0.5431057117902824  0.2969560172800385  0.019921929122553205  1.0000
  C   C14       1.0  0.45690175892183754  0.7030395161800486  0.9800754838665425  1.0000
  C   C15       1.0  0.6647768501304582  0.21949014242613174  0.9273891156535329  1.0000
  C   C16       1.0  0.3352177091803695  0.7805136448636601  0.07261212863445367  1.0000
  C   C17       1.0  0.8753886201590572  0.14214745146140467  0.9334903830730353  1.0000
  C   C18       1.0  0.12460108603800528  0.8578425966613425  0.06650582762915754  1.0000
  C   C19       1.0  0.9822073853440968  0.0626358210124422  0.8450484755407857  1.0000
  C   C20       1.0  0.017780456610367385  0.9373528533148132  0.15494749411343628  1.0000
  C   C21       1.0  0.8796213180989908  0.059429790683495305  0.749738748930433  1.0000
  C   C22       1.0  0.1203641007568024  0.9405685120006739  0.2502592860586148  1.0000
  C   C23       1.0  0.6677644264046947  0.13416367019988942  0.7426870738132365  1.0000
  C   C24       1.0  0.3322357026742749  0.8658442325193293  0.2573163639017011  1.0000
  C   C25       1.0  0.5611607573312013  0.21421513972128284  0.8306715737500242  1.0000
  C   C26       1.0  0.43884268423715156  0.7857913902371648  0.16933027168141015  1.0000
  S   S1        1.0  0.22718965394329158  0.1913326820213683  0.518852511865596  1.0000
  S   S2        1.0  0.7728386676350778  0.8086834023851708  0.4811637960849282  1.0000
  N   N1        1.0  0.6746120525259655  0.36964840310793073  0.5500007392382713  1.0000
  N   N2        1.0  0.3254094088357675  0.6303676908402379  0.45001467484073027  1.0000
  N   N3        1.0  0.8591391016743014  0.3898866088279079  0.3233560759505067  1.0000
  N   N4        1.0  0.1408515943126716  0.6101130584131483  0.676643749734545  1.0000
  O   O1        1.0  0.33972237518522513  0.33341492367921444  0.014940913774005103  1.0000
  O   O2        1.0  0.6602706584392448  0.666590252601722  0.9850575516308879  1.0000
