data_image0
_chemical_formula_structural       Zr6H24C50Cl5O32F
_chemical_formula_sum              "Zr6 H24 C50 Cl5 O32 F1"
_cell_length_a       14.787922852270173
_cell_length_b       14.790065513560947
_cell_length_c       14.817564767851657
_cell_angle_alpha    60.16726758709941
_cell_angle_beta     59.934060228258154
_cell_angle_gamma    60.11327844585682

_space_group_name_H-M_alt    "P 1"
_space_group_IT_number       1

loop_
  _space_group_symop_operation_xyz
  'x, y, z'

loop_
  _atom_site_type_symbol
  _atom_site_label
  _atom_site_symmetry_multiplicity
  _atom_site_fract_x
  _atom_site_fract_y
  _atom_site_fract_z
  _atom_site_occupancy
  Zr  Zr1       1.0  0.8784916320536879  0.8826335188908274  0.6177148232494006  1.0000
  Zr  Zr2       1.0  0.12087047377013249  0.11785879558865991  0.3818227273052628  1.0000
  Zr  Zr3       1.0  0.11676985341456021  0.8801239711206104  0.620163365318632  1.0000
  Zr  Zr4       1.0  0.8810158932920726  0.12081345785379242  0.37906515373448  1.0000
  Zr  Zr5       1.0  0.11874222861354167  0.8817852125722468  0.3789092267793421  1.0000
  Zr  Zr6       1.0  0.8795997956076105  0.12157836594509062  0.6177199638991198  1.0000
  H   H1        1.0  0.09109287316690032  0.719030979468016  0.5932635843446479  1.0000
  H   H2        1.0  0.09599034321618659  0.09376045938183347  0.21765851982445378  1.0000
  H   H3        1.0  0.09342742682968463  0.09280938659037463  0.5949816105769371  1.0000
  H   H4        1.0  0.7164520652319833  0.09662842049608857  0.5921290915681325  1.0000
  H   H5        1.0  0.8482153889703309  0.5868981751471195  0.6390782713107795  1.0000
  H   H6        1.0  0.14343464572743145  0.5922367163892162  0.3537724312566296  1.0000
  H   H7        1.0  0.8578473041651477  0.41535203404835386  0.6329783109010307  1.0000
  H   H8        1.0  0.5862945645342275  0.8497904526515684  0.9239134256494878  1.0000
  H   H9        1.0  0.5968341876347267  0.13890141695279115  0.9157590056636097  1.0000
  H   H10       1.0  0.4182893398140306  0.8552416023445842  0.09564689284363237  1.0000
  H   H11       1.0  0.1391369206696637  0.8519511610854096  0.08319450162523619  1.0000
  H   H12       1.0  0.8496841772145911  0.14197019502100255  0.09429761218413545  1.0000
  H   H13       1.0  0.13074305363792155  0.8595731932604024  0.9142201808419798  1.0000
  H   H14       1.0  0.5865874585895624  0.42888741421255355  0.6356621891118763  1.0000
  H   H15       1.0  0.5938481581106954  0.4139088944087347  0.34989812281432353  1.0000
  H   H16       1.0  0.4163829931683835  0.5975227150011548  0.6286468038229814  1.0000
  H   H17       1.0  0.13799071478833  0.5929454654797581  0.9176268886053621  1.0000
  H   H18       1.0  0.7394703067394913  0.6240409708065966  0.9658341915641132  1.0000
  H   H19       1.0  0.8270795347428075  0.5393308378316702  0.8800742845371444  1.0000
  H   H20       1.0  0.8327448744616602  0.369085825651993  0.049482523568436014  1.0000
  H   H21       1.0  0.745171234385154  0.45376795286181687  0.13520174360119355  1.0000
  H   H22       1.0  0.5839142013459407  0.1393915177244409  0.34859677905627956  1.0000
  H   H23       1.0  0.5952779798210414  0.8523855353525035  0.6397375393241733  1.0000
  H   H24       1.0  0.4143948398295692  0.12902918431196037  0.3589107874371322  1.0000
  C   C1        1.0  0.9932751103987979  0.7017014327414871  0.4964268684376448  1.0000
  C   C2        1.0  0.309216460741254  0.9976284635525513  0.20109614706812812  1.0000
  C   C3        1.0  0.0013576293117054333  0.3060603652101861  0.49449028422838387  1.0000
  C   C4        1.0  0.6987937275706666  0.9969207559780457  0.8055851700806685  1.0000
  C   C5        1.0  0.993138582049255  0.7019054958686012  0.8059060838871017  1.0000
  C   C6        1.0  0.6994201616591194  0.9994605311767085  0.4929216076085723  1.0000
  C   C7        1.0  0.9989233140249423  0.3056734339615017  0.2006570514684397  1.0000
  C   C8        1.0  0.30667537857217303  0.9898361011244245  0.5027038529768361  1.0000
  C   C9        1.0  0.30560715228192226  0.6999464365349579  0.49234247249051316  1.0000
  C   C10       1.0  0.9904697022232866  0.000744925255624139  0.8072871945994252  1.0000
  C   C11       1.0  0.7004619154600247  0.3096720635575068  0.4949239299253633  1.0000
  C   C12       1.0  0.9972811666561437  0.9967275647192364  0.1983750070652659  1.0000
  C   C13       1.0  0.004324818537277601  0.40764466539605587  0.4907116392079516  1.0000
  C   C14       1.0  0.9951898611223551  0.5999747665126732  0.4958744945451058  1.0000
  C   C15       1.0  0.08612170977449536  0.4581638084165576  0.4113933110429429  1.0000
  C   C16       1.0  0.9141484091657684  0.550404312349265  0.5757124377701787  1.0000
  C   C17       1.0  0.08048583520194093  0.5535357318164029  0.4147467236281557  1.0000
  C   C18       1.0  0.9195730987396967  0.4557911407096427  0.5721650462674432  1.0000
  C   C19       1.0  0.4119795867377502  0.9998375640824405  0.10147545631100026  1.0000
  C   C20       1.0  0.6007840551916815  0.9948688423399616  0.9095187137847701  1.0000
  C   C21       1.0  0.46366353487371004  0.08039029676780268  0.0501634540652987  1.0000
  C   C22       1.0  0.5515200631588397  0.9136399222757772  0.9600466849316407  1.0000
  C   C23       1.0  0.5572742666625315  0.07686293804804462  0.9552472560989856  1.0000
  C   C24       1.0  0.4587109742871859  0.9169214610783385  0.054645700322623655  1.0000
  C   C25       1.0  0.9866725565913652  0.0037770249898298708  0.9088818826297569  1.0000
  C   C26       1.0  0.9946106620246976  0.9968957087154705  0.09865537044822037  1.0000
  C   C27       1.0  0.9068060810779168  0.0843466766566721  0.9606958903706869  1.0000
  C   C28       1.0  0.07444901821806829  0.9164539037189671  0.048443657285844176  1.0000
  C   C29       1.0  0.9114277221684828  0.07996243015060152  0.05462097806017845  1.0000
  C   C30       1.0  0.06955326364049322  0.9207770085494573  0.9551901229257495  1.0000
  C   C31       1.0  0.40866633919095097  0.6006003926398549  0.48688947600295035  1.0000
  C   C32       1.0  0.6003164544856572  0.41154433047858424  0.4927639929443971  1.0000
  C   C33       1.0  0.4602285132349664  0.547978639832813  0.4071685047992375  1.0000
  C   C34       1.0  0.5507572544451091  0.46291509520364127  0.5720256297968617  1.0000
  C   C35       1.0  0.5549510094626054  0.4545695639764205  0.41089271861051907  1.0000
  C   C36       1.0  0.4566107213834272  0.5559166270306976  0.5681138241900712  1.0000
  C   C37       1.0  0.9925572951627402  0.6025416284014183  0.9067758566317606  1.0000
  C   C38       1.0  0.998019021864145  0.40676931473838335  0.1014873733589425  1.0000
  C   C39       1.0  0.9145389332570629  0.5498332427018865  0.9581969361735078  1.0000
  C   C40       1.0  0.0765096546000662  0.4616388358642354  0.04764016085479031  1.0000
  C   C41       1.0  0.9178225302207322  0.45561973741450146  0.05192097631505989  1.0000
  C   C42       1.0  0.07456097488967814  0.5556589017533611  0.9543268093970878  1.0000
  C   C43       1.0  0.8134948181958989  0.5513602820205035  0.9539272701224063  1.0000
  C   C44       1.0  0.8170622027108932  0.4446390594837269  0.06011811898104477  1.0000
  C   C45       1.0  0.40894818281572043  0.986339260519614  0.5041360273999234  1.0000
  C   C46       1.0  0.5994838216275366  0.9960863447247943  0.4939936387631576  1.0000
  C   C47       1.0  0.4610728268083548  0.9074509404217252  0.5840266053189539  1.0000
  C   C48       1.0  0.5491505309631107  0.07476701465905926  0.41396490308935796  1.0000
  C   C49       1.0  0.555396815565551  0.9129809629426545  0.5781100375998564  1.0000
  C   C50       1.0  0.4554398993252207  0.06898743627940725  0.4198297327155204  1.0000
  Cl  Cl1       1.0  0.1968938243327613  0.41045662111360304  0.3064556866966868  1.0000
  Cl  Cl2       1.0  0.4185666425834852  0.18806372592477047  0.09552529278174399  1.0000
  Cl  Cl3       1.0  0.7992538931417668  0.19297589367013765  0.915913602065544  1.0000
  Cl  Cl4       1.0  0.4138150703637322  0.5902727074103494  0.3012094723227534  1.0000
  Cl  Cl5       1.0  0.4157171458712554  0.800415937713815  0.6935979771165676  1.0000
  O   O1        1.0  0.9168331922083224  0.7395458155174879  0.5744554622673448  1.0000
  O   O2        1.0  0.26695795027114133  0.07223535668153858  0.2439642446531849  1.0000
  O   O3        1.0  0.07839977589071617  0.2616970149246071  0.42158152814351985  1.0000
  O   O4        1.0  0.7354498963501965  0.9217686765551677  0.7648335556926328  1.0000
  O   O5        1.0  0.07121715075356148  0.7404173739484958  0.7654038323463084  1.0000
  O   O6        1.0  0.7367857923660137  0.07781809262210986  0.41732811617700344  1.0000
  O   O7        1.0  0.9221319680742467  0.2664954375894337  0.23714748769162938  1.0000
  O   O8        1.0  0.2630845710002634  0.9158672472930005  0.5786169677637788  1.0000
  O   O9        1.0  0.2631822346272725  0.7417719640671834  0.41770047330077636  1.0000
  O   O10       1.0  0.9172462219193134  0.07741473680578541  0.7635790920421357  1.0000
  O   O11       1.0  0.7376691038765271  0.27014104401926164  0.5731298609391332  1.0000
  O   O12       1.0  0.07567170207756385  0.9209877848246889  0.23534469270732938  1.0000
  O   O13       1.0  0.06779212034634705  0.9224585861629039  0.770377733958874  1.0000
  O   O14       1.0  0.7399958571435262  0.268963764562528  0.4190886051797589  1.0000
  O   O15       1.0  0.9214839725586045  0.07376231808663641  0.23793298916762495  1.0000
  O   O16       1.0  0.266347059258848  0.7351418939505976  0.5721536439323672  1.0000
  O   O17       1.0  0.9168726675823887  0.740135045890888  0.7664502286618315  1.0000
  O   O18       1.0  0.26895525146046845  0.06811151656430071  0.42596443892713154  1.0000
  O   O19       1.0  0.0747478060421542  0.26452867426385035  0.24121865179415644  1.0000
  O   O20       1.0  0.7386681173101121  0.9237789663883902  0.569750344770583  1.0000
  O   O21       1.0  0.7371525499268757  0.07488625415084023  0.7644479355387402  1.0000
  O   O22       1.0  0.06951047894320764  0.7419737636804699  0.419609776192395  1.0000
  O   O23       1.0  0.2694379631883308  0.9223146124094938  0.23556929810175126  1.0000
  O   O24       1.0  0.922275342370483  0.26976279843743345  0.5713213414228306  1.0000
  O   O25       1.0  0.7967455629490628  0.06981129587869365  0.5652957153043162  1.0000
  O   O26       1.0  0.06636696678742035  0.06636782358305739  0.5682115473838394  1.0000
  O   O27       1.0  0.06821405737585451  0.06689464311805439  0.2977367544174783  1.0000
  O   O28       1.0  0.06461799594210756  0.7991220599673808  0.566502348416627  1.0000
  O   O29       1.0  0.14768700166919727  0.9494225575794814  0.4511843949264644  1.0000
  O   O30       1.0  0.9493288774706272  0.951893488056676  0.4488712549215493  1.0000
  O   O31       1.0  0.9506967905683009  0.1490600130821846  0.44979073575627365  1.0000
  O   O32       1.0  0.9478772870918062  0.9519951284832117  0.6479439721923015  1.0000
  F   F1        1.0  0.1597010838841228  0.4227256764659586  0.08611407341361843  1.0000
