data_image0
_chemical_formula_structural       Zn4H23C65N21O5
_chemical_formula_sum              "Zn4 H23 C65 N21 O5"
_cell_length_a       18.49549018974421
_cell_length_b       20.332755046072936
_cell_length_c       19.260688568360028
_cell_angle_alpha    104.45967450427993
_cell_angle_beta     107.88015101214306
_cell_angle_gamma    112.43303646094009

_space_group_name_H-M_alt    "P 1"
_space_group_IT_number       1

loop_
  _space_group_symop_operation_xyz
  'x, y, z'

loop_
  _atom_site_type_symbol
  _atom_site_label
  _atom_site_symmetry_multiplicity
  _atom_site_fract_x
  _atom_site_fract_y
  _atom_site_fract_z
  _atom_site_occupancy
  Zn  Zn1       1.0  0.10615102320705462  0.5063074865582777  0.1001614451314481  1.0000
  Zn  Zn2       1.0  0.8757240918759095  0.4986949812943777  0.8776688433736198  1.0000
  Zn  Zn3       1.0  0.8858245289458325  0.39097576419955266  0.9846755202325782  1.0000
  Zn  Zn4       1.0  0.10228630752941847  0.6096732986739755  0.9965872760565875  1.0000
  H   H1        1.0  0.1455905844719609  0.36978911597995534  0.12388999177090908  1.0000
  H   H2        1.0  0.5385490138736274  0.001988233513550663  0.3203768980263818  1.0000
  H   H3        1.0  0.09826806186093513  0.996106672441357  0.13556261111828866  1.0000
  H   H4        1.0  0.8022098300638306  0.23124029425259368  0.8295462205955887  1.0000
  H   H5        1.0  0.3210127043187684  0.6743683765607501  0.01442694531134957  1.0000
  H   H6        1.0  0.7131425150471529  0.3533604282901877  0.7008100672758459  1.0000
  H   H7        1.0  0.2660899981906866  0.4824775105309982  0.08722595609579298  1.0000
  H   H8        1.0  0.1530026705504498  0.5006805594225697  0.8927887667354001  1.0000
  H   H9        1.0  0.873120973934853  0.22766837881898985  0.9478479619779421  1.0000
  H   H10       1.0  0.25954040857943284  0.6501685584960414  0.27459525006306523  1.0000
  H   H11       1.0  0.8205972891038087  0.28492469922534985  0.15558142249469864  1.0000
  H   H12       1.0  0.8047114253782867  0.5991853043308168  0.96871823860112  1.0000
  H   H13       1.0  0.7929939683912579  0.24130399992613868  0.3829808795478798  1.0000
  H   H14       1.0  0.21252604965293656  0.47257079338626107  0.6066638499643987  1.0000
  H   H15       1.0  0.4436049334552621  0.8313537951582077  0.4256403525130353  1.0000
  H   H16       1.0  0.12248226405488082  0.18329027786811034  0.16457745082360734  1.0000
  H   H17       1.0  0.10076474700782968  0.7688713376987053  0.06007064150015409  1.0000
  H   H18       1.0  0.21673055494527205  0.7791036373144352  0.1331484159162529  1.0000
  H   H19       1.0  0.8386927405639568  0.47214349229277264  0.11473152617601565  1.0000
  H   H20       1.0  0.8773931658824595  0.28034322372356985  0.5153807215644904  1.0000
  H   H21       1.0  0.12882092489892463  0.43359034425080983  0.47221220874397574  1.0000
  H   H22       1.0  0.8777250471545983  0.3874985233655722  0.7298625416095775  1.0000
  H   H23       1.0  0.6088196190873489  0.007840069719335919  0.5936875808964288  1.0000
  C   C1        1.0  0.08000644715281169  0.34614890454179914  0.07720350333877948  1.0000
  C   C2        1.0  0.042742160069124666  0.4643914263118917  0.22120170695871622  1.0000
  C   C3        1.0  0.21194402280840308  0.7356772879332993  0.15742425939319557  1.0000
  C   C4        1.0  0.9421164403419909  0.42188470271169365  0.7807312739702114  1.0000
  C   C5        1.0  0.8385171998672618  0.49899379688191914  0.07269016422484514  1.0000
  C   C6        1.0  0.2740470092861785  0.7439977957865481  0.22811835334368905  1.0000
  C   C7        1.0  0.8030054126877747  0.5473955202234679  0.05891267622948979  1.0000
  C   C8        1.0  0.9763555089525939  0.402434410729633  0.2248356235244062  1.0000
  C   C9        1.0  0.9664622833278925  0.7359818473222718  0.9747940041642453  1.0000
  C   C10       1.0  0.4114700479168861  0.5885358190697474  0.06759195120694282  1.0000
  C   C11       1.0  0.4822008411895311  0.5915079861323207  0.0798447122368132  1.0000
  C   C12       1.0  0.02134289033742947  0.4268406185176873  0.7844397478814217  1.0000
  C   C13       1.0  0.5574500371173414  0.5919348299479665  0.09064896640068558  1.0000
  C   C14       1.0  0.6244918878136474  0.5886083063131693  0.09739460204419009  1.0000
  C   C15       1.0  0.6923619682633487  0.5800598260143843  0.09590208799759388  1.0000
  C   C16       1.0  0.7860189450574993  0.2721121552240079  0.8112199806701241  1.0000
  C   C17       1.0  0.7494918519820005  0.5670462332968356  0.08721799585484305  1.0000
  C   C18       1.0  0.917744031289672  0.30977123987138816  0.42880950145341507  1.0000
  C   C19       1.0  0.9894320039711817  0.35540994772799195  0.4172200909023759  1.0000
  C   C20       1.0  0.07446817261674715  0.39887993971900937  0.48223702057359225  1.0000
  C   C21       1.0  0.0888015863138349  0.40088617695903395  0.5579038489671859  1.0000
  C   C22       1.0  0.016680241373180096  0.35920281934392045  0.5709365994350506  1.0000
  C   C23       1.0  0.7434240431820102  0.2642644840862049  0.7326853859894841  1.0000
  C   C24       1.0  0.9326443884811086  0.31246901082526807  0.5052273753067099  1.0000
  C   C25       1.0  0.9786824784800247  0.36387423449088635  0.3450171493195456  1.0000
  C   C26       1.0  0.026393276959190446  0.37254864845677105  0.6495549725536733  1.0000
  C   C27       1.0  0.030745847253363826  0.39398562908858287  0.716573793153927  1.0000
  C   C28       1.0  0.2939598527404926  0.6271119657938726  0.031656187938821856  1.0000
  C   C29       1.0  0.977269334251865  0.3805138974569218  0.28800905072405675  1.0000
  C   C30       1.0  0.5950492472167355  0.00702450109741904  0.5342397776713952  1.0000
  C   C31       1.0  0.6372358197686696  0.0766684485026446  0.5263878354721784  1.0000
  C   C32       1.0  0.62048740170097  0.0727712540846498  0.44751466522126293  1.0000
  C   C33       1.0  0.5537889117924308  0.003296423665751974  0.38016763191775027  1.0000
  C   C34       1.0  0.3302114706434196  0.5820199000331029  0.05594660339281193  1.0000
  C   C35       1.0  0.5049506795096974  0.936372974693235  0.38876929476197836  1.0000
  C   C36       1.0  0.5307023495596965  0.9378010260317424  0.4671985238048677  1.0000
  C   C37       1.0  0.6868160354971308  0.14771093708881006  0.5964151213508018  1.0000
  C   C38       1.0  0.42824224530331617  0.8686504987663852  0.32601753455551113  1.0000
  C   C39       1.0  0.35629490592095453  0.8100444259453355  0.28225474591804567  1.0000
  C   C40       1.0  0.7404235514910554  0.3344510780978284  0.7451707751501432  1.0000
  C   C41       1.0  0.7134558928332099  0.20207486881946582  0.6598253486096226  1.0000
  C   C42       1.0  0.03938416684688661  0.000194490819652111  0.1117674047304362  1.0000
  C   C43       1.0  0.9572444314882349  0.9316734527125379  0.06467584704811492  1.0000
  C   C44       1.0  0.880411460996868  0.9381147499695857  0.03794993536764943  1.0000
  C   C45       1.0  0.2354776698649916  0.6700183989650627  0.22980538908205975  1.0000
  C   C46       1.0  0.8889624151308412  0.012443827229546392  0.04857598576442973  1.0000
  C   C47       1.0  0.9728708049649768  0.08015513089978296  0.08615569090071061  1.0000
  C   C48       1.0  0.04742742584888762  0.07337433058391703  0.1231633404222805  1.0000
  C   C49       1.0  0.953547412817322  0.8586366351046949  0.03798661931575968  1.0000
  C   C50       1.0  0.9850494634156279  0.15105912401469374  0.08102502787511418  1.0000
  C   C51       1.0  0.9983214320211005  0.20820404815174234  0.06556593364703645  1.0000
  C   C52       1.0  0.2653238811637094  0.5284065761874999  0.06844941506086143  1.0000
  C   C53       1.0  0.9570334691746608  0.8002951941228034  0.007271723703439683  1.0000
  C   C54       1.0  0.08336532050577716  0.4798108227218948  0.8639476695802557  1.0000
  C   C55       1.0  0.9406852719471106  0.2737141779853617  0.9863863471840945  1.0000
  C   C56       1.0  0.8220219375410738  0.564538876241443  0.9979426645036898  1.0000
  C   C57       1.0  0.006647158926668279  0.27088045230226493  0.04447883223852504  1.0000
  C   C58       1.0  0.8207230430060479  0.6377424048064172  0.8494195839120523  1.0000
  C   C59       1.0  0.13070620767204835  0.5154864178516546  0.27908909592447634  1.0000
  C   C60       1.0  0.6703497632156754  0.13743083113895696  0.43463994976830383  1.0000
  C   C61       1.0  0.7962569442923453  0.8701004981303343  0.9983626641739749  1.0000
  C   C62       1.0  0.8140713725536558  0.021071820367239955  0.01856064109325223  1.0000
  C   C63       1.0  0.9063215385732878  0.36716502825597525  0.14710545496664915  1.0000
  C   C64       1.0  0.04001367081365714  0.7274471179805745  0.006266654881152157  1.0000
  C   C65       1.0  0.9072026290505237  0.6645223277622281  0.9052922549367183  1.0000
  N   N1        1.0  0.05808903872018335  0.3895804663280842  0.04217263736605053  1.0000
  N   N2        1.0  0.8069826806489859  0.3411146274029665  0.8651474567386546  1.0000
  N   N3        1.0  0.215388490941919  0.6025681113387407  0.03128523952027261  1.0000
  N   N4        1.0  0.7788512484399421  0.38039415601160453  0.8240495699809998  1.0000
  N   N5        1.0  0.1974988998269609  0.5415547560453363  0.05377180383629823  1.0000
  N   N6        1.0  0.04354332151555703  0.5055618303730399  0.903606593970686  1.0000
  N   N7        1.0  0.9716962787712407  0.34530573123455366  0.9860598439733581  1.0000
  N   N8        1.0  0.15777179552046053  0.6222941088841055  0.16456543003933186  1.0000
  N   N9        1.0  0.7484299702077452  0.6131130743423371  0.8031682805662541  1.0000
  N   N10       1.0  0.20488462949261796  0.5563961440433047  0.3248761130989522  1.0000
  N   N11       1.0  0.7115317849574441  0.18734158676663537  0.4202478443692997  1.0000
  N   N12       1.0  0.8638925695437507  0.5279954900263562  0.9769548723579363  1.0000
  N   N13       1.0  0.7271660601500332  0.8141192224166435  0.9671153327263654  1.0000
  N   N14       1.0  0.7546477551570876  0.03115704786743854  0.9954658886912571  1.0000
  N   N15       1.0  0.9292736366945461  0.40467720844818444  0.1026705461788212  1.0000
  N   N16       1.0  0.025527192213012122  0.6574254800494901  0.9606353632250234  1.0000
  N   N17       1.0  0.9433044600124918  0.6176381229915437  0.8979262361957084  1.0000
  N   N18       1.0  0.013236065566609187  0.46535642246495723  0.14760848157804674  1.0000
  N   N19       1.0  0.1426590652240023  0.6623381797566594  0.1190922235701636  1.0000
  N   N20       1.0  0.873998277392019  0.48727613426948574  0.022276693018262995  1.0000
  N   N21       1.0  0.9567696227711342  0.46936512754626875  0.8518430129510012  1.0000
  O   O1        1.0  0.8254303639342737  0.30527234096676636  0.11529203641564587  1.0000
  O   O2        1.0  0.83663447555454  0.2673168560506411  0.36534191081294415  1.0000
  O   O3        1.0  0.16977452893522854  0.44450890857888237  0.6229825417838414  1.0000
  O   O4        1.0  0.48990704916566596  0.8732603217970621  0.4783462078985892  1.0000
  O   O5        1.0  0.12821812307757346  0.13746176210986505  0.16559099915480863  1.0000
