data_image0
_chemical_formula_structural       Cd4H40C64N16O16
_chemical_formula_sum              "Cd4 H40 C64 N16 O16"
_cell_length_a       11.759687626636639
_cell_length_b       11.744153058043613
_cell_length_c       14.893
_cell_angle_alpha    79.16545424962001
_cell_angle_beta     79.1799394258359
_cell_angle_gamma    60.39751023139894

_space_group_name_H-M_alt    "P 1"
_space_group_IT_number       1

loop_
  _space_group_symop_operation_xyz
  'x, y, z'

loop_
  _atom_site_type_symbol
  _atom_site_label
  _atom_site_symmetry_multiplicity
  _atom_site_fract_x
  _atom_site_fract_y
  _atom_site_fract_z
  _atom_site_occupancy
  Cd  Cd1       1.0  0.7067717457257743  0.36205749260359704  0.06351865049060021  1.0000
  Cd  Cd2       1.0  0.3620589875758498  0.7068073285652332  0.5634507090008827  1.0000
  Cd  Cd3       1.0  0.13169620615422423  0.7483780276362424  0.830990862970957  1.0000
  Cd  Cd4       1.0  0.7483098501813429  0.13152951841949087  0.3311230382240283  1.0000
  H   H1        1.0  0.6921145547963048  0.5880779668457592  0.5136513658193921  1.0000
  H   H2        1.0  0.5880898691903124  0.6921939230910255  0.013623736184626999  1.0000
  H   H3        1.0  0.8963673025933331  0.4990435101876045  0.5966309705105033  1.0000
  H   H4        1.0  0.4988689421377116  0.8968170763363971  0.09654988937600002  1.0000
  H   H5        1.0  0.3206117648634219  0.678430970710366  0.006833629716958003  1.0000
  H   H6        1.0  0.6782487435139471  0.3209154691938778  0.5068975408358513  1.0000
  H   H7        1.0  0.277824472011204  0.784970176268537  0.15361278200524714  1.0000
  H   H8        1.0  0.7847363783878619  0.2781385655035109  0.6536445244487228  1.0000
  H   H9        1.0  0.8329128466309826  0.5575503469941125  0.047745743529524994  1.0000
  H   H10       1.0  0.5573308059744164  0.8325334654460049  0.5476727008027283  1.0000
  H   H11       1.0  0.039878547403347384  0.5563500551425021  0.062950493473835  1.0000
  H   H12       1.0  0.556032994674723  0.0398589528097162  0.5629923383907071  1.0000
  H   H13       1.0  0.22280800116958227  0.1303282411065823  0.10686026743527322  1.0000
  H   H14       1.0  0.13062985950601558  0.2228541871163543  0.6069040591900148  1.0000
  H   H15       1.0  0.007158866746486586  0.15028481769692797  0.0893049685529803  1.0000
  H   H16       1.0  0.15064365415917538  0.006836144970975499  0.5892324696325987  1.0000
  H   H17       1.0  0.18898244634196704  0.5173248025843975  0.15914477810667194  1.0000
  H   H18       1.0  0.5171702189014269  0.18886168536793235  0.6591419477911771  1.0000
  H   H19       1.0  0.40304647252454356  0.5136066571360088  0.15387535872508104  1.0000
  H   H20       1.0  0.5133865135382507  0.4033394515165368  0.6537766015446638  1.0000
  H   H21       1.0  0.607916339942811  0.166049241958234  0.03190635339092299  1.0000
  H   H22       1.0  0.16610975844735523  0.6084119751102932  0.5318877033650367  1.0000
  H   H23       1.0  0.40202407486550834  0.15496575882596628  0.03155138743309041  1.0000
  H   H24       1.0  0.15513405787215354  0.40209185752298987  0.5316587417869343  1.0000
  H   H25       1.0  0.9423457436532984  0.0562304212258624  0.8294872251510412  1.0000
  H   H26       1.0  0.0565695896131545  0.9419758399654724  0.3295300540600651  1.0000
  H   H27       1.0  0.936758284666915  0.26349953803575227  0.8454745741744321  1.0000
  H   H28       1.0  0.2634695075785059  0.9364799223493421  0.3454450841325213  1.0000
  H   H29       1.0  0.36357263976109516  0.04955293552263379  0.8272925610192277  1.0000
  H   H30       1.0  0.04960059244646686  0.3638559594584335  0.3272790875297319  1.0000
  H   H31       1.0  0.3489817632466623  0.8498223983234467  0.8175546848156473  1.0000
  H   H32       1.0  0.8502598031363178  0.3491380950874543  0.31756202201437844  1.0000
  H   H33       1.0  0.9469977569249294  0.4311747911230199  0.8181085116937369  1.0000
  H   H34       1.0  0.43103971536540064  0.9468292368203208  0.3181044974044412  1.0000
  H   H35       1.0  0.9548348154399804  0.6347513844780649  0.8272937219447343  1.0000
  H   H36       1.0  0.6342299326100616  0.9547237672171034  0.32726258657077534  1.0000
  H   H37       1.0  0.3491661756009065  0.4285081328714071  0.867869064215377  1.0000
  H   H38       1.0  0.42819523429319156  0.3495204540680987  0.36789918911774333  1.0000
  H   H39       1.0  0.3594327394098045  0.21356522899376526  0.8629426854852582  1.0000
  H   H40       1.0  0.21364701129265726  0.3597465858777866  0.36294715831749613  1.0000
  C   C1        1.0  0.6829071731044181  0.46890317662305847  0.8757929893268753  1.0000
  C   C2        1.0  0.46893753633686686  0.6829246741942399  0.3757430002453221  1.0000
  C   C3        1.0  0.6786071890913874  0.5106315495005161  0.7734129089553434  1.0000
  C   C4        1.0  0.5106050135232181  0.6786753651103651  0.2733731638308115  1.0000
  C   C5        1.0  0.5638441213478699  0.5722337202199341  0.7284298608563307  1.0000
  C   C6        1.0  0.5722857468030326  0.5637577676618619  0.22843293479503055  1.0000
  C   C7        1.0  0.6900951740183601  0.567137899887676  0.5882995258427287  1.0000
  C   C8        1.0  0.5671237273136995  0.6902141313587649  0.08826855009556311  1.0000
  C   C9        1.0  0.801500243438191  0.5149636373327837  0.6343750420633043  1.0000
  C   C10       1.0  0.5148339359701238  0.8017929859556574  0.13431864455958487  1.0000
  C   C11       1.0  0.4280356714036842  0.616882014900625  0.7806647528967618  1.0000
  C   C12       1.0  0.6170422864492835  0.427777906055276  0.2806906191653056  1.0000
  C   C13       1.0  0.8481301285873213  0.0402541227871396  0.12341380584894075  1.0000
  C   C14       1.0  0.040363798740756414  0.8480534953073117  0.623347805400684  1.0000
  C   C15       1.0  0.9772583820038676  0.9202917497331952  0.09936797855895929  1.0000
  C   C16       1.0  0.9203941174603469  0.9772139647848661  0.5993036576724863  1.0000
  C   C17       1.0  0.9981920848057938  0.8505989418202233  0.025044478448307945  1.0000
  C   C18       1.0  0.8507492392928027  0.998060412920367  0.5250054589317585  1.0000
  C   C19       1.0  0.2221215485324634  0.7441444859330132  0.0370295283001667  1.0000
  C   C20       1.0  0.7440308585130494  0.22230331425506478  0.5370556868017786  1.0000
  C   C21       1.0  0.19811177162699775  0.8056451541395261  0.11493092380629125  1.0000
  C   C22       1.0  0.8055168654607529  0.19832802652278045  0.614931985154506  1.0000
  C   C23       1.0  0.8844943226939745  0.870710235833144  0.9766573536991318  1.0000
  C   C24       1.0  0.8709062029190305  0.8841538987557412  0.47663847916093266  1.0000
  C   C25       1.0  0.0334579575265792  0.05926564200006369  0.8296531463721879  1.0000
  C   C26       1.0  0.059486914843930094  0.0332593185484242  0.3297075366027897  1.0000
  C   C27       1.0  0.031933957530306104  0.17603984851953663  0.8377109451086044  1.0000
  C   C28       1.0  0.17611429533830858  0.031789995764547996  0.3376937196000967  1.0000
  C   C29       1.0  0.15079379215885064  0.17769640894857014  0.8365224143515277  1.0000
  C   C30       1.0  0.17774278357235565  0.15082090863886316  0.33651487804414165  1.0000
  C   C31       1.0  0.2670654318016473  0.05710846723554399  0.8292188909034126  1.0000
  C   C32       1.0  0.057248277067827744  0.2671762941099516  0.3292032203661891  1.0000
  C   C33       1.0  0.2600816332383857  0.9444227403493457  0.8226219156591343  1.0000
  C   C34       1.0  0.9447316091358573  0.2601105366583312  0.32263227874613426  1.0000
  C   C35       1.0  0.15263429812222987  0.30141713210353055  0.8414973882460117  1.0000
  C   C36       1.0  0.3013153307690999  0.1526972269356364  0.34149307847556554  1.0000
  C   C37       1.0  0.03842390467926997  0.4232014238230093  0.8318834715001416  1.0000
  C   C38       1.0  0.4229783556818489  0.038406382867783896  0.3318822040572869  1.0000
  C   C39       1.0  0.04204076840856166  0.5386482139844162  0.8350336943100132  1.0000
  C   C40       1.0  0.5382718230731598  0.04205653148714109  0.3350361195028668  1.0000
  C   C41       1.0  0.2625483705421913  0.4233443157101107  0.8571845944239769  1.0000
  C   C42       1.0  0.42313877926281407  0.2627525583776844  0.3571780797648714  1.0000
  C   C43       1.0  0.26674271974451363  0.30365018738740446  0.8545132828942885  1.0000
  C   C44       1.0  0.3036000763426543  0.2669309142486611  0.35450960118716784  1.0000
  C   C45       1.0  0.9209587086242975  0.4648549016424112  0.06257918029351833  1.0000
  C   C46       1.0  0.46477926079087667  0.9206839633267448  0.562551886192857  1.0000
  C   C47       1.0  0.037134553903882796  0.4634939796004716  0.07163818275170539  1.0000
  C   C48       1.0  0.4633694366699571  0.03698928953229339  0.5716983199908159  1.0000
  C   C49       1.0  0.15036221098434766  0.34229702281002256  0.08701003169729661  1.0000
  C   C50       1.0  0.34229288874472263  0.1502838322356368  0.5870994800598269  1.0000
  C   C51       1.0  0.13941880744851426  0.2274493931131332  0.09322872685974203  1.0000
  C   C52       1.0  0.22760065917209718  0.1393540810646599  0.5932749872423813  1.0000
  C   C53       1.0  0.019221569055581277  0.2374508397486252  0.08444387007640591  1.0000
  C   C54       1.0  0.23762706617145568  0.0190174319806644  0.5844312208637847  1.0000
  C   C55       1.0  0.2762888853582267  0.33757075046163715  0.09325922289400522  1.0000
  C   C56       1.0  0.33753358592011296  0.2763588224131865  0.5933550834813347  1.0000
  C   C57       1.0  0.2788597391402943  0.43799911055850765  0.12947623527787752  1.0000
  C   C58       1.0  0.43788970299959107  0.2788904724680279  0.6295248272637793  1.0000
  C   C59       1.0  0.3983116632595409  0.4362735678391516  0.12670972871005404  1.0000
  C   C60       1.0  0.4361405677830276  0.3985146330391131  0.6266865994236923  1.0000
  C   C61       1.0  0.512769697902172  0.2423781462002452  0.05899302832457919  1.0000
  C   C62       1.0  0.24234982648656708  0.5131336357166489  0.5589956532380855  1.0000
  C   C63       1.0  0.39732445452826676  0.23620324575507817  0.06015380273494492  1.0000
  C   C64       1.0  0.23623265288457412  0.3975045352165338  0.5602254831746407  1.0000
  N   N1        1.0  0.7965025725785181  0.4838969701553282  0.7254853134664717  1.0000
  N   N2        1.0  0.4837519944071716  0.7967543223782271  0.22541375546416023  1.0000
  N   N3        1.0  0.5723279224874958  0.5962099934135097  0.6361261923209655  1.0000
  N   N4        1.0  0.5962654348073356  0.5722672259038076  0.1361357002310299  1.0000
  N   N5        1.0  0.07683265176095223  0.8958562515783299  0.14481177089083982  1.0000
  N   N6        1.0  0.8958231240673341  0.07695171577749699  0.6447654596996558  1.0000
  N   N7        1.0  0.12134395818385708  0.766639610807232  0.9936571780655971  1.0000
  N   N8        1.0  0.7666950779098939  0.12134970329044847  0.4936528047720403  1.0000
  N   N9        1.0  0.14565912996288685  0.9449115291493513  0.8219161430638806  1.0000
  N   N10       1.0  0.9451976486907867  0.1455279960485356  0.3219784444994218  1.0000
  N   N11       1.0  0.1522010975855181  0.5390256456586116  0.8475038443484666  1.0000
  N   N12       1.0  0.5387352499598705  0.15231486795499188  0.347506524554646  1.0000
  N   N13       1.0  0.9113389390681942  0.3541008781455233  0.06920551359142738  1.0000
  N   N14       1.0  0.3541650488154245  0.9110845848977007  0.5691585013839529  1.0000
  N   N15       1.0  0.5125180271449848  0.3427867970713194  0.09026775150126552  1.0000
  N   N16       1.0  0.3426865155606008  0.5128271572553587  0.590229407844504  1.0000
  O   O1        1.0  0.6986794682964471  0.3535007322197146  0.9032604251086128  1.0000
  O   O2        1.0  0.3537275261760725  0.6986102615523251  0.4031833494385708  1.0000
  O   O3        1.0  0.6826442190826753  0.546290466290877  0.924389718519855  1.0000
  O   O4        1.0  0.5461913440519125  0.6826950617135948  0.4243545732556343  1.0000
  O   O5        1.0  0.41802752896452927  0.5908776623715681  0.8663493579976064  1.0000
  O   O6        1.0  0.5910052612336898  0.41770649166817003  0.36636258788769294  1.0000
  O   O7        1.0  0.3308406288263867  0.6822910225845646  0.7320849189325003  1.0000
  O   O8        1.0  0.6825448191313509  0.3304911965519466  0.23212058162476987  1.0000
  O   O9        1.0  0.83028118983637  0.137727084474335  0.06225237451919702  1.0000
  O   O10       1.0  0.13769915211445743  0.8302698608621384  0.562233350341977  1.0000
  O   O11       1.0  0.7802885088318019  0.037144006954875394  0.19868153847274075  1.0000
  O   O12       1.0  0.03733658842021019  0.7801098811846641  0.698641868539916  1.0000
  O   O13       1.0  0.7731831635119876  0.9168465770622234  0.02187787853392815  1.0000
  O   O14       1.0  0.9171810417496359  0.7726637356749819  0.5218361356211076  1.0000
  O   O15       1.0  0.9145048459288744  0.8374489463621444  0.8949140084386116  1.0000
  O   O16       1.0  0.8374708422048515  0.9141986425751225  0.39493936494289983  1.0000
