data_image0
_chemical_formula_structural       Al4H16C50I2N4O28
_chemical_formula_sum              "Al4 H16 C50 I2 N4 O28"
_cell_length_a       6.7146426524147005
_cell_length_b       20.709963472777872
_cell_length_c       23.7269755933974
_cell_angle_alpha    90.27402361079933
_cell_angle_beta     92.61296826361216
_cell_angle_gamma    91.71279218524037

_space_group_name_H-M_alt    "P 1"
_space_group_IT_number       1

loop_
  _space_group_symop_operation_xyz
  'x, y, z'

loop_
  _atom_site_type_symbol
  _atom_site_label
  _atom_site_symmetry_multiplicity
  _atom_site_fract_x
  _atom_site_fract_y
  _atom_site_fract_z
  _atom_site_occupancy
  Al  Al1       1.0  0.8001027661402772  0.2516236854472922  0.2533563143086965  1.0000
  Al  Al2       1.0  0.19989730338879502  0.7483758302181018  0.7466428574720111  1.0000
  Al  Al3       1.0  0.29994389078128586  0.2517467470376645  0.2523339891137297  1.0000
  Al  Al4       1.0  0.700057789971332  0.7482527748047547  0.7476673037207034  1.0000
  H   H1        1.0  0.19898232308961636  0.41293012399619766  0.5411664468144934  1.0000
  H   H2        1.0  0.8009852891389712  0.5870745933805921  0.45883289747105477  1.0000
  H   H3        1.0  0.8101557443235305  0.4455831378901182  0.5729832136467506  1.0000
  H   H4        1.0  0.18981489804296095  0.5544215901128383  0.4270169990061417  1.0000
  H   H5        1.0  0.27690085467567366  0.5757040496289465  0.9763150467908728  1.0000
  H   H6        1.0  0.7231391927276787  0.4242941527579734  0.02368108100622379  1.0000
  H   H7        1.0  0.19938603308607838  0.051016321578671905  0.4565069934919704  1.0000
  H   H8        1.0  0.8006559654287172  0.9489799588593402  0.5434992588850561  1.0000
  H   H9        1.0  0.1637130402461651  0.9701395130590317  0.5335705437710841  1.0000
  H   H10       1.0  0.836324447446323  0.02985771733857231  0.4664339888906638  1.0000
  H   H11       1.0  0.22510049957892866  0.07201451894595579  0.0222067872673506  1.0000
  H   H12       1.0  0.7748695451682224  0.9279882725076264  0.9777849819288275  1.0000
  H   H13       1.0  0.557287656392198  0.33655612222610654  0.2482197104156896  1.0000
  H   H14       1.0  0.44270190380878915  0.6634433571116392  0.7517781089493595  1.0000
  H   H15       1.0  0.040491360211078097  0.167694437638076  0.24196278850901354  1.0000
  H   H16       1.0  0.9594984215106873  0.8323055264849728  0.7580384068727496  1.0000
  C   C1        1.0  0.5546836402529536  0.17468121193928712  0.32850937761288174  1.0000
  C   C2        1.0  0.4453248977264436  0.8253096397071858  0.671490671420585  1.0000
  C   C3        1.0  0.5311105444916606  0.17371877853678802  0.17627156194333787  1.0000
  C   C4        1.0  0.4688907942415383  0.8262734983083394  0.8237313836117721  1.0000
  C   C5        1.0  0.042896467357195406  0.3286411861968901  0.17624104825216594  1.0000
  C   C6        1.0  0.957107087523361  0.6713626893392972  0.8237623861255937  1.0000
  C   C7        1.0  0.07138899186386992  0.32895509835543635  0.3290752813803195  1.0000
  C   C8        1.0  0.9286202557137242  0.67104589836071  0.6709265023322926  1.0000
  C   C9        1.0  0.8954903437806577  0.4691809648714411  0.5404102678086601  1.0000
  C   C10       1.0  0.1044788075555232  0.5308237580344227  0.4595899323780656  1.0000
  C   C11       1.0  0.1096564087107339  0.45161035897237417  0.523261053309696  1.0000
  C   C12       1.0  0.8903127048940717  0.5483953291843805  0.4767374645602373  1.0000
  C   C13       1.0  0.0792540416228604  0.37350808593733836  0.3759522960093804  1.0000
  C   C14       1.0  0.9207417851612615  0.6264972100458267  0.6240447571047765  1.0000
  C   C15       1.0  0.8276627848657936  0.47511770798828945  0.4768478624512582  1.0000
  C   C16       1.0  0.17229723649916903  0.5248855342987896  0.5231505692385879  1.0000
  C   C17       1.0  0.04325885579618931  0.4564389095325796  0.45861335042605583  1.0000
  C   C18       1.0  0.9567214061630479  0.5435590876744812  0.5413797484195368  1.0000
  C   C19       1.0  0.0756022389475106  0.4118924505222595  0.41497999693673643  1.0000
  C   C20       1.0  0.924373587628807  0.5881180927007748  0.5850266061967915  1.0000
  C   C21       1.0  0.18009950363747854  0.4994521637444577  0.030280201592127298  1.0000
  C   C22       1.0  0.8199292149688943  0.5005503484062219  0.9697217510104534  1.0000
  C   C23       1.0  0.027451266681588014  0.4550168762757212  0.0453665995539083  1.0000
  C   C24       1.0  0.9725742964206886  0.5449851413274233  0.9546327955346638  1.0000
  C   C25       1.0  0.8459071666240308  0.4569224951794483  0.013364334149891001  1.0000
  C   C26       1.0  0.1541228799150645  0.5430805033978532  0.9866342594553925  1.0000
  C   C27       1.0  0.042717645939959  0.4111130394842208  0.09055352080592628  1.0000
  C   C28       1.0  0.9573109628190862  0.5888904372693917  0.9094454843273282  1.0000
  C   C29       1.0  0.9611406381308637  0.6272921310703198  0.8708321836755956  1.0000
  C   C30       1.0  0.03886609111948049  0.37271175638795034  0.1291746493745762  1.0000
  C   C31       1.0  0.3100980842998595  0.9835306931719856  0.5185596195887072  1.0000
  C   C32       1.0  0.6899332074047207  0.016465066369065102  0.4814423260734557  1.0000
  C   C33       1.0  0.47999172238998256  0.9545049550259177  0.5433887067541505  1.0000
  C   C34       1.0  0.5200454165894256  0.04548889267385901  0.4566132796661576  1.0000
  C   C35       1.0  0.6703117589189701  0.9716501442007156  0.5241573242329024  1.0000
  C   C36       1.0  0.32972709778447035  0.02834467622289341  0.47584763122939927  1.0000
  C   C37       1.0  0.46124347546100347  0.9090250040426466  0.5872228760066915  1.0000
  C   C38       1.0  0.5387832022676163  0.09096880776145612  0.41277860143298273  1.0000
  C   C39       1.0  0.5511722165046322  0.12989880059413392  0.3746916716566985  1.0000
  C   C40       1.0  0.44884216357664286  0.8700896563696293  0.6253088375758011  1.0000
  C   C41       1.0  0.32204027442931255  0.9966633810594914  0.9685690437614694  1.0000
  C   C42       1.0  0.6779255272674902  0.0033384315797917005  0.03142774409310079  1.0000
  C   C43       1.0  0.4740838517950934  0.9543829290907837  0.9543439281325732  1.0000
  C   C44       1.0  0.5258697554080242  0.045616426404699  0.045650640022039085  1.0000
  C   C45       1.0  0.6532024575909929  0.95907083373357  0.9875161836491768  1.0000
  C   C46       1.0  0.3467513267078388  0.04093383409757931  0.012475879243233099  1.0000
  C   C47       1.0  0.4622398813856633  0.9099520485651739  0.9089491461413459  1.0000
  C   C48       1.0  0.5377316285270266  0.09004833377835553  0.09104473272542177  1.0000
  C   C49       1.0  0.5267042882896859  0.1287603450247374  0.12943899168099898  1.0000
  C   C50       1.0  0.4732853814532304  0.8712314105780126  0.8705689124783331  1.0000
  I   I1        1.0  0.43269031609743536  0.5673146816264136  0.5629453028755761  1.0000
  I   I2        1.0  0.5672802298090714  0.4326832863805379  0.43706036023222333  1.0000
  N   N1        1.0  0.3778971747229106  0.5001266653759088  0.060139676217453086  1.0000
  N   N2        1.0  0.6221343868851433  0.49987633851448265  0.9398593515714921  1.0000
  N   N3        1.0  0.1260730941387891  0.9942523136677435  0.9377332994791271  1.0000
  N   N4        1.0  0.8738924945570191  0.005747565877932502  0.0622617923989068  1.0000
  O   O1        1.0  0.36418093099363347  0.19171053627865584  0.1930033303093026  1.0000
  O   O2        1.0  0.6358142650019046  0.8082807529833149  0.8069974522403596  1.0000
  O   O3        1.0  0.7246979497777061  0.19272755367872924  0.31159798760408103  1.0000
  O   O4        1.0  0.2753034972821097  0.8072681037043665  0.6884032870173511  1.0000
  O   O5        1.0  0.8972514086225515  0.31208614409645463  0.30984546348832237  1.0000
  O   O6        1.0  0.1027516876975909  0.6879153133448385  0.6901524771786709  1.0000
  O   O7        1.0  0.7043808077262098  0.19003631406369692  0.19639507524558303  1.0000
  O   O8        1.0  0.2956233070656893  0.8099569367146132  0.803603260902477  1.0000
  O   O9        1.0  0.8743647090432132  0.3112251568346451  0.19442099935326235  1.0000
  O   O10       1.0  0.1256372826910948  0.6887787129564914  0.805581157405804  1.0000
  O   O11       1.0  0.3846368467910182  0.19117325468202045  0.3083784385859829  1.0000
  O   O12       1.0  0.6153805944658758  0.808818109956498  0.6916204223685369  1.0000
  O   O13       1.0  0.5534530695084144  0.29000798390617183  0.2521230985677647  1.0000
  O   O14       1.0  0.4465488035533768  0.709991539664138  0.747881568006747  1.0000
  O   O15       1.0  0.21481879376558766  0.31257820844522405  0.1950747384984979  1.0000
  O   O16       1.0  0.7851827719667454  0.6874217951586987  0.804924026307489  1.0000
  O   O17       1.0  0.23657171459350934  0.31130604283947605  0.310741681283254  1.0000
  O   O18       1.0  0.763446298723366  0.6886916032733341  0.6892605830074673  1.0000
  O   O19       1.0  0.046486184323128996  0.21320098393912454  0.251787490757799  1.0000
  O   O20       1.0  0.9535140775151161  0.78679853345416  0.7482150547630011  1.0000
  O   O21       1.0  0.42847816953328527  0.45034345727773956  0.0848331501175394  1.0000
  O   O22       1.0  0.4826201138959547  0.5504062987312893  0.05743757944900099  1.0000
  O   O23       1.0  0.5715394281041312  0.5496648148888711  0.915176742707956  1.0000
  O   O24       1.0  0.5174298366963583  0.44959145174220094  0.9425497772668621  1.0000
  O   O25       1.0  0.07435227523801302  0.9434746053786757  0.9127829016653024  1.0000
  O   O26       1.0  0.0235580546517511  0.04307322999640211  0.9400048394214691  1.0000
  O   O27       1.0  0.9256354163133833  0.05652776223880101  0.08720521939057588  1.0000
  O   O28       1.0  0.9763956864373354  0.956925161112139  0.05999309791997829  1.0000
