data_image0
_chemical_formula_structural       Zn2H6C32N2Cl10O8F4
_chemical_formula_sum              "Zn2 H6 C32 N2 Cl10 O8 F4"
_cell_length_a       9.91240914156055
_cell_length_b       11.00968504130951
_cell_length_c       17.787484876794117
_cell_angle_alpha    90.98951347561066
_cell_angle_beta     91.54463245462793
_cell_angle_gamma    89.9385295638708

_space_group_name_H-M_alt    "P 1"
_space_group_IT_number       1

loop_
  _space_group_symop_operation_xyz
  'x, y, z'

loop_
  _atom_site_type_symbol
  _atom_site_label
  _atom_site_symmetry_multiplicity
  _atom_site_fract_x
  _atom_site_fract_y
  _atom_site_fract_z
  _atom_site_occupancy
  Zn  Zn1       1.0  0.362734095247184  0.503413440253965  0.5010998647519784  1.0000
  Zn  Zn2       1.0  0.6450941917394104  0.5016855750250214  0.5047810403473816  1.0000
  H   H1        1.0  0.3139728542469483  0.33537579515560617  0.8636439629482522  1.0000
  H   H2        1.0  0.4147043870754956  0.8958235390681536  0.3204142609347187  1.0000
  H   H3        1.0  0.6318519824083638  0.09369648825085618  0.33026154741390457  1.0000
  H   H4        1.0  0.8655834668064063  0.2485360010010567  0.4208155748744318  1.0000
  H   H5        1.0  0.6700080167182777  0.5595741021197683  0.892597922765418  1.0000
  H   H6        1.0  0.661390121968637  0.3345207491694637  0.1298619464706974  1.0000
  C   C1        1.0  0.5044765571876938  0.2703115001568007  0.4987106478529384  1.0000
  C   C2        1.0  0.49080087911562487  0.4545240927301748  0.11507465590420908  1.0000
  C   C3        1.0  0.5119017889171573  0.0628042506326736  0.43236411813403197  1.0000
  C   C4        1.0  0.5086185203098026  0.4946304080423473  0.3585596460975538  1.0000
  C   C5        1.0  0.5026112496319542  0.1341771755729937  0.4973585474422392  1.0000
  C   C6        1.0  0.4928100879474755  0.06841472150720311  0.5635775701211401  1.0000
  C   C7        1.0  0.4936165940887419  0.9404826026445933  0.5653887249815099  1.0000
  C   C8        1.0  0.5011355654946783  0.8704818253595686  0.49875081948415817  1.0000
  C   C9        1.0  0.506859037901414  0.9365262521329285  0.4329898791350643  1.0000
  C   C10       1.0  0.5099736274944177  0.9239536005433634  0.3482405004564412  1.0000
  C   C11       1.0  0.5314813677908106  0.065960296092122  0.34829524774517034  1.0000
  C   C12       1.0  0.4915548152155864  0.44583871513808043  0.8877589668107858  1.0000
  C   C13       1.0  0.9351268081200741  0.39681701085723387  0.4994092389677363  1.0000
  C   C14       1.0  0.934043360524356  0.5884818533745246  0.5413604566337538  1.0000
  C   C15       1.0  0.0783794705879188  0.5923640446351399  0.541362107026238  1.0000
  C   C16       1.0  0.5008227482826868  0.734148440697538  0.49927035360338573  1.0000
  C   C17       1.0  0.0741886448103415  0.39969779118283805  0.49698292983953246  1.0000
  C   C18       1.0  0.08322225598571721  0.2682858966615099  0.4682632359703192  1.0000
  C   C19       1.0  0.9207323735156336  0.26571650866844715  0.4740662805614946  1.0000
  C   C20       1.0  0.5029589536782595  0.49264715481469057  0.6464639986644016  1.0000
  C   C21       1.0  0.3934794596128127  0.39009836032768413  0.8402569668233395  1.0000
  C   C22       1.0  0.39748637645926266  0.4060186231022557  0.7628042812323983  1.0000
  C   C23       1.0  0.48710278157899717  0.4381214169541677  0.967164663245221  1.0000
  C   C24       1.0  0.49881277902176174  0.4757554366896032  0.7299984791605283  1.0000
  C   C25       1.0  0.5967424211157565  0.5293696680100196  0.7788299173896361  1.0000
  C   C26       1.0  0.5941387823023236  0.5153596203869668  0.8562821653979853  1.0000
  C   C27       1.0  0.487236314949655  0.4425970985886848  0.035682387582582485  1.0000
  C   C28       1.0  0.3985914165026471  0.5315839975761775  0.1522629490502752  1.0000
  C   C29       1.0  0.4070968911458976  0.5459417985781556  0.23080279828138117  1.0000
  C   C30       1.0  0.5059112757521333  0.4841167043031262  0.27390237732049627  1.0000
  C   C31       1.0  0.5975226215480661  0.40951039113740967  0.2356606072261229  1.0000
  C   C32       1.0  0.5899736992406659  0.39379903870138105  0.15796287347257723  1.0000
  N   N1        1.0  0.8600138305149018  0.4936056661911792  0.5186801019951943  1.0000
  N   N2        1.0  0.14981310021992303  0.4975164562835985  0.5149252180312089  1.0000
  Cl  Cl1       1.0  0.4815093025909574  0.8712556142349469  0.651013190178773  1.0000
  Cl  Cl2       1.0  0.7240168933310754  0.3311143938042632  0.28354447421318696  1.0000
  Cl  Cl3       1.0  0.6404591032136082  0.832805008089181  0.30891086783893223  1.0000
  Cl  Cl4       1.0  0.1546279936119106  0.718654774927593  0.5762212465089077  1.0000
  Cl  Cl5       1.0  0.14282900395620146  0.24885561113723745  0.3767535352963591  1.0000
  Cl  Cl6       1.0  0.27448555688516046  0.33375438486393694  0.7075935271341791  1.0000
  Cl  Cl7       1.0  0.8628130920272312  0.16583890582331406  0.5425238727894593  1.0000
  Cl  Cl8       1.0  0.7217432848940248  0.6213503993323144  0.7443745449182443  1.0000
  Cl  Cl9       1.0  0.2785595377415646  0.6073924920820345  0.10007431298888747  1.0000
  Cl  Cl10      1.0  0.2973424861419929  0.6442724769720057  0.27413825631816735  1.0000
  O   O1        1.0  0.3972709188113086  0.3229040188621041  0.518855188948862  1.0000
  O   O2        1.0  0.6132943826023195  0.32018166579685214  0.4792344451513912  1.0000
  O   O3        1.0  0.39958523271968016  0.4665173868989498  0.38985403678001507  1.0000
  O   O4        1.0  0.6184801501350988  0.5283863326793038  0.3907420876920894  1.0000
  O   O5        1.0  0.3918717866456092  0.6828802010820211  0.4770900755672328  1.0000
  O   O6        1.0  0.609023117911633  0.6831262005264874  0.5212906103717854  1.0000
  O   O7        1.0  0.3976049165240099  0.5350397720643796  0.6142768811042955  1.0000
  O   O8        1.0  0.6118419421853575  0.4628965422270069  0.6148649365636629  1.0000
  F   F1        1.0  0.4357719180278962  0.1308520804287596  0.3056542941632329  1.0000
  F   F2        1.0  0.8700778262736437  0.6867458224918649  0.5649558857339656  1.0000
  F   F3        1.0  0.1471995618358903  0.18928456578862543  0.5155845603129308  1.0000
  F   F4        1.0  0.48643480042782267  0.13027512007827363  0.6297879145939405  1.0000
