data_image0
_chemical_formula_structural       Er2H26C36N6O16
_chemical_formula_sum              "Er2 H26 C36 N6 O16"
_cell_length_a       5.858737687374234
_cell_length_b       10.435878769449985
_cell_length_c       14.591056333102623
_cell_angle_alpha    112.0037300733064
_cell_angle_beta     87.94761831639251
_cell_angle_gamma    97.23321722715745

_space_group_name_H-M_alt    "P 1"
_space_group_IT_number       1

loop_
  _space_group_symop_operation_xyz
  'x, y, z'

loop_
  _atom_site_type_symbol
  _atom_site_label
  _atom_site_symmetry_multiplicity
  _atom_site_fract_x
  _atom_site_fract_y
  _atom_site_fract_z
  _atom_site_occupancy
  Er  Er1       1.0  0.3864110469656551  0.2543695158733215  0.5132671974333007  1.0000
  Er  Er2       1.0  0.6136023418312535  0.7456329085189067  0.48673102141316343  1.0000
  H   H1        1.0  0.13129618093513074  0.02238818851670742  0.5787531388193372  1.0000
  H   H2        1.0  0.8687054799176012  0.9776157713241531  0.4212466684071429  1.0000
  H   H3        1.0  0.3944560981847617  0.04424577197252692  0.604396088435621  1.0000
  H   H4        1.0  0.6055478403659365  0.9557475164328434  0.39560005573346757  1.0000
  H   H5        1.0  0.7437991990445312  0.44153316300832285  0.4735122357457087  1.0000
  H   H6        1.0  0.2562087199073204  0.5584620998510063  0.5264843767400436  1.0000
  H   H7        1.0  0.8682789314168036  0.317926694107129  0.4753742983094043  1.0000
  H   H8        1.0  0.1317289261230313  0.6820698995904164  0.5246253550209374  1.0000
  H   H9        1.0  0.5187685773741038  0.019042765276438403  0.1654443122048121  1.0000
  H   H10       1.0  0.48121103544941957  0.9809555850648904  0.8345643793494091  1.0000
  H   H11       1.0  0.36640741195400045  0.9098880869335986  0.9896334559002042  1.0000
  H   H12       1.0  0.6335849303270394  0.0901003282551969  0.010371839502582202  1.0000
  H   H13       1.0  0.8332429334566954  0.9211081824170859  0.25825008050354364  1.0000
  H   H14       1.0  0.16671864108280232  0.07889403958574802  0.7417510031842554  1.0000
  H   H15       1.0  0.5978425719917554  0.7341400663831621  0.9860185722407168  1.0000
  H   H16       1.0  0.4021453034984576  0.2658492306358582  0.0139737893116205  1.0000
  H   H17       1.0  0.4247005216894806  0.619134360231591  0.8164233943185762  1.0000
  H   H18       1.0  0.5753032185789807  0.38086031963806727  0.1835661654291485  1.0000
  H   H19       1.0  0.08032157968343508  0.7292150971289644  0.7031626812704772  1.0000
  H   H20       1.0  0.9196985453618256  0.2707897148288723  0.2968409421543186  1.0000
  H   H21       1.0  0.5508348542956442  0.2868869955691622  0.7779327236103911  1.0000
  H   H22       1.0  0.44916685299206455  0.7131067831586577  0.22206763386284226  1.0000
  H   H23       1.0  0.6195831310818535  0.3987401920329248  0.9616614229224892  1.0000
  H   H24       1.0  0.3804224435643135  0.6012607250609817  0.038339831052979896  1.0000
  H   H25       1.0  0.2590920480946509  0.42667160982038155  0.7413560862126332  1.0000
  H   H26       1.0  0.7409100521027341  0.5733294810067519  0.2586458579727307  1.0000
  C   C1        1.0  0.25368249580826335  0.046368363143507514  0.3318961608853428  1.0000
  C   C2        1.0  0.7463035367429856  0.9536325821007238  0.6681097165991545  1.0000
  C   C3        1.0  0.18646560090809314  0.9771799786769009  0.2258900218668742  1.0000
  C   C4        1.0  0.8135102493592045  0.02282001021755064  0.7741134787848267  1.0000
  C   C5        1.0  0.3397034161092876  0.9738678007791962  0.1492808942278998  1.0000
  C   C6        1.0  0.6602827062671609  0.02613307110943453  0.8507242799476487  1.0000
  C   C7        1.0  0.2571135578244323  0.9138872675273007  0.052233280182555644  1.0000
  C   C8        1.0  0.7428587843851917  0.08610528957862584  0.9477665107311211  1.0000
  C   C9        1.0  0.026112933451770546  0.8564998917065126  0.03402786469915507  1.0000
  C   C10       1.0  0.9738706029465408  0.1434979181235647  0.9659766201004416  1.0000
  C   C11       1.0  0.9573312168312499  0.9185775007781698  0.20033395172791296  1.0000
  C   C12       1.0  0.042647640127000855  0.08142392591418711  0.799664384219362  1.0000
  C   C13       1.0  0.9265997476015359  0.7903395056112998  0.9327573110419678  1.0000
  C   C14       1.0  0.07338768395837998  0.20965650622489554  0.06724062946737058  1.0000
  C   C15       1.0  0.6965324631545895  0.7300234290299982  0.920776046412648  1.0000
  C   C16       1.0  0.3034644464546687  0.26997278243310063  0.07921652798155782  1.0000
  C   C17       1.0  0.6028278732269855  0.6657908199927859  0.8266448898974303  1.0000
  C   C18       1.0  0.39717723366134555  0.3342117086322461  0.1733518895835147  1.0000
  C   C19       1.0  0.7403273192669887  0.6630711901006094  0.7457969151137362  1.0000
  C   C20       1.0  0.25967847322410625  0.3369333400003852  0.2541996162758764  1.0000
  C   C21       1.0  0.967954560963797  0.7291225943766477  0.7645735810813648  1.0000
  C   C22       1.0  0.032053420010115  0.270881531487035  0.2354297688879399  1.0000
  C   C23       1.0  0.6493201571391937  0.5834755176647234  0.6435242915178279  1.0000
  C   C24       1.0  0.3506948057311306  0.4165256724116873  0.3564722996514647  1.0000
  C   C25       1.0  0.8730992453598104  0.29106409415938833  0.6362770498580089  1.0000
  C   C26       1.0  0.1269076952961896  0.7089344778473219  0.3637216455225385  1.0000
  C   C27       1.0  0.9024544466309125  0.34751621518746134  0.7455586734738517  1.0000
  C   C28       1.0  0.09754367316531899  0.6524829011857065  0.25444280239484124  1.0000
  C   C29       1.0  0.7196322992667988  0.3389555750224105  0.808407238974084  1.0000
  C   C30       1.0  0.2803793642194847  0.6610494878794454  0.19159635170308317  1.0000
  C   C31       1.0  0.7567710579335198  0.39979347899198797  0.9097482685331569  1.0000
  C   C32       1.0  0.243240633355903  0.6002026475499064  0.09024788135150891  1.0000
  C   C33       1.0  0.9766665607565773  0.4664894785286152  0.946178583631486  1.0000
  C   C34       1.0  0.023334689164684584  0.5335186078085883  0.05382142417175827  1.0000
  C   C35       1.0  0.1152403587633728  0.41661490293262904  0.7888750353479992  1.0000
  C   C36       1.0  0.8847631022481438  0.5833774947681645  0.2111222878301717  1.0000
  N   N1        1.0  0.8787164681938863  0.8584086053701228  0.107908088776334  1.0000
  N   N2        1.0  0.12125837536437707  0.1415934351891011  0.8920951572345075  1.0000
  N   N3        1.0  0.0607326471536211  0.7904224989172661  0.8555213597964766  1.0000
  N   N4        1.0  0.9392633978125248  0.20958205162366278  0.144482647635094  1.0000
  N   N5        1.0  0.1539455404394801  0.4743504712628662  0.8860989555099579  1.0000
  N   N6        1.0  0.8460518473190107  0.5256568247473722  0.11390221820331452  1.0000
  O   O1        1.0  0.09886213584000099  0.0830246392264797  0.39768640225507573  1.0000
  O   O2        1.0  0.9011408250248963  0.9169821521688418  0.6023216031369429  1.0000
  O   O3        1.0  0.46693461754604476  0.07798460065707503  0.3583083416134727  1.0000
  O   O4        1.0  0.5330646369789419  0.9220161504140165  0.641689369619165  1.0000
  O   O5        1.0  0.4992936598667797  0.47896356482500824  0.6301426014778215  1.0000
  O   O6        1.0  0.5007310691603309  0.521036360058403  0.3698545046887602  1.0000
  O   O7        1.0  0.7312116443204104  0.620875838836561  0.5730512389074534  1.0000
  O   O8        1.0  0.2688072091258675  0.3791273990494232  0.42694652388744453  1.0000
  O   O9        1.0  0.6787968117578985  0.22641594667332046  0.5996749748276785  1.0000
  O   O10       1.0  0.3212251232274923  0.7735798053801375  0.4003205110452015  1.0000
  O   O11       1.0  0.04104782336715827  0.3130564929476591  0.5833700783244994  1.0000
  O   O12       1.0  0.9589675556303306  0.686946918671552  0.4166283746802932  1.0000
  O   O13       1.0  0.27649960220180253  0.0834409861751837  0.5797779430042809  1.0000
  O   O14       1.0  0.7235106946646042  0.9165562279713056  0.4202184279396731  1.0000
  O   O15       1.0  0.7304344324768691  0.338822324328632  0.4491540979018965  1.0000
  O   O16       1.0  0.2695768710985719  0.6611728381530855  0.5508425276829101  1.0000
