data_image0
_chemical_formula_structural       Dy2H16C24N6O18
_chemical_formula_sum              "Dy2 H16 C24 N6 O18"
_cell_length_a       8.141396695787364
_cell_length_b       7.912044075628756
_cell_length_c       12.127484395776788
_cell_angle_alpha    77.7977793163247
_cell_angle_beta     99.51095978693988
_cell_angle_gamma    78.5287700040697

_space_group_name_H-M_alt    "P 1"
_space_group_IT_number       1

loop_
  _space_group_symop_operation_xyz
  'x, y, z'

loop_
  _atom_site_type_symbol
  _atom_site_label
  _atom_site_symmetry_multiplicity
  _atom_site_fract_x
  _atom_site_fract_y
  _atom_site_fract_z
  _atom_site_occupancy
  Dy  Dy1       1.0  0.7851094859626427  0.20409475028886698  0.4740400986725035  1.0000
  Dy  Dy2       1.0  0.21488169264390683  0.7959136892006882  0.5259607832959858  1.0000
  H   H1        1.0  0.22128045131722732  0.40071446636688524  0.0337045562729017  1.0000
  H   H2        1.0  0.7787427971736561  0.5992775985426205  0.9662942865388474  1.0000
  H   H3        1.0  0.4130934548465958  0.509684993115016  0.9065055630654514  1.0000
  H   H4        1.0  0.58691210453901  0.4903051507337678  0.0934832212896737  1.0000
  H   H5        1.0  0.47879326331212013  0.053080432089473106  0.7873054187430598  1.0000
  H   H6        1.0  0.5212069041682952  0.9468975364431172  0.21269416205650768  1.0000
  H   H7        1.0  0.2939405122276143  0.9243803213127887  0.9078530571208532  1.0000
  H   H8        1.0  0.7060654896540017  0.07559971245414937  0.09215883167809842  1.0000
  H   H9        1.0  0.3075926388209567  0.8010967540865862  0.1206231976477881  1.0000
  H   H10       1.0  0.692422965328241  0.1988980547682146  0.8793767713995422  1.0000
  H   H11       1.0  0.08771952594860007  0.6246660705077076  0.1229708407139043  1.0000
  H   H12       1.0  0.9123022873012229  0.37533499517568447  0.8770350153572862  1.0000
  H   H13       1.0  0.03136979430055928  0.4448425609898051  0.408832599371145  1.0000
  H   H14       1.0  0.9686261619775537  0.5551658138372487  0.5911675510140313  1.0000
  H   H15       1.0  0.12205735720415593  0.24183737613519435  0.4218525509005246  1.0000
  H   H16       1.0  0.8779398215970743  0.7581601110469123  0.57815584093877  1.0000
  C   C1        1.0  0.9102235636928383  0.08774828762886239  0.2881449838984267  1.0000
  C   C2        1.0  0.0897892042465003  0.9122466409703591  0.7118532480182295  1.0000
  C   C3        1.0  0.0191477399579369  0.041027120382963696  0.2066864920307836  1.0000
  C   C4        1.0  0.9808476794712816  0.9589813593398943  0.7933111348475849  1.0000
  C   C5        1.0  0.10798643196434907  0.8703657908810031  0.20646110988550964  1.0000
  C   C6        1.0  0.892012924020797  0.1296551220324389  0.7935548012208075  1.0000
  C   C7        1.0  0.10479833963439233  0.6917431590521445  0.26734851120061626  1.0000
  C   C8        1.0  0.895180632480951  0.3082942609306513  0.7326246775407271  1.0000
  C   C9        1.0  0.15986942377998048  0.07358187923116331  0.0706137206992565  1.0000
  C   C10       1.0  0.8401543142993617  0.9264083787961395  0.9293978807156477  1.0000
  C   C11       1.0  0.2474389767832577  0.15100358465697641  0.9846113239626817  1.0000
  C   C12       1.0  0.7525731317941791  0.8490280918444384  0.015392468601689302  1.0000
  C   C13       1.0  0.2754961116626263  0.32154303947928736  0.9792260092974843  1.0000
  C   C14       1.0  0.7245012628883953  0.6784586742623304  0.020775120397345907  1.0000
  C   C15       1.0  0.3849588478721627  0.37963672458620573  0.9109162419390061  1.0000
  C   C16       1.0  0.6150452594722252  0.6203581585116779  0.08908765898896583  1.0000
  C   C17       1.0  0.4204622443996726  0.1258979557081759  0.8439173999587554  1.0000
  C   C18       1.0  0.5795427883211204  0.8740875918117721  0.15608868577526644  1.0000
  C   C19       1.0  0.3155707093591786  0.055034809042417976  0.9106909948596993  1.0000
  C   C20       1.0  0.6844307408929635  0.944953557621389  0.08931212085084178  1.0000
  C   C21       1.0  0.44094502299843435  0.06852088773363359  0.44569789922027075  1.0000
  C   C22       1.0  0.5590499476546498  0.9314755368951991  0.5543047729020074  1.0000
  C   C23       1.0  0.5193325387712804  0.5630005200153859  0.44768293087894057  1.0000
  C   C24       1.0  0.4806427263982229  0.43701907103715604  0.5523102220475167  1.0000
  N   N1        1.0  0.049222269496802085  0.16497992664269387  0.1199613540338333  1.0000
  N   N2        1.0  0.9507791776152813  0.8349973574331738  0.8800558365205761  1.0000
  N   N3        1.0  0.19325432183301663  0.8937196890129825  0.1175909134721635  1.0000
  N   N4        1.0  0.8067316168337298  0.10627697989497162  0.8824098845374095  1.0000
  N   N5        1.0  0.4637861186462118  0.2800505545139912  0.8490904165694247  1.0000
  N   N6        1.0  0.5362153785304001  0.7199527165626732  0.1509022425561426  1.0000
  O   O1        1.0  0.7836196763512716  0.21977252093611097  0.2592082430924023  1.0000
  O   O2        1.0  0.21639746409993418  0.7802207109447321  0.7407978099994139  1.0000
  O   O3        1.0  0.9563231120093574  0.987812512712381  0.39276844597429766  1.0000
  O   O4        1.0  0.04366636483768361  0.0121973188664697  0.6072313715669182  1.0000
  O   O5        1.0  0.09772459513328616  0.6472996639989289  0.37005697478173977  1.0000
  O   O6        1.0  0.9022711423907522  0.3526830004902664  0.6299251950533176  1.0000
  O   O7        1.0  0.10918057590780711  0.5682917849329883  0.20584358921073692  1.0000
  O   O8        1.0  0.8908360581547752  0.43169899230528586  0.7941578085913221  1.0000
  O   O9        1.0  0.5083539372571906  0.17239984670278122  0.3845007127237139  1.0000
  O   O10       1.0  0.49163875083510095  0.8276008542994404  0.6154946424612788  1.0000
  O   O11       1.0  0.28306376000306693  0.06343492181397177  0.4283286968997402  1.0000
  O   O12       1.0  0.7169347048779284  0.9365774448740538  0.5716692657509839  1.0000
  O   O13       1.0  0.6469460912999168  0.5009032173043692  0.40846874095744573  1.0000
  O   O14       1.0  0.3530432237336213  0.4990977083380699  0.5915223535900651  1.0000
  O   O15       1.0  0.4204261900809527  0.7174166354577808  0.4107291996189629  1.0000
  O   O16       1.0  0.5795670346922536  0.2825905618618734  0.5892685683285208  1.0000
  O   O17       1.0  0.015216422868476789  0.3227684818083105  0.4273381659468782  1.0000
  O   O18       1.0  0.9847740534316713  0.6772398776923864  0.5726652121320157  1.0000
