data_image0
_chemical_formula_structural       Cu12H56C68O48
_chemical_formula_sum              "Cu12 H56 C68 O48"
_cell_length_a       7.504104947529205
_cell_length_b       18.15019282382029
_cell_length_c       20.136237085783296
_cell_angle_alpha    90.00425845522888
_cell_angle_beta     90.00377329650532
_cell_angle_gamma    90.00682104020817

_space_group_name_H-M_alt    "P 1"
_space_group_IT_number       1

loop_
  _space_group_symop_operation_xyz
  'x, y, z'

loop_
  _atom_site_type_symbol
  _atom_site_label
  _atom_site_symmetry_multiplicity
  _atom_site_fract_x
  _atom_site_fract_y
  _atom_site_fract_z
  _atom_site_occupancy
  Cu  Cu1       1.0  0.833366101802106  0.9443805884083788  0.43522235432668305  1.0000
  Cu  Cu2       1.0  0.8327089829675385  0.5554637307049148  0.0646117205130778  1.0000
  Cu  Cu3       1.0  0.6670104745647976  0.055431524865078095  0.9354322916441618  1.0000
  Cu  Cu4       1.0  0.666635585502128  0.44436701590735334  0.5647594252970547  1.0000
  Cu  Cu5       1.0  0.16668071827895403  0.05561430468132043  0.5647404919722661  1.0000
  Cu  Cu6       1.0  0.16737916045605766  0.44460499303027495  0.9353814226147962  1.0000
  Cu  Cu7       1.0  0.33288976055943204  0.9444305949205902  0.0648170959416845  1.0000
  Cu  Cu8       1.0  0.3333286125801679  0.555608592792922  0.4352342093755084  1.0000
  Cu  Cu9       1.0  0.999969775516135  0.4999804571224048  0.4999870329206786  1.0000
  Cu  Cu10      1.0  0.0013971355017829998  0.999784466043316  0.00022711328803379997  1.0000
  Cu  Cu11      1.0  0.5000442075066119  0.5000852364425796  0.9999906867902624  1.0000
  Cu  Cu12      1.0  0.500027117413687  5.786947482999991e-06  0.4999657069290676  1.0000
  H   H1        1.0  0.814723201172164  0.7267685715000172  0.516688991191927  1.0000
  H   H2        1.0  0.5615355661870326  0.6267314169063883  0.6856870383949953  1.0000
  H   H3        1.0  0.5866995121542827  0.863222542577276  0.6691046793995027  1.0000
  H   H4        1.0  0.37124974749652745  0.701752187155563  0.7522385202452424  1.0000
  H   H5        1.0  0.9514518700591025  0.4682275887206446  0.6134274593472142  1.0000
  H   H6        1.0  0.1513691837699298  0.9933844349693074  0.41907150121728876  1.0000
  H   H7        1.0  0.16769148838511677  0.915332415185411  0.45171066624910594  1.0000
  H   H8        1.0  0.8149067653681924  0.7731005581565001  0.9832320991408849  1.0000
  H   H9        1.0  0.5616915896164231  0.8732617055356402  0.8143100445169295  1.0000
  H   H10       1.0  0.5868094389619783  0.6367437291460123  0.8306979711213316  1.0000
  H   H11       1.0  0.37138305678025324  0.7983245387364878  0.7476874179120825  1.0000
  H   H12       1.0  0.9518717070740125  0.031349377463286  0.8869504122631183  1.0000
  H   H13       1.0  0.1507857345099808  0.5064252675681189  0.080751463770909  1.0000
  H   H14       1.0  0.16672445210326717  0.5845612882797085  0.0481241980578773  1.0000
  H   H15       1.0  0.6851476260009975  0.2732016475885858  0.0167158755231966  1.0000
  H   H16       1.0  0.9383152591800225  0.37335077060690497  0.18570054328721136  1.0000
  H   H17       1.0  0.9131409693494774  0.13683574904594312  0.16920373174672676  1.0000
  H   H18       1.0  0.1286444949540808  0.2983813571365347  0.2522923128381009  1.0000
  H   H19       1.0  0.5481128245236917  0.5315959941297949  0.11343111937711829  1.0000
  H   H20       1.0  0.3486899483042762  0.006606920947732002  0.9191467992329335  1.0000
  H   H21       1.0  0.33270676092269724  0.08470670545750643  0.9517795183986519  1.0000
  H   H22       1.0  0.6853260290892037  0.2267665759558284  0.4832741197824646  1.0000
  H   H23       1.0  0.9385079435308229  0.12676122627927103  0.314256673693194  1.0000
  H   H24       1.0  0.9132644996241696  0.3632551584348037  0.3308629924260771  1.0000
  H   H25       1.0  0.12870909442193582  0.2018031396807203  0.24769622719648512  1.0000
  H   H26       1.0  0.5485898945141513  0.9682082143199507  0.3865291683101617  1.0000
  H   H27       1.0  0.34863240545737273  0.4933905954466343  0.5809094308230627  1.0000
  H   H28       1.0  0.3322733001055838  0.4153379359064219  0.5482608427845861  1.0000
  H   H29       1.0  0.1852623159692612  0.27320207804865504  0.4832778262965647  1.0000
  H   H30       1.0  0.43845928259828776  0.3732568640520314  0.3142926918911968  1.0000
  H   H31       1.0  0.41335530231999235  0.13676243356010795  0.3308606497563389  1.0000
  H   H32       1.0  0.6287357775540772  0.29827025279069375  0.24773624492520693  1.0000
  H   H33       1.0  0.048526988013563296  0.5317662012844551  0.38654879457643426  1.0000
  H   H34       1.0  0.8486723029770928  0.006585665195466102  0.5808997866287484  1.0000
  H   H35       1.0  0.8323553283003945  0.08463878667613763  0.5482516826056241  1.0000
  H   H36       1.0  0.18518268474797853  0.22679516392891227  0.0167416698992326  1.0000
  H   H37       1.0  0.43843385613993047  0.12671556138105444  0.1857168659304875  1.0000
  H   H38       1.0  0.4131320986468836  0.36321865357592753  0.16923457885104648  1.0000
  H   H39       1.0  0.6286970829068251  0.2016929452028435  0.2522938044985779  1.0000
  H   H40       1.0  0.0483869648658128  0.968024071097773  0.11380203667157932  1.0000
  H   H41       1.0  0.8492384299653964  0.4935470367033831  0.9192377021136764  1.0000
  H   H42       1.0  0.8333796724808095  0.41542589484459574  0.9518898003772734  1.0000
  H   H43       1.0  0.31490187649706775  0.7269331875145826  0.9832097294166999  1.0000
  H   H44       1.0  0.06171825182202889  0.6267713929180447  0.814246912128425  1.0000
  H   H45       1.0  0.08664600975341588  0.863284755485715  0.8307447132215415  1.0000
  H   H46       1.0  0.8713383715972682  0.7016901178979612  0.7476789776852399  1.0000
  H   H47       1.0  0.45191270104940173  0.46857024805915165  0.886571958577015  1.0000
  H   H48       1.0  0.6507692276626996  0.9936424991765098  0.08078972660664618  1.0000
  H   H49       1.0  0.6668536911233075  0.9155432670955438  0.0481301916245087  1.0000
  H   H50       1.0  0.31472611862964334  0.7732084827864442  0.5166892225195028  1.0000
  H   H51       1.0  0.061557537258679  0.8732782937446191  0.685676874028033  1.0000
  H   H52       1.0  0.0866930437528524  0.6367810553593359  0.669126671327433  1.0000
  H   H53       1.0  0.8712351229415488  0.7982650268537341  0.7522298704856141  1.0000
  H   H54       1.0  0.4514809072311082  0.03176684353501001  0.6133999076848866  1.0000
  H   H55       1.0  0.6513024768455153  0.5065971334871548  0.41908122413901344  1.0000
  H   H56       1.0  0.6676948966981443  0.5846497935260474  0.4517213701761946  1.0000
  C   C1        1.0  0.7059465527465676  0.8018373531785559  0.5894727277586185  1.0000
  C   C2        1.0  0.7452759788595102  0.7320859991161373  0.563869761864396  1.0000
  C   C3        1.0  0.6952543451547656  0.6694400004637019  0.5997573587270536  1.0000
  C   C4        1.0  0.6038376553102153  0.6765496593093517  0.6599149709300676  1.0000
  C   C5        1.0  0.5640177831421553  0.7456553023496044  0.6861356987675933  1.0000
  C   C6        1.0  0.6169138462083837  0.8081498726674854  0.6505878249768883  1.0000
  C   C7        1.0  0.7560261527125789  0.870049064669388  0.5518198521928497  1.0000
  C   C8        1.0  0.7348242399161293  0.5939917852012968  0.5752174547407023  1.0000
  C   C9        1.0  0.7061717968076734  0.6980814360603279  0.9103547828707619  1.0000
  C   C10       1.0  0.7454700047608255  0.7678055564895347  0.9360428318251691  1.0000
  C   C11       1.0  0.6954277454272244  0.8304727489859974  0.9002014401439666  1.0000
  C   C12       1.0  0.6039898560130013  0.8234152715241337  0.8400346860291421  1.0000
  C   C13       1.0  0.5640840307600002  0.7543390396425239  0.8137571662430929  1.0000
  C   C14       1.0  0.6170393571946063  0.691809094801563  0.8492509735516761  1.0000
  C   C15       1.0  0.75627069145947  0.6298457776978523  0.9479336442849019  1.0000
  C   C16       1.0  0.7349638894846109  0.9058909879489082  0.924830903680707  1.0000
  C   C17       1.0  0.793991905273984  0.19818655105500232  0.0895358109903981  1.0000
  C   C18       1.0  0.7546415194660129  0.26791218985196963  0.0638988147756052  1.0000
  C   C19       1.0  0.8046109395122443  0.33056542904550673  0.0997783502177185  1.0000
  C   C20       1.0  0.8960748110521095  0.3235079052686772  0.159937659327845  1.0000
  C   C21       1.0  0.9359223928981208  0.25442582244742346  0.1861880074564866  1.0000
  C   C22       1.0  0.8830266182886106  0.19190805958404414  0.1506545758609761  1.0000
  C   C23       1.0  0.7438110181160624  0.12993825666180922  0.05193380895776299  1.0000
  C   C24       1.0  0.7647377322786608  0.4060050890704404  0.0752907178003781  1.0000
  C   C25       1.0  0.7940480162830994  0.30185046803926957  0.41049016137158384  1.0000
  C   C26       1.0  0.7547494409963702  0.232090907811056  0.43608875408683184  1.0000
  C   C27       1.0  0.8047972805574587  0.16945394010922143  0.40019678404967607  1.0000
  C   C28       1.0  0.8961933352819856  0.1765826967931972  0.3400337091932286  1.0000
  C   C29       1.0  0.9359715117697717  0.2456915627293625  0.3138153226500009  1.0000
  C   C30       1.0  0.8830611929891673  0.3081747281460139  0.3493675591354375  1.0000
  C   C31       1.0  0.7439651123772323  0.3700521846243421  0.44816915354283543  1.0000
  C   C32       1.0  0.765245962511777  0.09400734041799551  0.4247517819555853  1.0000
  C   C33       1.0  0.2940602864329093  0.19813990808891196  0.41048614440020964  1.0000
  C   C34       1.0  0.25470287638705713  0.26789456735929923  0.4360930829354217  1.0000
  C   C35       1.0  0.3047191803130858  0.3305433208075783  0.40020896241041726  1.0000
  C   C36       1.0  0.3961558589793271  0.3234292550102254  0.3400568131356536  1.0000
  C   C37       1.0  0.4359637389577244  0.2543346306606581  0.3138316159524592  1.0000
  C   C38       1.0  0.38311431592024553  0.19183620448554004  0.3493715444202365  1.0000
  C   C39       1.0  0.24399534701867512  0.1299337071751907  0.44815491212158776  1.0000
  C   C40       1.0  0.26512929603601526  0.4059816188501913  0.4247622744189101  1.0000
  C   C41       1.0  0.2939363106677959  0.3018385272458062  0.0895832308574143  1.0000
  C   C42       1.0  0.25467008514197437  0.2320995328778325  0.0639239856466531  1.0000
  C   C43       1.0  0.3046763693721317  0.16944942074060526  0.09980461014758649  1.0000
  C   C44       1.0  0.3961502431015944  0.17654160896649534  0.1599584539580192  1.0000
  C   C45       1.0  0.43598544085423896  0.245631612238384  0.18621561188489716  1.0000
  C   C46       1.0  0.38302078090286784  0.30813841547821863  0.1506934964555882  1.0000
  C   C47       1.0  0.24388139118649121  0.370085204578949  0.051971593744589505  1.0000
  C   C48       1.0  0.2648577198397605  0.0939849015367571  0.075360379027444  1.0000
  C   C49       1.0  0.2060789178906788  0.801944978536483  0.9103823448907277  1.0000
  C   C50       1.0  0.24543729985484936  0.7322171365765798  0.9360312599569554  1.0000
  C   C51       1.0  0.19543722994121993  0.6695605911420587  0.9001586765885534  1.0000
  C   C52       1.0  0.10398801658391932  0.6766153604541004  0.839998374363489  1.0000
  C   C53       1.0  0.0640444875651838  0.7456946864794887  0.8137579570706563  1.0000
  C   C54       1.0  0.11695225632072952  0.8082229174193645  0.8492804636313238  1.0000
  C   C55       1.0  0.2559679659483863  0.8701662714669924  0.9480548613217437  1.0000
  C   C56       1.0  0.23522382245224094  0.5941330516061571  0.9246860375252623  1.0000
  C   C57       1.0  0.2059468351549754  0.6981587491594752  0.5894851000914656  1.0000
  C   C58       1.0  0.24528805119692984  0.7679056379795102  0.5638755819840569  1.0000
  C   C59       1.0  0.19528285546977736  0.8305536253247967  0.5997526545191931  1.0000
  C   C60       1.0  0.1038588195896608  0.8234529665621366  0.6599092739227146  1.0000
  C   C61       1.0  0.06402334297986562  0.754352914861599  0.6861361024223953  1.0000
  C   C62       1.0  0.11690834049262828  0.6918499148811607  0.6505982667687603  1.0000
  C   C63       1.0  0.25601641165549444  0.629934994888693  0.5518309378108553  1.0000
  C   C64       1.0  0.23486882080482727  0.9059958183323716  0.5752006366714184  1.0000
  C   C65       1.0  0.4588778076265926  0.750023744901121  0.7499441426073901  1.0000
  C   C66       1.0  0.04110938689878199  0.2500765628792864  0.2499949688176883  1.0000
  C   C67       1.0  0.5411636844035287  0.24998161675419084  0.2500311194066214  1.0000
  C   C68       1.0  0.958858818696477  0.7499982159896847  0.749937088853244  1.0000
  O   O1        1.0  0.7157921037230467  0.9326329230131594  0.5760012363880023  1.0000
  O   O2        1.0  0.8362076045596042  0.8604070907500587  0.49596815346751544  1.0000
  O   O3        1.0  0.8274661113823853  0.586971694032215  0.5221962516449706  1.0000
  O   O4        1.0  0.6699772115773754  0.540499510333234  0.6091127253683054  1.0000
  O   O5        1.0  0.9229939411876202  0.44001953852217224  0.5734588073639557  1.0000
  O   O6        1.0  0.0939109063436092  0.9432320498921246  0.4198937868987542  1.0000
  O   O7        1.0  0.7163432765335643  0.5672891131870516  0.9236294115820839  1.0000
  O   O8        1.0  0.8360960706471231  0.639436832718417  0.0038595568876261  1.0000
  O   O9        1.0  0.8273887277497565  0.9128958686649331  0.9778985287779349  1.0000
  O   O10       1.0  0.6700939202306343  0.9594125301472618  0.8909506123952724  1.0000
  O   O11       1.0  0.9234847546818442  0.059616061176328124  0.9268889303417395  1.0000
  O   O12       1.0  0.09297908742132681  0.5565362034490634  0.0798465338164789  1.0000
  O   O13       1.0  0.7834714959311385  0.06739872427496611  0.0762818425576555  1.0000
  O   O14       1.0  0.6640923038091345  0.13955416144879257  0.9959728119948822  1.0000
  O   O15       1.0  0.6721629648641284  0.41300005702880344  0.0222513897849907  1.0000
  O   O16       1.0  0.8291964556691909  0.45950774833161745  0.1092755524720417  1.0000
  O   O17       1.0  0.5761853591463578  0.5601645177226262  0.073648532069214  1.0000
  O   O18       1.0  0.4064201912037575  0.0567130996260374  0.9200289058816721  1.0000
  O   O19       1.0  0.7842022579857968  0.4326416530696805  0.42400256808488723  1.0000
  O   O20       1.0  0.6637662631347822  0.36038857775652394  0.5040137220426857  1.0000
  O   O21       1.0  0.6726034330567998  0.08699231899475282  0.47777448155202507  1.0000
  O   O22       1.0  0.8301111317651433  0.0405145263254383  0.3908602260605676  1.0000
  O   O23       1.0  0.5770105087842267  0.9400262294115722  0.42651025309611873  1.0000
  O   O24       1.0  0.4060791202820226  0.4432355054236297  0.5800801669728414  1.0000
  O   O25       1.0  0.2842560487685901  0.06734819713202002  0.4239864403055762  1.0000
  O   O26       1.0  0.16381389567921903  0.1395817414401108  0.5040016448873175  1.0000
  O   O27       1.0  0.1724860911413657  0.4129956494638806  0.4777839739005785  1.0000
  O   O28       1.0  0.33000830751158355  0.4594744457892121  0.3908749501545614  1.0000
  O   O29       1.0  0.07696892432164051  0.5599582738212662  0.4265308544290178  1.0000
  O   O30       1.0  0.9061399093577622  0.05674466188801833  0.5800745216125094  1.0000
  O   O31       1.0  0.2836075848777497  0.43263139777754134  0.07632449160165318  1.0000
  O   O32       1.0  0.16425056830365042  0.3604864394516626  0.9960064509801753  1.0000
  O   O33       1.0  0.17217569097576302  0.08697726091933332  0.0223260234003675  1.0000
  O   O34       1.0  0.32928128337029255  0.040522856239050505  0.1093558809994875  1.0000
  O   O35       1.0  0.07654068764768603  0.9395259840201436  0.0739891512172619  1.0000
  O   O36       1.0  0.9071356991710218  0.4434570406597447  0.9201719345410311  1.0000
  O   O37       1.0  0.21546530163036684  0.9327449084703052  0.9238995041494106  1.0000
  O   O38       1.0  0.3361157698319844  0.8605481687784862  0.0038946899383631994  1.0000
  O   O39       1.0  0.32789853632422716  0.5871529614896575  0.9777119588669336  1.0000
  O   O40       1.0  0.1706838117011387  0.5406105582072769  0.8907617882546646  1.0000
  O   O41       1.0  0.42388280791702465  0.43999125712684883  0.9263495799751097  1.0000
  O   O42       1.0  0.5930749601402638  0.943496101869677  0.07991854465926448  1.0000
  O   O43       1.0  0.21575128310326624  0.5673515867764323  0.5760099384969734  1.0000
  O   O44       1.0  0.3362032650980212  0.6395831745254271  0.49598388551054035  1.0000
  O   O45       1.0  0.3275126827546869  0.9130080851541108  0.522181909935341  1.0000
  O   O46       1.0  0.16999698881672032  0.9594913869913668  0.6090907027133099  1.0000
  O   O47       1.0  0.4230549673876141  0.0599752749184788  0.5734342188745103  1.0000
  O   O48       1.0  0.5938824135567772  0.5567511220434227  0.4199050255542359  1.0000
