data_image0
_chemical_formula_structural       Zn2P2H40C32N14Cl4O4
_chemical_formula_sum              "Zn2 P2 H40 C32 N14 Cl4 O4"
_cell_length_a       9.22623644164585
_cell_length_b       11.97450088996935
_cell_length_c       12.064242488456095
_cell_angle_alpha    67.42720447771016
_cell_angle_beta     69.50533669269628
_cell_angle_gamma    90.09578975372817

_space_group_name_H-M_alt    "P 1"
_space_group_IT_number       1

loop_
  _space_group_symop_operation_xyz
  'x, y, z'

loop_
  _atom_site_type_symbol
  _atom_site_label
  _atom_site_symmetry_multiplicity
  _atom_site_fract_x
  _atom_site_fract_y
  _atom_site_fract_z
  _atom_site_occupancy
  Zn  Zn1       1.0  0.7224024163771361  0.28921973899479525  0.8020473994200331  1.0000
  Zn  Zn2       1.0  0.2775995838539842  0.710781530739915  0.1979475835210495  1.0000
  P   P1        1.0  0.1800695549016993  0.8147734126990256  0.7643536059461625  1.0000
  P   P2        1.0  0.819932572991732  0.18522786780460618  0.23564879822360035  1.0000
  H   H1        1.0  0.5413219635387136  0.6774976223693512  0.8493776105567505  1.0000
  H   H2        1.0  0.4586781465621712  0.32250547421395476  0.15062134456378834  1.0000
  H   H3        1.0  0.6984141084122867  0.6220692473224289  0.7602622821400759  1.0000
  H   H4        1.0  0.3015858241388756  0.37793293348348556  0.23973707045796297  1.0000
  H   H5        1.0  0.5027992894323958  0.548591427832278  0.8177042089995155  1.0000
  H   H6        1.0  0.49720147446529955  0.45140892915640746  0.18229726560063853  1.0000
  H   H7        1.0  0.6650721059647466  0.6839570842748373  0.48726917541698356  1.0000
  H   H8        1.0  0.33492244152698447  0.3160414084540263  0.5127305818074178  1.0000
  H   H9        1.0  0.8009789343464464  0.7061794555663707  0.5548176137805784  1.0000
  H   H10       1.0  0.19901756001432602  0.293817215100077  0.4451814695882278  1.0000
  H   H11       1.0  0.7278773952564991  0.8341969101835645  0.4665870824239563  1.0000
  H   H12       1.0  0.2721206264650391  0.16580159857868176  0.5334117084560007  1.0000
  H   H13       1.0  0.5677722058815462  0.9806452433631634  0.30607149512799475  1.0000
  H   H14       1.0  0.4322252045972803  0.019356008583343996  0.6939272500152426  1.0000
  H   H15       1.0  0.4623933695803828  0.04356566578078259  0.203426439477397  1.0000
  H   H16       1.0  0.5376021082141094  0.95643740942468  0.7965738041024013  1.0000
  H   H17       1.0  0.4512719889553267  0.8803359639327937  0.2818544047576026  1.0000
  H   H18       1.0  0.5487255848885297  0.11966620259455849  0.7181431183271698  1.0000
  H   H19       1.0  0.11900042920032662  0.9626016860891581  0.3644950813474212  1.0000
  H   H20       1.0  0.8809970882414149  0.0373940777339996  0.6355065511269588  1.0000
  H   H21       1.0  0.24102390437411714  0.10803635684565902  0.28807402153269374  1.0000
  H   H22       1.0  0.7589704939372908  0.8919612224988993  0.7119277823311309  1.0000
  H   H23       1.0  0.1259110729215891  0.04479632856541829  0.4583870589909012  1.0000
  H   H24       1.0  0.874085833277448  0.9552021784420075  0.5416145277467662  1.0000
  H   H25       1.0  0.8380699185514189  0.8474569712472328  0.9526052002549222  1.0000
  H   H26       1.0  0.16193299813445347  0.1525424818495296  0.047396852174060214  1.0000
  H   H27       1.0  0.6723354905926155  0.011275522638669598  0.9413567078729628  1.0000
  H   H28       1.0  0.32766593443520975  0.9887229961742249  0.05863699375772325  1.0000
  H   H29       1.0  0.24517907084762672  0.1299793315606621  0.7543637746057925  1.0000
  H   H30       1.0  0.7548215438697453  0.8700201120437254  0.24563974663378496  1.0000
  H   H31       1.0  0.06189320877737711  0.2842094118747979  0.7474683656331892  1.0000
  H   H32       1.0  0.9381084079848773  0.7157900239120351  0.2525257631009623  1.0000
  H   H33       1.0  0.6997271096317165  0.36318158991957006  0.014869182816447253  1.0000
  H   H34       1.0  0.30028001333758436  0.6368160470175183  0.985128253203456  1.0000
  H   H35       1.0  0.804796855821408  0.5397771832628847  0.04038095747466739  1.0000
  H   H36       1.0  0.1952054714764628  0.4602195177155153  0.9596189890629532  1.0000
  H   H37       1.0  0.10863810419528619  0.6807916581755008  0.6328455078879999  1.0000
  H   H38       1.0  0.891361039563435  0.31921235003729004  0.3671541964508195  1.0000
  H   H39       1.0  0.9854687502623488  0.5039448871882469  0.6222899131685795  1.0000
  H   H40       1.0  0.014536972671805875  0.49605732033997885  0.3777078288553853  1.0000
  C   C1        1.0  0.4417954802497873  0.7731099793437863  0.6522004507231998  1.0000
  C   C2        1.0  0.558202761575579  0.22688944878549216  0.3478004164221531  1.0000
  C   C3        1.0  0.31773718128536643  0.9001422506446628  0.5242928538839423  1.0000
  C   C4        1.0  0.6822612522744294  0.09985809445855406  0.4757084403648761  1.0000
  C   C5        1.0  0.5774714700464187  0.6377231232640383  0.7775869720859845  1.0000
  C   C6        1.0  0.4225304093737776  0.3622772354794676  0.22241170665645885  1.0000
  C   C7        1.0  0.6981169006002332  0.7373340194524328  0.5339046725509818  1.0000
  C   C8        1.0  0.3018799772294045  0.26266448516189905  0.46609526502474813  1.0000
  C   C9        1.0  0.45939459330338656  0.9675568399216842  0.2918682540069285  1.0000
  C   C10       1.0  0.5406028455448393  0.0324444144179168  0.7081321402982397  1.0000
  C   C11       1.0  0.19576958009552212  0.023478625505902097  0.37713974112263327  1.0000
  C   C12       1.0  0.804226359761344  0.9765207931310015  0.6228625948333075  1.0000
  C   C13       1.0  0.05482026316872179  0.9777593503823282  0.8507083538223698  1.0000
  C   C14       1.0  0.9451809911607544  0.022237352430885  0.14929686231585737  1.0000
  C   C15       1.0  0.8926378835968689  0.9428872065734093  0.9065082454848866  1.0000
  C   C16       1.0  0.107363725832073  0.057111327794594005  0.09349617569834827  1.0000
  C   C17       1.0  0.7996915672166693  0.0346483767183159  0.8998832312265677  1.0000
  C   C18       1.0  0.20031127854569064  0.9653510703957126  0.10011469829759523  1.0000
  C   C19       1.0  0.11896550714856602  0.10130248038598917  0.7956974173510929  1.0000
  C   C20       1.0  0.8810362514606994  0.8986969673663056  0.2043049571927043  1.0000
  C   C21       1.0  0.017134691793515303  0.18646856783174567  0.7925049027507995  1.0000
  C   C22       1.0  0.982865823630945  0.8135308673968137  0.20749284642202798  1.0000
  C   C23       1.0  0.788284239284323  0.4364183198066343  0.9322561431000693  1.0000
  C   C24       1.0  0.2117211427350725  0.563582057363348  0.06774321845986017  1.0000
  C   C25       1.0  0.8477484533751677  0.5339450288371451  0.9467976402459827  1.0000
  C   C26       1.0  0.15225677946389735  0.46605443494853904  0.053203767953377265  1.0000
  C   C27       1.0  0.9639657602476461  0.6242635656519154  0.8388247701544387  1.0000
  C   C28       1.0  0.03603500365004917  0.37573679133677  0.16117670444571539  1.0000
  C   C29       1.0  0.018463885762990604  0.6135294970897718  0.7201699601992786  1.0000
  C   C30       1.0  0.9815362243379014  0.38647359949353444  0.27982899492126023  1.0000
  C   C31       1.0  0.9501291147905561  0.513584470315763  0.7140851681390502  1.0000
  C   C32       1.0  0.04987543588229217  0.48641773067145505  0.2859120714187641  1.0000
  N   N1        1.0  0.32402748838227063  0.744471290224247  0.771056105376559  1.0000
  N   N2        1.0  0.6759707392583961  0.2555281367084844  0.22894393718782172  1.0000
  N   N3        1.0  0.4421853037516499  0.8442406924789694  0.5345630775775521  1.0000
  N   N4        1.0  0.5578127179698812  0.15575781628327687  0.46543571330240496  1.0000
  N   N5        1.0  0.1836296638700219  0.8960830022909219  0.6238456538704541  1.0000
  N   N6        1.0  0.816371852780705  0.10392102139697096  0.3761567045625965  1.0000
  N   N7        1.0  0.3265122641869667  0.9669354641073298  0.4019991209583011  1.0000
  N   N8        1.0  0.6734859918230995  0.03306396521848849  0.5980025707680169  1.0000
  N   N9        1.0  0.5717481517662079  0.7213879570723947  0.6548289298754426  1.0000
  N   N10       1.0  0.4282498841400296  0.27861055288639863  0.3451706855854795  1.0000
  N   N11       1.0  0.8602543334857913  0.15436603299698248  0.8419575549196665  1.0000
  N   N12       1.0  0.1397472974611702  0.8456334039863974  0.15803739839545022  1.0000
  N   N13       1.0  0.8370173250536439  0.42678136142397  0.8175221249052667  1.0000
  N   N14       1.0  0.1629865296049928  0.5732171776502213  0.1824775291435117  1.0000
  Cl  Cl1       1.0  0.760955044695784  0.3531555126783985  0.5933349183549268  1.0000
  Cl  Cl2       1.0  0.2390418753512549  0.6468493934435812  0.40666008525023056  1.0000
  Cl  Cl3       1.0  0.48307494736834405  0.22932356987424635  0.9579332552288876  1.0000
  Cl  Cl4       1.0  0.516928431043212  0.7706786245719642  0.04206348186277601  1.0000
  O   O1        1.0  0.1562276564261538  0.8927935844449661  0.8519812040774044  1.0000
  O   O2        1.0  0.8437727807414888  0.10720494338202968  0.14802271463967995  1.0000
  O   O3        1.0  0.015407927379762022  0.7203493271768976  0.8579096967900527  1.0000
  O   O4        1.0  0.9845918418063705  0.279651939048172  0.14209087786645097  1.0000
