data_image0
_chemical_formula_structural       Ni3P4H24C14N2O18
_chemical_formula_sum              "Ni3 P4 H24 C14 N2 O18"
_cell_length_a       6.872030946814991
_cell_length_b       9.56527919054784
_cell_length_c       10.29090013284735
_cell_angle_alpha    79.26296780141476
_cell_angle_beta     86.86879264685552
_cell_angle_gamma    79.85925268821924

_space_group_name_H-M_alt    "P 1"
_space_group_IT_number       1

loop_
  _space_group_symop_operation_xyz
  'x, y, z'

loop_
  _atom_site_type_symbol
  _atom_site_label
  _atom_site_symmetry_multiplicity
  _atom_site_fract_x
  _atom_site_fract_y
  _atom_site_fract_z
  _atom_site_occupancy
  Ni  Ni1       1.0  0.5003593921578045  0.5002153857851398  0.49987782474207154  1.0000
  Ni  Ni2       1.0  0.29637943651765386  0.0434090261880655  0.5570010528184139  1.0000
  Ni  Ni3       1.0  0.7035469560331292  0.9567273777919214  0.44325275900062855  1.0000
  P   P1        1.0  0.46128991762046917  0.739847988607913  0.6823257811621912  1.0000
  P   P2        1.0  0.5387145379618445  0.26019595345004387  0.3176565111283053  1.0000
  P   P3        1.0  0.1429262910328291  0.78672678307489  0.4784150216923279  1.0000
  P   P4        1.0  0.8568598413513725  0.21319948210332737  0.5216176447603542  1.0000
  H   H1        1.0  0.989081629258095  0.9665770934249307  0.6568529108278082  1.0000
  H   H2        1.0  0.010914798492144901  0.03339972561038  0.3431494235897431  1.0000
  H   H3        1.0  0.20516596989642005  0.3454441540971017  0.5754331983574301  1.0000
  H   H4        1.0  0.795027589470493  0.6550174617960849  0.4243221997829635  1.0000
  H   H5        1.0  0.37616956479395475  0.29922972160987626  0.6732620346561118  1.0000
  H   H6        1.0  0.6241530486466402  0.7011375733697207  0.3264377382751815  1.0000
  H   H7        1.0  0.5881343454425263  0.0795622767128492  0.6767867135061747  1.0000
  H   H8        1.0  0.4116861844123746  0.9205315566754779  0.323363412347163  1.0000
  H   H9        1.0  0.4548514106415952  0.9949574245950786  0.7802099291593403  1.0000
  H   H10       1.0  0.5450296014638595  0.0050741480927456  0.21993515787862344  1.0000
  H   H11       1.0  0.3626798220639669  0.40776275367328907  0.11885707589058106  1.0000
  H   H12       1.0  0.6373175321667686  0.5921536763893229  0.8812016312623991  1.0000
  H   H13       1.0  0.9108847669129432  0.7115739106878323  0.7220746435055144  1.0000
  H   H14       1.0  0.08912973642910059  0.2881584142247746  0.2779393205705388  1.0000
  H   H15       1.0  0.10761896259300832  0.567154086162887  0.7055688884471747  1.0000
  H   H16       1.0  0.8926791458584658  0.4327506759306771  0.2943978087178535  1.0000
  H   H17       1.0  0.9117660159878441  0.8413381149985001  0.9217104097403773  1.0000
  H   H18       1.0  0.0883749375686449  0.158617008636007  0.07822080120705978  1.0000
  H   H19       1.0  0.9962021836152107  0.8003139128595649  0.16291440459326612  1.0000
  H   H20       1.0  0.00395997945963699  0.1997496104044245  0.8369985963274612  1.0000
  H   H21       1.0  0.23455880606167764  0.5767114502502083  0.2563533264403758  1.0000
  H   H22       1.0  0.7654877514333406  0.42330484316021716  0.7436554608597487  1.0000
  H   H23       1.0  0.3062904781396368  0.4444299244547666  0.8914812091044834  1.0000
  H   H24       1.0  0.6936760136668169  0.5554116045512174  0.10860084073807025  1.0000
  C   C1        1.0  0.1878005793232517  0.7775788617881292  0.6580210968555772  1.0000
  C   C2        1.0  0.8120966801689133  0.22239812639588763  0.34198337121095773  1.0000
  C   C3        1.0  0.06864512828042992  0.6702475378469046  0.7409362001185542  1.0000
  C   C4        1.0  0.9314074034023748  0.3296258571061514  0.2590666527711392  1.0000
  C   C5        1.0  0.10615196730918092  0.6485994921307352  0.8857921992083885  1.0000
  C   C6        1.0  0.8938929569168579  0.3512987230668756  0.1142075271045826  1.0000
  C   C7        1.0  0.01772118421372675  0.7478141630084636  0.9653045439213767  1.0000
  C   C8        1.0  0.982382230929673  0.25213536880318793  0.034667114956988584  1.0000
  C   C9        1.0  0.06275133405006976  0.7252871897596762  0.09880849765823999  1.0000
  C   C10       1.0  0.9373697850024597  0.27471445089614127  0.9011560775202195  1.0000
  C   C11       1.0  0.1921484632462125  0.602325327120802  0.1530727131187034  1.0000
  C   C12       1.0  0.807943113312966  0.39766751579018234  0.8469247747546117  1.0000
  C   C13       1.0  0.233783730281786  0.5272637480075134  0.9459197523278244  1.0000
  C   C14       1.0  0.766210300423907  0.4726298355229518  0.05412080431504758  1.0000
  N   N1        1.0  0.2720138518947692  0.5067300285806198  0.07566111528330309  1.0000
  N   N2        1.0  0.7280078428140585  0.4932049389710968  0.9243748239467277  1.0000
  O   O1        1.0  0.5437061270652278  0.5893883950008599  0.6557379923936748  1.0000
  O   O2        1.0  0.45678732844449854  0.4107507498783605  0.34417310660172956  1.0000
  O   O3        1.0  0.5177042005203274  0.8647837515360665  0.5744895012912392  1.0000
  O   O4        1.0  0.4821001247331935  0.13534618635116405  0.4255285461482499  1.0000
  O   O5        1.0  0.5096942326029463  0.7568372925224836  0.821394542065853  1.0000
  O   O6        1.0  0.4902084056891383  0.2431538680702446  0.17862078788290592  1.0000
  O   O7        1.0  0.2750678848311167  0.6636321886678119  0.4273721417194307  1.0000
  O   O8        1.0  0.7236824673417529  0.3354544051198616  0.5732822509451834  1.0000
  O   O9        1.0  0.19195367370939914  0.9393781166304791  0.4108977086507931  1.0000
  O   O10       1.0  0.8082449553158354  0.0603467134991149  0.5889875196065686  1.0000
  O   O11       1.0  0.9214828221682936  0.7845053758439279  0.46294361168966686  1.0000
  O   O12       1.0  0.0782652526524714  0.2159197619580624  0.5365918383631791  1.0000
  O   O13       1.0  0.12872251338934856  0.9206587605925092  0.6910076439907581  1.0000
  O   O14       1.0  0.8712438280112097  0.07929116250125649  0.3091017827279926  1.0000
  O   O15       1.0  0.2977273331861455  0.3864877007867022  0.6231690648807626  1.0000
  O   O16       1.0  0.7023580495712453  0.6138630602744257  0.37672713727585  1.0000
  O   O17       1.0  0.45168224511127875  0.08747166868003121  0.7184632162764115  1.0000
  O   O18       1.0  0.548126434944862  0.9125307876391845  0.2816132743405006  1.0000
