data_image0
_chemical_formula_structural       Cd2H32C40N4O8
_chemical_formula_sum              "Cd2 H32 C40 N4 O8"
_cell_length_a       9.617815598613209
_cell_length_b       10.442264126947974
_cell_length_c       10.562032045737974
_cell_angle_alpha    111.89383372779872
_cell_angle_beta     105.45611599147158
_cell_angle_gamma    97.86153648314013

_space_group_name_H-M_alt    "P 1"
_space_group_IT_number       1

loop_
  _space_group_symop_operation_xyz
  'x, y, z'

loop_
  _atom_site_type_symbol
  _atom_site_label
  _atom_site_symmetry_multiplicity
  _atom_site_fract_x
  _atom_site_fract_y
  _atom_site_fract_z
  _atom_site_occupancy
  Cd  Cd1       1.0  0.8852506495690305  0.0544078035207107  0.3469234122771923  1.0000
  Cd  Cd2       1.0  0.1147495072287228  0.9455904889106747  0.653078853011081  1.0000
  H   H1        1.0  0.5753306216269819  0.8497442832645135  0.41664536679357406  1.0000
  H   H2        1.0  0.4246761678440976  0.1502583708946332  0.5833564420002872  1.0000
  H   H3        1.0  0.5834032868992836  0.8151221934084205  0.5723391996307969  1.0000
  H   H4        1.0  0.416594209994514  0.18487399244941122  0.4276578079477815  1.0000
  H   H5        1.0  0.6756665099182868  0.590908483069434  0.5746003429163551  1.0000
  H   H6        1.0  0.3243353671273042  0.40908776588133117  0.4253949678152296  1.0000
  H   H7        1.0  0.6360841398142013  0.3332892216158925  0.42534770327463167  1.0000
  H   H8        1.0  0.36391920272046013  0.6667081632573755  0.5746436732971958  1.0000
  H   H9        1.0  0.48880473671203367  0.3956517542675968  0.036492511879743  1.0000
  H   H10       1.0  0.5111948934816084  0.6043519922639007  0.9635021934337188  1.0000
  H   H11       1.0  0.5281169937063552  0.6546604909416516  0.18684929387675453  1.0000
  H   H12       1.0  0.4718844125465722  0.3453421404255651  0.8131501825016372  1.0000
  H   H13       1.0  0.42106059649115213  0.1294134511791682  0.1254432249968787  1.0000
  H   H14       1.0  0.5789407323120132  0.8705891329676376  0.874560001675583  1.0000
  H   H15       1.0  0.5215453929092958  0.16422659994129424  0.017846947017510228  1.0000
  H   H16       1.0  0.4784512588647162  0.8357663877889011  0.9821476987692676  1.0000
  H   H17       1.0  0.06325304655695156  0.399463746659215  0.5394333356303989  1.0000
  H   H18       1.0  0.9367447331746774  0.6005377349466909  0.4605695169709775  1.0000
  H   H19       1.0  0.05725322830974731  0.6153355854546945  0.7446991232021175  1.0000
  H   H20       1.0  0.9427446288716511  0.3846659433716226  0.2552999791052031  1.0000
  H   H21       1.0  0.7104838613887521  0.33789021040164596  0.7859286822211402  1.0000
  H   H22       1.0  0.2895136301821353  0.6621102012266817  0.2140736956408062  1.0000
  H   H23       1.0  0.729686806687596  0.1356218607820594  0.5769627685877339  1.0000
  H   H24       1.0  0.270315563906813  0.8643807066739487  0.42304261220014183  1.0000
  H   H25       1.0  0.91187418328019  0.7744903316779387  0.822999843513152  1.0000
  H   H26       1.0  0.08812706807321291  0.22551220524846372  0.17700713345336538  1.0000
  H   H27       1.0  0.9000793831000494  0.9740931855008342  0.039749901419895824  1.0000
  H   H28       1.0  0.0999150055066096  0.0259039551355258  0.9602542445810585  1.0000
  H   H29       1.0  0.8216161856848172  0.706535696049464  0.23333633566657835  1.0000
  H   H30       1.0  0.1783869825878739  0.29346158257787636  0.7666634790668921  1.0000
  H   H31       1.0  0.8256186329020706  0.4935359468275493  0.024837915483637056  1.0000
  H   H32       1.0  0.17438619220821752  0.5064634786743554  0.9751631276970656  1.0000
  C   C1        1.0  0.796200735605069  0.8641646821343089  0.5476965008893017  1.0000
  C   C2        1.0  0.20379907494462654  0.1358325049041937  0.4523081023800798  1.0000
  C   C3        1.0  0.6278171587910746  0.7983766382197358  0.4833596246071891  1.0000
  C   C4        1.0  0.372183056094002  0.20162168962696106  0.5166398279605318  1.0000
  C   C5        1.0  0.6017035359396202  0.6405809032245812  0.3911242580796212  1.0000
  C   C6        1.0  0.39829459536298384  0.3594174580037119  0.6088708862572574  1.0000
  C   C7        1.0  0.6346027808800585  0.5483709521993065  0.45637054578934066  1.0000
  C   C8        1.0  0.3653986113333403  0.4516274415923079  0.5436244978791934  1.0000
  C   C9        1.0  0.6126338454714997  0.40342301279146403  0.3720514131801878  1.0000
  C   C10       1.0  0.38736901223096243  0.5965765169226529  0.627939696328589  1.0000
  C   C11       1.0  0.558394516035186  0.34503199628802156  0.21968053355077188  1.0000
  C   C12       1.0  0.4416078761975228  0.6549696900720505  0.7803093713214366  1.0000
  C   C13       1.0  0.529927195242344  0.4379896569834828  0.154770461503567  1.0000
  C   C14       1.0  0.4700745959835331  0.5620141033868294  0.8452248017466816  1.0000
  C   C15       1.0  0.5510661542043707  0.5834952324344941  0.23925581156716197  1.0000
  C   C16       1.0  0.448935329498326  0.41650744615313334  0.7607399145171739  1.0000
  C   C17       1.0  0.5286865208560696  0.1861369915803976  0.1298892765889405  1.0000
  C   C18       1.0  0.47131218676802433  0.8138635096030526  0.870106817226791  1.0000
  C   C19       1.0  0.6519540485933603  0.1281697660147501  0.1960396222119485  1.0000
  C   C20       1.0  0.348047030773948  0.8718317717646896  0.8039612545740551  1.0000
  C   C21       1.0  0.9852202014944778  0.39125319332041647  0.5961674781932658  1.0000
  C   C22       1.0  0.014777597599597018  0.6087483000905892  0.40383443683460035  1.0000
  C   C23       1.0  0.9809619713912667  0.511326733125891  0.7104788467257493  1.0000
  C   C24       1.0  0.019036154588434266  0.4886758538728984  0.2895216678945118  1.0000
  C   C25       1.0  0.881518629558073  0.494483824322991  0.7829299736727364  1.0000
  C   C26       1.0  0.11848075424674682  0.505515542971672  0.2170715498130491  1.0000
  C   C27       1.0  0.7909638079476053  0.35656179209914274  0.735140564666615  1.0000
  C   C28       1.0  0.20903447597865468  0.6434375564710066  0.26486161742430164  1.0000
  C   C29       1.0  0.8009055969077535  0.2434255671862858  0.6187582068312594  1.0000
  C   C30       1.0  0.19909436321855623  0.7565759400635415  0.38124426613338613  1.0000
  C   C31       1.0  0.8737903875619112  0.6164735827880039  0.9071342879830625  1.0000
  C   C32       1.0  0.12621065308051277  0.3835279313812238  0.09286846394996225  1.0000
  C   C33       1.0  0.8951302146627215  0.754322688174547  0.9126276701056996  1.0000
  C   C34       1.0  0.10486801117622241  0.24567662498029816  0.08737732470576279  1.0000
  C   C35       1.0  0.8878698223365687  0.8659190597345655  0.032354670401105075  1.0000
  C   C36       1.0  0.1121268575165004  0.1340824031468273  0.9676488408053956  1.0000
  C   C37       1.0  0.8417960489138706  0.7161972508965775  0.14017707529944795  1.0000
  C   C38       1.0  0.1582058615336948  0.2838032474348964  0.8598217305684841  1.0000
  C   C39       1.0  0.8440452522439942  0.5980817885479724  0.023208899037442332  1.0000
  C   C40       1.0  0.15595418964814908  0.4019176141619952  0.9767898117277979  1.0000
  N   N1        1.0  0.8966189413953245  0.2597747637185535  0.5502644616813086  1.0000
  N   N2        1.0  0.10338128752928104  0.7402278017037461  0.44973942359627733  1.0000
  N   N3        1.0  0.8641027907512253  0.8481337981846339  0.1453655081447495  1.0000
  N   N4        1.0  0.13589549317503466  0.15186555038552293  0.8546366739461675  1.0000
  O   O1        1.0  0.8584667883700448  0.9219834469299003  0.4823024351343078  1.0000
  O   O2        1.0  0.1415387797249181  0.0780233434446203  0.5177110279891437  1.0000
  O   O3        1.0  0.87199661917073  0.8514653005503093  0.6585908165524827  1.0000
  O   O4        1.0  0.1280028698162425  0.14852656712990614  0.3414098168411286  1.0000
  O   O5        1.0  0.7811171447031598  0.16393803365076562  0.1889387904617195  1.0000
  O   O6        1.0  0.21888360777852264  0.8360624105408834  0.8110634867318824  1.0000
  O   O7        1.0  0.623104066751388  0.0515195631750061  0.26063585425126223  1.0000
  O   O8        1.0  0.37689672445517897  0.9484809046268551  0.7393645477953114  1.0000
