data_image0
_chemical_formula_structural       Ni4H48C72S4Br4N8O18
_chemical_formula_sum              "Ni4 H48 C72 S4 Br4 N8 O18"
_cell_length_a       13.849875707227088
_cell_length_b       15.50208752108517
_cell_length_c       16.031335235408328
_cell_angle_alpha    78.88042627743425
_cell_angle_beta     64.42491023805076
_cell_angle_gamma    63.46607625993161

_space_group_name_H-M_alt    "P 1"
_space_group_IT_number       1

loop_
  _space_group_symop_operation_xyz
  'x, y, z'

loop_
  _atom_site_type_symbol
  _atom_site_label
  _atom_site_symmetry_multiplicity
  _atom_site_fract_x
  _atom_site_fract_y
  _atom_site_fract_z
  _atom_site_occupancy
  Ni  Ni1       1.0  0.7384508523816253  0.30322284623259327  0.47246239899129716  1.0000
  Ni  Ni2       1.0  0.9582561685810517  0.30323742584966584  0.5275599861699123  1.0000
  Ni  Ni3       1.0  0.23581343743619235  0.803237502199117  0.9724634145205472  1.0000
  Ni  Ni4       1.0  0.9608701215001219  0.8032427454165398  0.02762891015441236  1.0000
  H   H1        1.0  0.73488226777728  0.42515741455111566  0.5538180355486448  1.0000
  H   H2        1.0  0.8398482051695312  0.4251667496276069  0.44622024915934594  1.0000
  H   H3        1.0  0.036074915088157515  0.9251870757322035  0.053820123699708185  1.0000
  H   H4        1.0  0.03873810586226515  0.9251764687261285  0.946215990509728  1.0000
  H   H5        1.0  0.4276121423059675  0.586117398476432  0.7588606659402334  1.0000
  H   H6        1.0  0.9860530844362002  0.5862118520225508  0.24130243381945607  1.0000
  H   H7        1.0  0.9775610833486823  0.08608208096003979  0.2586988334638746  1.0000
  H   H8        1.0  0.9363354509665738  0.0861298561234847  0.7412533710645804  1.0000
  H   H9        1.0  0.07561709507749735  0.63535430426284  0.8081596197262542  1.0000
  H   H10       1.0  0.28901949780672703  0.6352433351495392  0.19184125989065148  1.0000
  H   H11       1.0  0.23094466579381387  0.1354166773612278  0.30802374619050005  1.0000
  H   H12       1.0  0.6336833189209087  0.13529509553302427  0.69193224563778  1.0000
  H   H13       1.0  0.3736617167075306  0.43684760123537103  0.5942512949495866  1.0000
  H   H14       1.0  0.18960235237770456  0.4366190598530438  0.40561841016779715  1.0000
  H   H15       1.0  0.3453607685104673  0.9366946080598025  0.09425798583777831  1.0000
  H   H16       1.0  0.7180335335506103  0.9366587009464098  0.9057299421023476  1.0000
  H   H17       1.0  0.5140751406935921  0.35674481492792137  0.455440779593495  1.0000
  H   H18       1.0  0.12912583245630327  0.35684517320970605  0.5445640642548568  1.0000
  H   H19       1.0  0.42388739490211685  0.8567034198159501  0.955471514612711  1.0000
  H   H20       1.0  0.7196627486556011  0.8566542483185271  0.044452821979994867  1.0000
  H   H21       1.0  0.4224546211070217  0.2793314555716861  0.40648416706426377  1.0000
  H   H22       1.0  0.29828795707736316  0.2793143547418708  0.5934078087526872  1.0000
  H   H23       1.0  0.6418660298105081  0.779302817005174  0.906507019836667  1.0000
  H   H24       1.0  0.5790271199985708  0.7793111174906501  0.09332415850709452  1.0000
  H   H25       1.0  0.7124940922701201  0.006881231131281098  0.4040159763184903  1.0000
  H   H26       1.0  0.2803187286625644  0.006973881734275298  0.5961153606904688  1.0000
  H   H27       1.0  0.6267721540949296  0.5068412339287747  0.9039747650001217  1.0000
  H   H28       1.0  0.8664695677769316  0.5068190506576613  0.09610736290649416  1.0000
  H   H29       1.0  0.7935455112208769  0.0974792252466585  0.4492943897879727  1.0000
  H   H30       1.0  0.10873819489936642  0.09762862039261216  0.5507474724991469  1.0000
  H   H31       1.0  0.4098475669928945  0.5974645686161322  0.9492732379460876  1.0000
  H   H32       1.0  0.9928856000458239  0.5973770678286668  0.05073528333812772  1.0000
  H   H33       1.0  0.8261483328662607  0.015221834311596193  0.06515684496850589  1.0000
  H   H34       1.0  0.15893231089903997  0.015127312515545598  0.9349686642400528  1.0000
  H   H35       1.0  0.8436418216792916  0.5151829652010704  0.5650632467085545  1.0000
  H   H36       1.0  0.6412849463165102  0.5152020852289779  0.434907555002205  1.0000
  H   H37       1.0  0.6450560798559195  0.12297828665334257  0.1890377467306621  1.0000
  H   H38       1.0  0.23207371865282064  0.12293258088712376  0.8110372136324528  1.0000
  H   H39       1.0  0.7930366415282889  0.622934502943636  0.6889954540928971  1.0000
  H   H40       1.0  0.5840980933571628  0.6230180339088564  0.31101212785414134  1.0000
  H   H41       1.0  0.6372386471939464  0.8681912990935672  0.35320306128620865  1.0000
  H   H42       1.0  0.49452129048799515  0.8682087082544571  0.6467701165655767  1.0000
  H   H43       1.0  0.8913080457505557  0.36819349763721476  0.8532488446426144  1.0000
  H   H44       1.0  0.7404014326898076  0.3683170378675982  0.14675007302738424  1.0000
  H   H45       1.0  0.8217707596959154  0.7707302580242015  0.2227636624485074  1.0000
  H   H46       1.0  0.407519454372796  0.7706909705483155  0.7771823465411176  1.0000
  H   H47       1.0  0.934600221667836  0.27070647473681925  0.7228243812989775  1.0000
  H   H48       1.0  0.7945357125401528  0.27078418502242124  0.27715942538460336  1.0000
  C   C1        1.0  0.5436434805851247  0.45747107874349513  0.6148025668743815  1.0000
  C   C2        1.0  0.9987622776461861  0.4574448851094884  0.38520533210240143  1.0000
  C   C3        1.0  0.13412829578920332  0.957346424890716  0.11475893159995819  1.0000
  C   C4        1.0  0.9086121084462059  0.9572946164979255  0.8852089369284997  1.0000
  C   C5        1.0  0.4135930600258106  0.5067583261489403  0.6710987383653518  1.0000
  C   C6        1.0  0.07952204744777444  0.5067346219138145  0.32896681768160363  1.0000
  C   C7        1.0  0.15870880239644686  0.006691426738939298  0.1709425631474133  1.0000
  C   C8        1.0  0.8347578060469021  0.006620756814200498  0.8289653436203253  1.0000
  C   C9        1.0  0.36801053137020295  0.571462787367899  0.7422003121421953  1.0000
  C   C10       1.0  0.06035818078361638  0.5715295647779755  0.2579250624102443  1.0000
  C   C11       1.0  0.06847742562840146  0.0714511333081731  0.24201877135703853  1.0000
  C   C12       1.0  0.8601195125293656  0.07142678921453438  0.7579276875365082  1.0000
  C   C13       1.0  0.24644923910794592  0.6167209752908746  0.7919549618733444  1.0000
  C   C14       1.0  0.13668167096900422  0.6167679598175437  0.20815966442640393  1.0000
  C   C15       1.0  0.09501845096153977  0.11672153468160928  0.291783758901687  1.0000
  C   C16       1.0  0.7882845908450234  0.11664864501837259  0.7081788256134022  1.0000
  C   C17       1.0  0.16983914277290052  0.5986453697831139  0.7694937056376789  1.0000
  C   C18       1.0  0.2314849228018048  0.5985748494136728  0.23052047884958435  1.0000
  C   C19       1.0  0.21213480958901698  0.09867715228243411  0.2693401850727782  1.0000
  C   C20       1.0  0.6892236967705401  0.0985850983494601  0.7306333235137288  1.0000
  C   C21       1.0  0.21690618574359638  0.5346280240540295  0.6981407638221028  1.0000
  C   C22       1.0  0.24849874002737235  0.5344273984669741  0.30175272850007673  1.0000
  C   C23       1.0  0.3004000758932079  0.0345728704713295  0.19808205957276936  1.0000
  C   C24       1.0  0.6650479392759577  0.0345231398892736  0.8019273731619309  1.0000
  C   C25       1.0  0.3372060233303671  0.4876978046799181  0.6492955060361112  1.0000
  C   C26       1.0  0.17509027210127912  0.487536414312423  0.3506454327762257  1.0000
  C   C27       1.0  0.27589874200269543  0.987604987734663  0.1492167591206197  1.0000
  C   C28       1.0  0.7366048778435116  0.9875620243963252  0.8507378557287171  1.0000
  C   C29       1.0  0.1943843301591456  0.6856931245373802  0.8703971535071916  1.0000
  C   C30       1.0  0.11984292804948637  0.685730420380743  0.129698721373977  1.0000
  C   C31       1.0  0.9996433699797577  0.1856696659074188  0.3702540765168225  1.0000
  C   C32       1.0  0.8146602699569171  0.1856157189775729  0.6297380723119872  1.0000
  C   C33       1.0  0.5545618328505738  0.2792951740489826  0.44332367455152183  1.0000
  C   C34       1.0  0.16606442907699664  0.2793866872128774  0.5566749744203108  1.0000
  C   C35       1.0  0.47299151555156965  0.779237108976389  0.9433701992907261  1.0000
  C   C36       1.0  0.7479998002543057  0.7792001749694251  0.05653583184405169  1.0000
  C   C37       1.0  0.5033684202012624  0.23569755486091984  0.41706010219439804  1.0000
  C   C38       1.0  0.2608753185312835  0.23574961535592814  0.5829067342651371  1.0000
  C   C39       1.0  0.5940329299416333  0.7356716501839813  0.917053390088775  1.0000
  C   C40       1.0  0.6705107352734315  0.735667215556326  0.08279866385500169  1.0000
  C   C41       1.0  0.5602508847536214  0.13609168920937256  0.40147133386084033  1.0000
  C   C42       1.0  0.3034715171340777  0.13616090241770706  0.5985921079483703  1.0000
  C   C43       1.0  0.6523117193581099  0.6360816328802698  0.9014636545429583  1.0000
  C   C44       1.0  0.7117504479432952  0.6360864471909479  0.09850615273457215  1.0000
  C   C45       1.0  0.6657094313036039  0.0846071014219092  0.41430974899689943  1.0000
  C   C46       1.0  0.24941052941061773  0.08469978702598982  0.5858123604092285  1.0000
  C   C47       1.0  0.5855676284842557  0.5845598381603095  0.9142602766461962  1.0000
  C   C48       1.0  0.8300378718956765  0.5845515011038315  0.08574060350346009  1.0000
  C   C49       1.0  0.7110688031069968  0.13418416980160686  0.4398274320939424  1.0000
  C   C50       1.0  0.15450706308443068  0.13430902685495738  0.5602621813836067  1.0000
  C   C51       1.0  0.46511203701228937  0.6341436166615823  0.9398237523494616  1.0000
  C   C52       1.0  0.9009480420396657  0.6340826498345178  0.0601902832855501  1.0000
  C   C53       1.0  0.7820623786180435  0.9856446943070052  0.13022998668350994  1.0000
  C   C54       1.0  0.23250654600712994  0.985571129578588  0.869852550251139  1.0000
  C   C55       1.0  0.8521440741477876  0.48559898943160806  0.6301785461157865  1.0000
  C   C56       1.0  0.6623035142229129  0.48565526303207207  0.36979344818622206  1.0000
  C   C57       1.0  0.6814550588152245  0.0451816700819236  0.19898589165006106  1.0000
  C   C58       1.0  0.2734669446923875  0.045144754246131  0.8010702134627934  1.0000
  C   C59       1.0  0.8244568287750836  0.5451458675226774  0.6989403845968456  1.0000
  C   C60       1.0  0.6304448725649082  0.545240972955014  0.30102980253762013  1.0000
  C   C61       1.0  0.6269772126751506  0.0034029094791279  0.2806635415164322  1.0000
  C   C62       1.0  0.3695778462028655  0.0033999120370679994  0.7193341289585363  1.0000
  C   C63       1.0  0.8389660951176056  0.5033909289623749  0.7806625137915051  1.0000
  C   C64       1.0  0.6576317210873982  0.5035083581814063  0.2193210172240684  1.0000
  C   C65       1.0  0.6765184701148353  0.9032516097741593  0.2903558789158042  1.0000
  C   C66       1.0  0.42018790122535377  0.9032552736637243  0.7096341434079748  1.0000
  C   C67       1.0  0.8798139203747438  0.40325359675055933  0.7903923248646408  1.0000
  C   C68       1.0  0.7168684533015651  0.40336165167942545  0.20960774419176445  1.0000
  C   C69       1.0  0.7782541933979062  0.8489407577957165  0.21824846130640196  1.0000
  C   C70       1.0  0.3728426749236461  0.8488984120302446  0.7817367851284802  1.0000
  C   C71       1.0  0.9044670385762641  0.3489175613723389  0.7182975880903798  1.0000
  C   C72       1.0  0.7465083785839396  0.34899464457950563  0.2817053410954245  1.0000
  S   S1        1.0  0.4970203528166335  0.07819218316977582  0.36875691884471007  1.0000
  S   S2        1.0  0.4246770999539109  0.07820052764643749  0.6312079024644675  1.0000
  S   S3        1.0  0.8061321921493627  0.5781705762023179  0.8687486277919876  1.0000
  S   S4        1.0  0.6157705465267113  0.5782457760673552  0.13119704187453615  1.0000
  Br  Br1       1.0  0.11337332205685167  0.5103527692389135  0.6656017639439469  1.0000
  Br  Br2       1.0  0.3767407908914108  0.5096185406277627  0.33391584676930125  1.0000
  Br  Br3       1.0  0.46074856173373036  0.010082266676604897  0.16576517055282386  1.0000
  Br  Br4       1.0  0.5291431001546625  0.010089693591233101  0.8344620105693964  1.0000
  N   N1        1.0  0.8295871418957078  0.8890301858972831  0.13913057503230422  1.0000
  N   N2        1.0  0.2815137336867791  0.8889632636687707  0.860917427194096  1.0000
  N   N3        1.0  0.8922440767545793  0.388997533246723  0.6391367386136938  1.0000
  N   N4        1.0  0.7187069446424061  0.3890473228382874  0.3608673811029774  1.0000
  N   N5        1.0  0.6571369336928541  0.23021811345839888  0.45333399188116635  1.0000
  N   N6        1.0  0.11251417871453374  0.23033517505493245  0.5466819656363883  1.0000
  N   N7        1.0  0.40948344876851883  0.7301552250313535  0.953417256379318  1.0000
  N   N8        1.0  0.8605362557988555  0.7300885939817406  0.046583588083365365  1.0000
  O   O1        1.0  0.5727590226447317  0.39538034317160947  0.5565981916819214  1.0000
  O   O2        1.0  0.031750411963848486  0.3953414142818303  0.4433958919765431  1.0000
  O   O3        1.0  0.2252690826890102  0.8951267254615728  0.056641582034558366  1.0000
  O   O4        1.0  0.8795557746165837  0.8951788519793169  0.9434131325529267  1.0000
  O   O5        1.0  0.6138548896198232  0.48130704709060257  0.6262581927329479  1.0000
  O   O6        1.0  0.9047171385927013  0.48130795295363527  0.3737461802720079  1.0000
  O   O7        1.0  0.02860820579154223  0.9812757249899133  0.12623295832015208  1.0000
  O   O8        1.0  0.9902127274088243  0.9811710635223818  0.8737588445460959  1.0000
  O   O9        1.0  0.26615225530929376  0.707218936847127  0.8824839971838898  1.0000
  O   O10       1.0  0.026572720628394  0.70714059097876  0.11759120180720119  1.0000
  O   O11       1.0  0.8943008496592029  0.20705593530917094  0.3824023388061307  1.0000
  O   O12       1.0  0.898611206785546  0.2070082496155621  0.6176034433727653  1.0000
  O   O13       1.0  0.08453060101732729  0.7148624875645808  0.9161188973878326  1.0000
  O   O14       1.0  0.20045195079843844  0.7149506482904682  0.08398285031134389  1.0000
  O   O15       1.0  0.03459126668830245  0.21490961571226555  0.41596126964947905  1.0000
  O   O16       1.0  0.7504837768193015  0.21486551897388034  0.5840227461484632  1.0000
  O   O17       1.0  0.8089471386583682  0.38202241189834746  0.49999047929933493  1.0000
  O   O18       1.0  0.05906105478519644  0.8820431535641403  0.9999660012446514  1.0000
