data_image0
_chemical_formula_structural       Gd2P2H6C2O12
_chemical_formula_sum              "Gd2 P2 H6 C2 O12"
_cell_length_a       6.541073001761437
_cell_length_b       6.954590197100257
_cell_length_c       8.185625849413034
_cell_angle_alpha    114.3939839213812
_cell_angle_beta     98.74068408600812
_cell_angle_gamma    90.21068696808965

_space_group_name_H-M_alt    "P 1"
_space_group_IT_number       1

loop_
  _space_group_symop_operation_xyz
  'x, y, z'

loop_
  _atom_site_type_symbol
  _atom_site_label
  _atom_site_symmetry_multiplicity
  _atom_site_fract_x
  _atom_site_fract_y
  _atom_site_fract_z
  _atom_site_occupancy
  Gd  Gd1       1.0  0.12064492093975333  0.21797833388394136  0.9344295841853592  1.0000
  Gd  Gd2       1.0  0.8793531859024668  0.7820263089812443  0.0655730192471466  1.0000
  P   P1        1.0  0.6703043763443192  0.2531106434253942  0.010632808713587771  1.0000
  P   P2        1.0  0.32969120983569417  0.7468827191038869  0.9893571536660988  1.0000
  H   H1        1.0  0.6491785720138525  0.33706400840496537  0.1957560082052652  1.0000
  H   H2        1.0  0.35080999418860154  0.6629388590087189  0.8042401276314166  1.0000
  H   H3        1.0  0.107626694129408  0.2880879406856991  0.3053413114476058  1.0000
  H   H4        1.0  0.892374649399038  0.7119213734506644  0.6946583196247929  1.0000
  H   H5        1.0  0.11568377267952461  0.5154615525832044  0.3067702719328196  1.0000
  H   H6        1.0  0.8843229588321364  0.4845321230863534  0.693230714783816  1.0000
  C   C1        1.0  0.9931808358658927  0.10995882050099941  0.4991876277351892  1.0000
  C   C2        1.0  0.006827192548172389  0.8900554325812067  0.5008204743397471  1.0000
  O   O1        1.0  0.804936712002075  0.06071029367009122  0.9725761402520731  1.0000
  O   O2        1.0  0.1950598082630748  0.939294308252393  0.02742506473371268  1.0000
  O   O3        1.0  0.45444697006474405  0.2000688491608358  0.8972846566615615  1.0000
  O   O4        1.0  0.5455566730022454  0.7999308638043203  0.10270584082355329  1.0000
  O   O5        1.0  0.8057173991353113  0.41575071861907975  0.9812770457661557  1.0000
  O   O6        1.0  0.1942803903069219  0.5842506788663541  0.018720757366182283  1.0000
  O   O7        1.0  0.0219125793885482  0.266760830186584  0.6528728252585339  1.0000
  O   O8        1.0  0.9781124957784044  0.7332252896993835  0.3471360300930754  1.0000
  O   O9        1.0  0.04468237563246192  0.8852409996303339  0.6551407001700582  1.0000
  O   O10       1.0  0.9553029357689483  0.11475869976610649  0.3448552497323334  1.0000
  O   O11       1.0  0.17656224987748462  0.3762158020928297  0.2573435054373476  1.0000
  O   O12       1.0  0.8234315294475041  0.6237890098987648  0.7426684899637408  1.0000
