data_image0
_chemical_formula_structural       MnH16C8S2N2Cl2O2
_chemical_formula_sum              "Mn1 H16 C8 S2 N2 Cl2 O2"
_cell_length_a       6.740821140476905
_cell_length_b       6.76088394144351
_cell_length_c       8.813996674599908
_cell_angle_alpha    86.63746291561488
_cell_angle_beta     83.95593694343472
_cell_angle_gamma    65.40124752656659

_space_group_name_H-M_alt    "P 1"
_space_group_IT_number       1

loop_
  _space_group_symop_operation_xyz
  'x, y, z'

loop_
  _atom_site_type_symbol
  _atom_site_label
  _atom_site_symmetry_multiplicity
  _atom_site_fract_x
  _atom_site_fract_y
  _atom_site_fract_z
  _atom_site_occupancy
  Mn  Mn1       1.0  0.499993056684758  5.980286822200384e-06  0.5000043562870644  1.0000
  H   H1        1.0  0.3425082717244692  0.5036891870765103  0.5589934052273975  1.0000
  H   H2        1.0  0.6574813455367661  0.49629191533058037  0.44100535593229745  1.0000
  H   H3        1.0  0.9987008062057042  0.15215335846481537  0.4465321477210721  1.0000
  H   H4        1.0  0.0013190277845822856  0.8478341165131056  0.5534594632044046  1.0000
  H   H5        1.0  0.0399858302948459  0.11972513619469535  0.16046459170745916  1.0000
  H   H6        1.0  0.960021887713971  0.8802770594385549  0.8395374799038535  1.0000
  H   H7        1.0  0.21834928492599195  0.06885479223617348  0.9836598611892028  1.0000
  H   H8        1.0  0.781659967747693  0.9311473724560599  0.016337555813457482  1.0000
  H   H9        1.0  0.2629317300936336  0.2072190028117545  0.13654662837774367  1.0000
  H   H10       1.0  0.7370755185327479  0.7927734591271901  0.8634581979304771  1.0000
  H   H11       1.0  0.34934988999087574  0.5027397455602838  0.1826457487461681  1.0000
  H   H12       1.0  0.6506468283635201  0.4972673736191595  0.817359208311423  1.0000
  H   H13       1.0  0.26335525124323306  0.6639677362438264  0.011460619500027717  1.0000
  H   H14       1.0  0.7366401331457623  0.33604263029743464  0.9885431553164847  1.0000
  H   H15       1.0  0.08613306408676634  0.7379703981175753  0.18748676569916256  1.0000
  H   H16       1.0  0.9138684350648986  0.2620432039651917  0.8125175252753676  1.0000
  C   C1        1.0  0.18955270847688138  0.501231881644749  0.5325542492812687  1.0000
  C   C2        1.0  0.8104259377514537  0.49876870186764677  0.46743537699359894  1.0000
  C   C3        1.0  0.9999742843970835  0.30741906045251  0.47082339258101774  1.0000
  C   C4        1.0  1.0529643788029524e-05  0.6925701490841831  0.5291696896584597  1.0000
  C   C5        1.0  0.20611454900666357  0.08509274171993299  0.10806978615902099  1.0000
  C   C6        1.0  0.7938925071239141  0.9149110743468466  0.8919311267989726  1.0000
  C   C7        1.0  0.25621040354132424  0.6665256687459472  0.1365141666941057  1.0000
  C   C8        1.0  0.7437898146948072  0.33347657118142143  0.863491881845924  1.0000
  S   S1        1.0  0.3933542053282864  0.8304168664280381  0.1821615350857826  1.0000
  S   S2        1.0  0.6066540249039036  0.16958045987706782  0.8178418567007879  1.0000
  N   N1        1.0  0.18993725718553373  0.3083352598669649  0.5031876469835694  1.0000
  N   N2        1.0  0.8100474051952133  0.6916652778185152  0.4967969816434277  1.0000
  Cl  Cl1       1.0  0.343925968685518  0.8596053850144898  0.7288275470404812  1.0000
  Cl  Cl2       1.0  0.6560829540516762  0.14039030137281117  0.271173598202722  1.0000
  O   O1        1.0  0.35611808306415327  0.8477389810803257  0.35672512636032383  1.0000
  O   O2        1.0  0.6438926960707434  0.1522485821222546  0.6432773862336489  1.0000
