data_image0
_chemical_formula_structural       Cd4H48C24S4O24
_chemical_formula_sum              "Cd4 H48 C24 S4 O24"
_cell_length_a       7.635590451326541
_cell_length_b       10.04804294090639
_cell_length_c       13.144392080328531
_cell_angle_alpha    89.99881361433114
_cell_angle_beta     89.99887347160863
_cell_angle_gamma    94.31667462796887

_space_group_name_H-M_alt    "P 1"
_space_group_IT_number       1

loop_
  _space_group_symop_operation_xyz
  'x, y, z'

loop_
  _atom_site_type_symbol
  _atom_site_label
  _atom_site_symmetry_multiplicity
  _atom_site_fract_x
  _atom_site_fract_y
  _atom_site_fract_z
  _atom_site_occupancy
  Cd  Cd1       1.0  0.347830345788836  0.671152357841983  0.3967685811621209  1.0000
  Cd  Cd2       1.0  0.15215279193645162  0.8288521401206881  0.8967510886022154  1.0000
  Cd  Cd3       1.0  0.6521460268319997  0.3288506097193178  0.6032360883603047  1.0000
  Cd  Cd4       1.0  0.8478523832193687  0.17114036377336111  0.10323760469820802  1.0000
  H   H1        1.0  0.3957716504895216  0.32445300354388007  0.9624484414262044  1.0000
  H   H2        1.0  0.10423500765746499  0.17551714221811213  0.46244680099277974  1.0000
  H   H3        1.0  0.6042361805092468  0.6755294584825648  0.0375470989042057  1.0000
  H   H4        1.0  0.895719817005201  0.8244811749185317  0.5375373273038448  1.0000
  H   H5        1.0  0.4565566519948376  0.1887380414883637  0.0358436066611105  1.0000
  H   H6        1.0  0.0434641403182567  0.31125051112191227  0.5358360637682368  1.0000
  H   H7        1.0  0.54343350992513  0.8112497054009394  0.9641534551230393  1.0000
  H   H8        1.0  0.9565314208515899  0.6887591459384269  0.4641533902738218  1.0000
  H   H9        1.0  0.4929980667797196  0.3364618341838721  0.19127382802725632  1.0000
  H   H10       1.0  0.007006219989627002  0.16355554677582523  0.6912927953585211  1.0000
  H   H11       1.0  0.5070107333743223  0.663507613772545  0.8087239946338086  1.0000
  H   H12       1.0  0.992987106907492  0.8364881414910242  0.30871263511053826  1.0000
  H   H13       1.0  0.4361728593173524  0.47435607329072843  0.11798764064726443  1.0000
  H   H14       1.0  0.0638383365579855  0.025645117522010697  0.6180115348534728  1.0000
  H   H15       1.0  0.5638240484171175  0.5256125667362355  0.8820177897425054  1.0000
  H   H16       1.0  0.9361551583711929  0.9743895690573084  0.38199769950794865  1.0000
  H   H17       1.0  0.725917187876  0.5760839547152655  0.20126472111762442  1.0000
  H   H18       1.0  0.7741111914997203  0.9239195191861639  0.7012642900615448  1.0000
  H   H19       1.0  0.27406445499975257  0.4239089286494319  0.7987490777938788  1.0000
  H   H20       1.0  0.22592135261284335  0.07609253961626189  0.2987304896893193  1.0000
  H   H21       1.0  0.8186218581204725  0.42742425714250476  0.2419691714335102  1.0000
  H   H22       1.0  0.6813828029617355  0.07257530126013022  0.7419696171019154  1.0000
  H   H23       1.0  0.18136526819616708  0.5725705380860333  0.7580225648755247  1.0000
  H   H24       1.0  0.3186418541758016  0.9274158876010149  0.2580282056919856  1.0000
  H   H25       1.0  0.07069064223591681  0.4851703016017198  0.11274426018307793  1.0000
  H   H26       1.0  0.429337676663863  0.014816967460163297  0.6127310357765055  1.0000
  H   H27       1.0  0.9293052124952509  0.5148313510011918  0.8872672564906877  1.0000
  H   H28       1.0  0.57068419807252  0.9851832654423446  0.38725993998522773  1.0000
  H   H29       1.0  0.9876518480848873  0.6436611402255963  0.10023711902612581  1.0000
  H   H30       1.0  0.5123899406777639  0.8563338995656126  0.600246032225705  1.0000
  H   H31       1.0  0.01234097087147749  0.3563475606171806  0.8997721152953915  1.0000
  H   H32       1.0  0.4876440353838873  0.14364813971730678  0.3997555945198741  1.0000
  H   H33       1.0  0.10952386545147155  0.5585967011427824  0.6041138575293915  1.0000
  H   H34       1.0  0.39049284485265895  0.9414108986529257  0.10411666716805  1.0000
  H   H35       1.0  0.8904744779909067  0.4414039118016718  0.3958847258869795  1.0000
  H   H36       1.0  0.6095240532758766  0.05859141403843179  0.8958857202748902  1.0000
  H   H37       1.0  0.2258443315249892  0.6931555938312854  0.6246528341200206  1.0000
  H   H38       1.0  0.2741777810279586  0.8068495402430502  0.1246545237654573  1.0000
  H   H39       1.0  0.7741628674903467  0.3068528746615229  0.3753548787332619  1.0000
  H   H40       1.0  0.7258432922422314  0.19315470484324493  0.8753440598037018  1.0000
  H   H41       1.0  0.4011278083932197  0.3978187826442722  0.4030609714779914  1.0000
  H   H42       1.0  0.09886922420977838  0.10218150122280181  0.9030657503454691  1.0000
  H   H43       1.0  0.5988617643890777  0.6021849719924789  0.5969277217363356  1.0000
  H   H44       1.0  0.9011350649099654  0.8978040178131007  0.0969252252817867  1.0000
  H   H45       1.0  0.5820947840877225  0.46481605860970626  0.3754961115273403  1.0000
  H   H46       1.0  0.9178952505325884  0.03519877076981  0.8754957274900192  1.0000
  H   H47       1.0  0.4178944931611071  0.5351956993418768  0.6245055149681633  1.0000
  H   H48       1.0  0.08210351422976458  0.9647948362389372  0.12450361670023112  1.0000
  C   C1        1.0  0.3942953685320133  0.2838250427329783  0.040058817657133296  1.0000
  C   C2        1.0  0.10572840721352608  0.21618017640611947  0.5400556286039163  1.0000
  C   C3        1.0  0.6057107332334085  0.7161644459838359  0.9599473736016437  1.0000
  C   C4        1.0  0.8942469970666237  0.7838358056971516  0.45993230375426464  1.0000
  C   C5        1.0  0.4938726327792367  0.37753201321179114  0.11411550971396883  1.0000
  C   C6        1.0  0.006153506584020393  0.12247019618654056  0.6141297888359389  1.0000
  C   C7        1.0  0.5061287887263857  0.6224515524509684  0.8858747051112561  1.0000
  C   C8        1.0  0.9938436992423049  0.8775524322670873  0.3858703161645565  1.0000
  C   C9        1.0  0.8136728167005175  0.4988581658497181  0.17970770393284852  1.0000
  C   C10       1.0  0.6863460284148954  0.0011193451278473003  0.6797239951557543  1.0000
  C   C11       1.0  0.18633775513981016  0.5011252515994471  0.8202924011009785  1.0000
  C   C12       1.0  0.3136685500205586  0.9988750061057201  0.3202776314805007  1.0000
  C   C13       1.0  0.9957572611310681  0.5590602493662544  0.1522341356476389  1.0000
  C   C14       1.0  0.5042320282226669  0.9409251505484165  0.6522188293514546  1.0000
  C   C15       1.0  0.004215188735692308  0.44094278103030865  0.847787271025098  1.0000
  C   C16       1.0  0.49578478563609  0.059066165274885  0.34777290714589526  1.0000
  C   C17       1.0  0.10904138314329259  0.6030719401449716  0.2420477218832744  1.0000
  C   C18       1.0  0.39096189135183573  0.896953615442904  0.7420426508667718  1.0000
  C   C19       1.0  0.8909563683388128  0.39691368378196046  0.7579660771230651  1.0000
  C   C20       1.0  0.6090690500427202  0.10306646785127781  0.2579635405953624  1.0000
  C   C21       1.0  0.20536687722235317  0.25131787310920833  0.0720711970332317  1.0000
  C   C22       1.0  0.29465898412823316  0.2486991618403707  0.5720682719073622  1.0000
  C   C23       1.0  0.7946328976117698  0.7486527199928333  0.9279441235271478  1.0000
  C   C24       1.0  0.7053294933194677  0.751347604389302  0.42793791931508446  1.0000
  S   S1        1.0  0.7186895352945653  0.40856567252888715  0.0707882701453144  1.0000
  S   S2        1.0  0.7813098344640039  0.09144746111117996  0.5707801770124022  1.0000
  S   S3        1.0  0.28130134291451003  0.591438059912541  0.9292331366482289  1.0000
  S   S4        1.0  0.21868062268233496  0.9085632774149913  0.4292359043229723  1.0000
  O   O1        1.0  0.2428483411731008  0.6847452809004791  0.2239367972368527  1.0000
  O   O2        1.0  0.25716097984040687  0.8152613952103066  0.723929762552757  1.0000
  O   O3        1.0  0.7571424525518254  0.3152474545486967  0.7760777625146673  1.0000
  O   O4        1.0  0.7428523346351453  0.18475397383039652  0.2760695817618668  1.0000
  O   O5        1.0  0.075870768652095  0.5578299065964174  0.33126648113660917  1.0000
  O   O6        1.0  0.4241303354516859  0.9421796968776948  0.8312642475490366  1.0000
  O   O7        1.0  0.924124116366471  0.4421847597536086  0.6687526433557878  1.0000
  O   O8        1.0  0.5758768637351394  0.0578287717144619  0.1687404221813935  1.0000
  O   O9        1.0  0.2149216161226875  0.6126889826430785  0.5797886535447603  1.0000
  O   O10       1.0  0.285103191602758  0.8873211189731193  0.0797884229097292  1.0000
  O   O11       1.0  0.7850785401797251  0.3873156001064828  0.4202213415995574  1.0000
  O   O12       1.0  0.7149080977699853  0.11267828474849749  0.9202139644927598  1.0000
  O   O13       1.0  0.4565039719626113  0.46897608949073805  0.35796006573394834  1.0000
  O   O14       1.0  0.0434647027971806  0.031021680684730796  0.8579631688414935  1.0000
  O   O15       1.0  0.5434791907263232  0.5310287684345738  0.6420339529052088  1.0000
  O   O16       1.0  0.9565347367016556  0.9689669162146403  0.14203161066200923  1.0000
  O   O17       1.0  0.15641293652196003  0.2651343254744631  0.1625262030248251  1.0000
  O   O18       1.0  0.34361175297495095  0.23484466127449363  0.6625200729063678  1.0000
  O   O19       1.0  0.8436024015269508  0.7348350177399537  0.8374442315728673  1.0000
  O   O20       1.0  0.656382882528483  0.7651680115095446  0.3374351460016101  1.0000
  O   O21       1.0  0.09758987515993309  0.208213827777648  0.0013376109788013004  1.0000
  O   O22       1.0  0.4024239685805071  0.2917741536907029  0.5013263152629719  1.0000
  O   O23       1.0  0.9024031548886242  0.7917758727828713  0.9986510822388014  1.0000
  O   O24       1.0  0.5975695687726982  0.7082195387957243  0.4986433584455057  1.0000
