data_image0
_chemical_formula_structural       Zn2H12C24S2N4O18
_chemical_formula_sum              "Zn2 H12 C24 S2 N4 O18"
_cell_length_a       9.68705133417802
_cell_length_b       10.886587478501072
_cell_length_c       10.892533394906744
_cell_angle_alpha    88.04649872257578
_cell_angle_beta     89.99933965560325
_cell_angle_gamma    90.00009212853614

_space_group_name_H-M_alt    "P 1"
_space_group_IT_number       1

loop_
  _space_group_symop_operation_xyz
  'x, y, z'

loop_
  _atom_site_type_symbol
  _atom_site_label
  _atom_site_symmetry_multiplicity
  _atom_site_fract_x
  _atom_site_fract_y
  _atom_site_fract_z
  _atom_site_occupancy
  Zn  Zn1       1.0  0.638803812267966  0.49999389808140665  0.500002322926356  1.0000
  Zn  Zn2       1.0  0.347605809617626  0.49999919774990087  0.5000038061265639  1.0000
  H   H1        1.0  0.27948239079271536  0.8839893078166413  0.48647892176592217  1.0000
  H   H2        1.0  0.2794793054732523  0.11599956642309191  0.5134946645015502  1.0000
  H   H3        1.0  0.2673034589045855  0.513480842111477  0.8849040081263836  1.0000
  H   H4        1.0  0.2673051092267116  0.4865173089183727  0.11511089548933028  1.0000
  H   H5        1.0  0.7103140143987332  0.4884821725108496  0.11536575951014777  1.0000
  H   H6        1.0  0.7103082337686074  0.5115416206989636  0.8846348465466035  1.0000
  H   H7        1.0  0.12491859216477509  0.38219589660526776  0.35427434685314546  1.0000
  H   H8        1.0  0.12490775437633769  0.6178104601666236  0.6457346177907792  1.0000
  H   H9        1.0  0.8602249122192448  0.38347836520374307  0.3533630601499168  1.0000
  H   H10       1.0  0.8602119957054555  0.6165208193136495  0.6466372132487166  1.0000
  H   H11       1.0  0.9268267940622579  0.8589592000437637  0.1748385327647384  1.0000
  H   H12       1.0  0.9268095731064463  0.1410380275389613  0.8251720743043192  1.0000
  C   C1        1.0  0.48858639417618127  0.5268516260318068  0.7350363440466124  1.0000
  C   C2        1.0  0.48858821935548485  0.47314695844905696  0.26497067355423803  1.0000
  C   C3        1.0  0.4955739426583817  0.739263444161978  0.4613106354085942  1.0000
  C   C4        1.0  0.4955667371001127  0.26072797999239583  0.5386872282733391  1.0000
  C   C5        1.0  0.7528312050156103  0.9002695430808818  0.4184921979201447  1.0000
  C   C6        1.0  0.7528241426718196  0.09972597072659543  0.5815010146223543  1.0000
  C   C7        1.0  0.8741662095170851  0.9547066990385815  0.4545645732693088  1.0000
  C   C8        1.0  0.8741594739802708  0.045301857822082105  0.5454271514628032  1.0000
  C   C9        1.0  0.625206642144903  0.05827212259599432  0.5288141693314471  1.0000
  C   C10       1.0  0.6252121103378628  0.9417250416164223  0.4711803864314915  1.0000
  C   C11       1.0  0.4970956846459418  0.8766964488924318  0.4660685782155339  1.0000
  C   C12       1.0  0.49709236209351815  0.12329418511434655  0.5339228528759462  1.0000
  C   C13       1.0  0.3747209113113428  0.9368892928689337  0.4886741057796086  1.0000
  C   C14       1.0  0.3747198002756065  0.06310044132857942  0.5113085485149753  1.0000
  C   C15       1.0  0.3635852694543331  0.507797341581963  0.9364297197459163  1.0000
  C   C16       1.0  0.36358860426659595  0.4922056358263023  0.06357949172058848  1.0000
  C   C17       1.0  0.4887738652795689  0.4847030957953821  0.12794804229791618  1.0000
  C   C18       1.0  0.48877031375943863  0.5153037411416933  0.8720597725530509  1.0000
  C   C19       1.0  0.6140652372715254  0.49277397622794444  0.06364984086670937  1.0000
  C   C20       1.0  0.6140639667255527  0.5072422700550234  0.9363546597097423  1.0000
  C   C21       1.0  0.06438073533652762  0.43424963884544365  0.4189300767476494  1.0000
  C   C22       1.0  0.06437161672113229  0.565755800479252  0.5810749583981545  1.0000
  C   C23       1.0  0.9207362692803686  0.4346696495464713  0.41871466624329656  1.0000
  C   C24       1.0  0.9207323085902319  0.5653332091406754  0.5812894971256027  1.0000
  S   S1        1.0  0.7458618533798926  0.8112385981904637  0.27725004795637176  1.0000
  S   S2        1.0  0.7458222664647707  0.1887299313697071  0.7227601568310716  1.0000
  N   N1        1.0  0.8505854916906375  0.49999774734905617  0.5000002148978097  1.0000
  N   N2        1.0  0.1347340152126648  0.500003654094769  0.5000039637435377  1.0000
  N   N3        1.0  0.007965919950748898  0.9321137055035608  0.39513703504830733  1.0000
  N   N4        1.0  0.007955400073655  0.0678964443907475  0.6048584358635408  1.0000
  O   O1        1.0  0.6054241380672424  0.5262863889385798  0.6813251289467813  1.0000
  O   O2        1.0  0.6054252978526762  0.47370042120698486  0.3186808069128729  1.0000
  O   O3        1.0  0.37161719043523084  0.5342351490641593  0.6811502306478585  1.0000
  O   O4        1.0  0.3716183304103993  0.4657660746073519  0.31885524713395336  1.0000
  O   O5        1.0  0.6133826324822635  0.687489960426099  0.47157416044193207  1.0000
  O   O6        1.0  0.6133787662057132  0.3125005732279292  0.5284298000230335  1.0000
  O   O7        1.0  0.3797182214999069  0.6860956088172117  0.45708736449317655  1.0000
  O   O8        1.0  0.37971417856661555  0.31389753724811703  0.5429089606497539  1.0000
  O   O9        1.0  0.8164889353250402  0.6955968993267376  0.28701986134911545  1.0000
  O   O10       1.0  0.6083600451795874  0.8237309573437844  0.23082267395584208  1.0000
  O   O11       1.0  0.8396144524514285  0.901750778314764  0.1896528890961448  1.0000
  O   O12       1.0  0.816456952691354  0.3044036972567882  0.7129992250326038  1.0000
  O   O13       1.0  0.6083539204089661  0.17622288452115958  0.7691781965016486  1.0000
  O   O14       1.0  0.839609708032519  0.09823370940449652  0.8103459805000452  1.0000
  O   O15       1.0  0.04458796967745119  0.8246936015678659  0.38130545706065516  1.0000
  O   O16       1.0  0.0749411160927522  0.025083362162185107  0.3631525591676094  1.0000
  O   O17       1.0  0.04457132291520341  0.1753220433111267  0.6186932153040201  1.0000
  O   O18       1.0  0.0749301495679191  0.9749331377616033  0.636851285125523  1.0000
