data_image0
_chemical_formula_structural       Zn2H72C54N14O16
_chemical_formula_sum              "Zn2 H72 C54 N14 O16"
_cell_length_a       10.69431003362093
_cell_length_b       16.80830438766282
_cell_length_c       17.694827728632728
_cell_angle_alpha    92.03685486435579
_cell_angle_beta     93.07223897496534
_cell_angle_gamma    93.42785645948301

_space_group_name_H-M_alt    "P 1"
_space_group_IT_number       1

loop_
  _space_group_symop_operation_xyz
  'x, y, z'

loop_
  _atom_site_type_symbol
  _atom_site_label
  _atom_site_symmetry_multiplicity
  _atom_site_fract_x
  _atom_site_fract_y
  _atom_site_fract_z
  _atom_site_occupancy
  Zn  Zn1       1.0  0.5023263867685799  0.407226433510516  0.5067027944078077  1.0000
  Zn  Zn2       1.0  0.4920522582861935  0.5909583632113781  0.5053370214190807  1.0000
  H   H1        1.0  0.9731040245055239  0.532557045608911  0.726139020048592  1.0000
  H   H2        1.0  0.8393692647676686  0.468782007455509  0.6915164598612265  1.0000
  H   H3        1.0  0.8164140936728117  0.5585586104728576  0.7449207070315536  1.0000
  H   H4        1.0  0.9960274898596854  0.6972761320370394  0.5859847855041593  1.0000
  H   H5        1.0  0.13716583103757782  0.702971334202317  0.5346870490173998  1.0000
  H   H6        1.0  0.13985411382068239  0.7407947004174458  0.6310057744948735  1.0000
  H   H7        1.0  0.287845678419309  0.6393960260020463  0.44936468472818797  1.0000
  H   H8        1.0  0.1704015580466063  0.6382242453780833  0.34117622886927274  1.0000
  H   H9        1.0  0.2950508562660232  0.6953783974797573  0.3026867900863124  1.0000
  H   H10       1.0  0.16987198795584388  0.7443109292622835  0.3440449481495094  1.0000
  H   H11       1.0  0.601071866372486  0.673754844527238  0.6168403838422164  1.0000
  H   H12       1.0  0.802093344408668  0.7035831222506204  0.6481404381064519  1.0000
  H   H13       1.0  0.7597084026815892  0.8021421349243666  0.6736023199205334  1.0000
  H   H14       1.0  0.8100552054612463  0.7803072514390195  0.5813875867815168  1.0000
  H   H15       1.0  0.8166451916763435  0.4985924797609157  0.3542325970235893  1.0000
  H   H16       1.0  0.8541703719226418  0.4137590252928759  0.4085253114881126  1.0000
  H   H17       1.0  0.9686079377388384  0.459912517519406  0.3500183300364981  1.0000
  H   H18       1.0  0.07123647278503138  0.3864338685847882  0.6727542888341346  1.0000
  H   H19       1.0  0.2107982841982619  0.35890326551931645  0.6277960492460294  1.0000
  H   H20       1.0  0.0637006279763526  0.30388367816759404  0.6048864010555021  1.0000
  H   H21       1.0  0.4682263962702891  0.31787463123091436  0.8576048093673732  1.0000
  H   H22       1.0  0.5934634380182972  0.26611803676752294  0.9488814042816996  1.0000
  H   H23       1.0  0.5417262448721658  0.3418902342769243  0.01133636785130679  1.0000
  H   H24       1.0  0.6811870674954436  0.35947951134397027  0.9624271642891952  1.0000
  H   H25       1.0  0.3250511051023395  0.36673314027391507  0.12758811693779387  1.0000
  H   H26       1.0  0.24161881378535102  0.3863142186516271  0.009629531698600098  1.0000
  H   H27       1.0  0.3716197052679036  0.44924746154416784  0.9864259430759571  1.0000
  H   H28       1.0  0.2613421436257966  0.486013972818739  0.04914264682091129  1.0000
  H   H29       1.0  0.47948038493314743  0.2426268799575269  0.73925088233959  1.0000
  H   H30       1.0  0.6219446967504042  0.30482250193316657  0.7549088611986647  1.0000
  H   H31       1.0  0.5412370153818102  0.2984089710607449  0.6632811177766342  1.0000
  H   H32       1.0  0.4682846741154378  0.2867489255641544  0.20333622239679267  1.0000
  H   H33       1.0  0.3461869447759156  0.2613811909862704  0.26581761802470527  1.0000
  H   H34       1.0  0.4912855620899138  0.31035222508022287  0.3036862852624296  1.0000
  H   H35       1.0  0.6332325982625163  0.6897925934038865  0.7719953153697787  1.0000
  H   H36       1.0  0.4606214375985259  0.7399119092276224  0.706573093074951  1.0000
  H   H37       1.0  0.39685800577465347  0.6860678462239491  0.7830404472954625  1.0000
  H   H38       1.0  0.3915361169788198  0.6419689850462406  0.6893489494926044  1.0000
  H   H39       1.0  0.6647482223481378  0.591407377130757  0.3595309705511126  1.0000
  H   H40       1.0  0.5185136918940145  0.6912638942957016  0.3226575717849656  1.0000
  H   H41       1.0  0.6284547944443943  0.720902433308467  0.2548565076810689  1.0000
  H   H42       1.0  0.6739170179796616  0.727904735841193  0.35336926072929487  1.0000
  H   H43       1.0  0.6285082566057412  0.6925399752758707  0.8737340321121676  1.0000
  H   H44       1.0  0.8113925271128581  0.7037030951388984  0.9528841093044774  1.0000
  H   H45       1.0  0.8474762084874499  0.6392499895976442  0.8753254399880319  1.0000
  H   H46       1.0  0.8045063172540453  0.5990147549218747  0.9631678219948439  1.0000
  H   H47       1.0  0.7593204220592612  0.6391622956084433  0.20413076571509947  1.0000
  H   H48       1.0  0.6155748214354233  0.7206554214680237  0.12411812940468538  1.0000
  H   H49       1.0  0.6432989408589834  0.652169413612711  0.04839062522382419  1.0000
  H   H50       1.0  0.7704962220744065  0.7127962760038358  0.0922702999226033  1.0000
  H   H51       1.0  0.2891400530895254  0.04939499102841441  0.4608116620589583  1.0000
  H   H52       1.0  0.2910283075240727  0.08431359543129698  0.3273023448364825  1.0000
  H   H53       1.0  0.20933066686863097  0.16957764390465968  0.3534034342898166  1.0000
  H   H54       1.0  0.13733454686240523  0.07266134194788519  0.36276775344820317  1.0000
  H   H55       1.0  0.7259362270842615  0.0699036738592227  0.46611301688485435  1.0000
  H   H56       1.0  0.7336938233050176  0.07925010099999237  0.6052350940438982  1.0000
  H   H57       1.0  0.8139645625163111  0.17452269401525197  0.5982685594622694  1.0000
  H   H58       1.0  0.8833921112478578  0.087599524543279  0.5646377661360872  1.0000
  H   H59       1.0  0.2136653044432961  0.22195000499978323  0.4808758727412011  1.0000
  H   H60       1.0  0.1936254131182338  0.2923144151058991  0.36772615076122145  1.0000
  H   H61       1.0  0.309377072101789  0.3654865791948226  0.4043356149514422  1.0000
  H   H62       1.0  0.1610043441525804  0.3582161015900382  0.4452500048041869  1.0000
  H   H63       1.0  0.7968358233918664  0.2521143472348938  0.4904033989979338  1.0000
  H   H64       1.0  0.7978368337500895  0.2908431565155141  0.6237103715315726  1.0000
  H   H65       1.0  0.6985053128203872  0.3683691803820182  0.5992455558606835  1.0000
  H   H66       1.0  0.8530271085003066  0.3715035649783686  0.568139471675984  1.0000
  H   H67       1.0  0.4046176217967741  0.8223247238254742  0.277895959801512  1.0000
  H   H68       1.0  0.45606269774954467  0.9198146204254556  0.3170468036175293  1.0000
  H   H69       1.0  0.3001723812452965  0.9022850124731505  0.2747007957190347  1.0000
  H   H70       1.0  0.5662597057702284  0.8722358191059667  0.6750444601385368  1.0000
  H   H71       1.0  0.5169786388545462  0.9586015776633301  0.6270643137040394  1.0000
  H   H72       1.0  0.6695718834709156  0.9606275345784352  0.6752775925704099  1.0000
  C   C1        1.0  0.48745523557184356  0.48859747812633714  0.3601461457135286  1.0000
  C   C2        1.0  0.5292999051169857  0.49715955600611755  0.6530084436865309  1.0000
  C   C3        1.0  0.26778171680072654  0.4971669461093384  0.5416646760977599  1.0000
  C   C4        1.0  0.7357467167926898  0.5318538063338281  0.4982400590532379  1.0000
  C   C5        1.0  0.935185097724002  0.5502236346768611  0.5783786665949009  1.0000
  C   C6        1.0  0.07174770895946378  0.5518014773144485  0.5890498661580067  1.0000
  C   C7        1.0  0.8769741260949857  0.5342722083632551  0.5090209737655299  1.0000
  C   C8        1.0  0.13839182361931526  0.4887605434585111  0.5677591198974952  1.0000
  C   C9        1.0  0.5424173187399717  0.4296653946329982  0.857139757374199  1.0000
  C   C10       1.0  0.45876724811088826  0.45132627674267656  0.1458171429550248  1.0000
  C   C11       1.0  0.5137222009965895  0.43169901976182246  0.7782758411808786  1.0000
  C   C12       1.0  0.4502929763543905  0.4405696694705981  0.22394442045153076  1.0000
  C   C13       1.0  0.532000013271734  0.5020010878878196  0.7380241199384656  1.0000
  C   C14       1.0  0.5138379921611146  0.4936480363881657  0.2779700157988358  1.0000
  C   C15       1.0  0.5710667506099796  0.5746204847770997  0.779273253766064  1.0000
  C   C16       1.0  0.5951938650995601  0.5560896791330519  0.2542598415575624  1.0000
  C   C17       1.0  0.6065477013573428  0.5725995584210253  0.8570405200308  1.0000
  C   C18       1.0  0.6161530103160686  0.5624125419513746  0.17642564321345588  1.0000
  C   C19       1.0  0.589281833760964  0.5012271304032296  0.8969396554582969  1.0000
  C   C20       1.0  0.5481567485134634  0.5101672152041701  0.12164379880133679  1.0000
  C   C21       1.0  0.5925934255524083  0.5059919542953464  0.976795370957433  1.0000
  C   C22       1.0  0.5757447496071536  0.5106124391568866  0.04468318958770818  1.0000
  C   C23       1.0  0.39377211567853726  0.15187572558586737  0.4633768007803524  1.0000
  C   C24       1.0  0.6200255812828459  0.16051155128722877  0.4883504017913296  1.0000
  C   C25       1.0  0.3948682548744812  0.23559545240167515  0.47615382154805264  1.0000
  C   C26       1.0  0.6152416612327302  0.24415093742810973  0.49764752133620493  1.0000
  C   C27       1.0  0.5073827323807903  0.11422438093228489  0.4708678380916282  1.0000
  C   C28       1.0  0.5074940403253905  0.030315449877889488  0.4638182132125549  1.0000
  C   C29       1.0  0.5040268634987939  0.9575465355511737  0.46285673123212223  1.0000
  C   C30       1.0  0.40764495359891834  0.8238583749808013  0.4302479692521714  1.0000
  C   C31       1.0  0.5760265110451642  0.8441910020252832  0.5293516697556199  1.0000
  C   C32       1.0  0.39153872471571555  0.7434408807430515  0.45081714919794535  1.0000
  C   C33       1.0  0.5612870418954472  0.7623932690088323  0.5446311302484971  1.0000
  C   C34       1.0  0.49889525226102893  0.8741817386901828  0.47150295904358325  1.0000
  C   C35       1.0  0.8749025602989918  0.5310583110845782  0.7035370550722957  1.0000
  C   C36       1.0  0.09848301185553508  0.6945043581306365  0.5904289274291159  1.0000
  C   C37       1.0  0.22965938498103358  0.6937443377308554  0.34882386401506676  1.0000
  C   C38       1.0  0.7566999258004685  0.7560237372292418  0.6275079495107576  1.0000
  C   C39       1.0  0.8913255250616388  0.4702466580479622  0.38667779946971587  1.0000
  C   C40       1.0  0.1088221430823495  0.363067243920021  0.6200786598432371  1.0000
  C   C41       1.0  0.585869963525745  0.33076026550724447  0.9574775364106001  1.0000
  C   C42       1.0  0.3111110178073204  0.43308745175972513  0.03206958649553119  1.0000
  C   C43       1.0  0.5292475733999922  0.29863786148811033  0.7244120549081358  1.0000
  C   C44       1.0  0.42267980076780987  0.30523451596748435  0.25500335563815196  1.0000
  C   C45       1.0  0.4483487075294903  0.6808245454026646  0.7307103857596003  1.0000
  C   C46       1.0  0.6180843794863051  0.6920585110111261  0.30910207911854565  1.0000
  C   C47       1.0  0.7861570663357327  0.6460351344355073  0.9232654903157708  1.0000
  C   C48       1.0  0.6827558249999157  0.6786225056766708  0.10267681956030117  1.0000
  C   C49       1.0  0.2269622342127562  0.10831901106780609  0.3682341925155369  1.0000
  C   C50       1.0  0.7941863535680652  0.11592180458191588  0.5695929975530872  1.0000
  C   C51       1.0  0.23354346515535698  0.3241228486778026  0.42011371969465466  1.0000
  C   C52       1.0  0.7713500116825429  0.3317685665104832  0.5786538819710143  1.0000
  C   C53       1.0  0.37538538793599946  0.8759833980909022  0.30816939947825256  1.0000
  C   C54       1.0  0.5977051796417996  0.923230855288537  0.6418080807396294  1.0000
  N   N1        1.0  0.5042938424470409  0.28073163073811713  0.4930606631895457  1.0000
  N   N2        1.0  0.47323207084627933  0.7141629320461717  0.5037563255319029  1.0000
  N   N3        1.0  0.295421017596972  0.6924562401938629  0.42274901517483693  1.0000
  N   N4        1.0  0.6298487981833674  0.7294868168217619  0.6007876827191294  1.0000
  N   N5        1.0  0.5145414493073304  0.3597730698490834  0.8928492598758806  1.0000
  N   N6        1.0  0.38251902187608516  0.4008843224962888  0.0958804121386407  1.0000
  N   N7        1.0  0.5725107239927211  0.6487205098070135  0.7436740002902482  1.0000
  N   N8        1.0  0.6644666631651006  0.61138293166033  0.3058070743383965  1.0000
  N   N9        1.0  0.6522160088360778  0.6420632644764551  0.8996200547128124  1.0000
  N   N10       1.0  0.7107324819584733  0.6170205673930909  0.15596163204708796  1.0000
  N   N11       1.0  0.2781800790644128  0.10722516955590318  0.4471523047596406  1.0000
  N   N12       1.0  0.7366950524345698  0.12482733764532838  0.4930690851328237  1.0000
  N   N13       1.0  0.2789786897468289  0.26797121854028216  0.4754333274261738  1.0000
  N   N14       1.0  0.7293664359080978  0.2881746738694276  0.5076528512409622  1.0000
  O   O1        1.0  0.4898423869565178  0.4211315887551663  0.39049492033309  1.0000
  O   O2        1.0  0.5440326485400176  0.4289433314481954  0.6219918951957836  1.0000
  O   O3        1.0  0.4654210426000773  0.554123436309041  0.3938100711093852  1.0000
  O   O4        1.0  0.5186006835091774  0.5608984795171992  0.6167537545219162  1.0000
  O   O5        1.0  0.32772556495967115  0.4343425532273883  0.5369160859342372  1.0000
  O   O6        1.0  0.6819036662153835  0.46298529056285526  0.496507586529489  1.0000
  O   O7        1.0  0.3067574710762528  0.5661169272885473  0.5210442104911194  1.0000
  O   O8        1.0  0.6844871873314844  0.5978018272355713  0.4909132020236412  1.0000
  O   O9        1.0  0.8635100657233182  0.57662697788529  0.6365901718570439  1.0000
  O   O10       1.0  0.1349732534200498  0.6198306289101794  0.6193677499658037  1.0000
  O   O11       1.0  0.9459049401403873  0.5227565943599471  0.4474463976530528  1.0000
  O   O12       1.0  0.0780661069041528  0.41328263750029487  0.5581826798359444  1.0000
  O   O13       1.0  0.45305958041105737  0.3629610126069736  0.745023466714926  1.0000
  O   O14       1.0  0.36570109489022684  0.38014868131325125  0.2451351690406796  1.0000
  O   O15       1.0  0.3239781064997018  0.855683649859685  0.3789708817522524  1.0000
  O   O16       1.0  0.6553758155852095  0.8963807919524097  0.5746924017310064  1.0000
