data_image0
_chemical_formula_structural       Zn2H34C52N10O16
_chemical_formula_sum              "Zn2 H34 C52 N10 O16"
_cell_length_a       17.155377417933124
_cell_length_b       18.31971099912126
_cell_length_c       19.552728515931634
_cell_angle_alpha    92.32879776381651
_cell_angle_beta     88.92529034832735
_cell_angle_gamma    96.62805710972609

_space_group_name_H-M_alt    "P 1"
_space_group_IT_number       1

loop_
  _space_group_symop_operation_xyz
  'x, y, z'

loop_
  _atom_site_type_symbol
  _atom_site_label
  _atom_site_symmetry_multiplicity
  _atom_site_fract_x
  _atom_site_fract_y
  _atom_site_fract_z
  _atom_site_occupancy
  Zn  Zn1       1.0  0.49251261652526773  0.4249774389713678  0.5033418609796458  1.0000
  Zn  Zn2       1.0  0.5091133934157526  0.5838263434905926  0.5040555475797603  1.0000
  H   H1        1.0  0.2687629684013189  0.6049638762164874  0.5549591336865378  1.0000
  H   H2        1.0  0.7260453144602154  0.3964421178520326  0.5733634314727425  1.0000
  H   H3        1.0  0.7542129216164637  0.6267168516147661  0.5335071675069188  1.0000
  H   H4        1.0  0.24969244804010057  0.3755832966546888  0.4956981840301112  1.0000
  H   H5        1.0  0.007734742130544695  0.5799580515336871  0.581398963566393  1.0000
  H   H6        1.0  0.9947683171030874  0.4110035074777869  0.5717727676860705  1.0000
  H   H7        1.0  0.10886490476002555  0.36164480291464673  0.5318901275140604  1.0000
  H   H8        1.0  0.8967291798246038  0.6336168397667448  0.5592251818388193  1.0000
  H   H9        1.0  0.8678525669580495  0.4020707528114684  0.5991165674603566  1.0000
  H   H10       1.0  0.1294880878224447  0.592031059523478  0.5928969711091909  1.0000
  H   H11       1.0  0.5597333934257165  0.6031788026895767  0.7218693414185327  1.0000
  H   H12       1.0  0.44386925296550567  0.3965797583456733  0.2887852689188861  1.0000
  H   H13       1.0  0.5692333087784291  0.5978435923826737  0.8486462891840105  1.0000
  H   H14       1.0  0.4346290497881782  0.39333494153565596  0.16195193487363477  1.0000
  H   H15       1.0  0.4021818642491084  0.4024231759241132  0.8433326378402839  1.0000
  H   H16       1.0  0.5998982856343461  0.5895405524703249  0.15669510769362202  1.0000
  H   H17       1.0  0.37130716489708243  0.46002378869106747  0.9491639447477667  1.0000
  H   H18       1.0  0.631964096706696  0.5260554886651504  0.05527957929592021  1.0000
  H   H19       1.0  0.38397884779295316  0.45678148298274124  0.07432453088590311  1.0000
  H   H20       1.0  0.6192152989413486  0.5291707929326251  0.9301649637507271  1.0000
  H   H21       1.0  0.5418376783488839  0.31879225135701716  0.5937839503270155  1.0000
  H   H22       1.0  0.4313205810905955  0.6936452800724948  0.5771426438939358  1.0000
  H   H23       1.0  0.5558832432681698  0.18435818854274538  0.5905290325257795  1.0000
  H   H24       1.0  0.4177482357950383  0.8277472180016258  0.5718425258021398  1.0000
  H   H25       1.0  0.3703323953030023  0.05115379792886189  0.49040100316923224  1.0000
  H   H26       1.0  0.6276794480071146  0.9573344045853459  0.5093121459539561  1.0000
  H   H27       1.0  0.357757686967581  0.16992841942801107  0.3796391452888912  1.0000
  H   H28       1.0  0.41539444152031285  0.1017832782173897  0.3866494693068249  1.0000
  H   H29       1.0  0.6669433917144119  0.8301332568293205  0.397926944385084  1.0000
  H   H30       1.0  0.6119684300851703  0.901964812953267  0.40024357884139766  1.0000
  H   H31       1.0  0.3938056132422147  0.283534409890585  0.3619228759880997  1.0000
  H   H32       1.0  0.3838190670401147  0.3550635780611131  0.420960532588289  1.0000
  H   H33       1.0  0.6406340710925136  0.715779169280445  0.3791704310590021  1.0000
  H   H34       1.0  0.6345631712559907  0.6505796743579352  0.4394727069351419  1.0000
  C   C1        1.0  0.5233161788022754  0.4970993579266647  0.37162127724631944  1.0000
  C   C2        1.0  0.4788038107211179  0.5098097542380414  0.635083912573073  1.0000
  C   C3        1.0  0.3511179307417295  0.5005833772815791  0.4990791550119411  1.0000
  C   C4        1.0  0.6481756658560796  0.5061307131404219  0.529510847125991  1.0000
  C   C5        1.0  0.26709099437710654  0.49170457912173043  0.5208160330273018  1.0000
  C   C6        1.0  0.7319276484939933  0.510769608637041  0.5499945245705861  1.0000
  C   C7        1.0  0.23277591875731224  0.5520969069581624  0.5495888265469873  1.0000
  C   C8        1.0  0.7642482695508264  0.4480495245426042  0.570218578194826  1.0000
  C   C9        1.0  0.1548106540236276  0.5444216063543479  0.5705943212459632  1.0000
  C   C10       1.0  0.8436043376570909  0.4515579489504873  0.5844052502791257  1.0000
  C   C11       1.0  0.1078180227184689  0.47614592023135316  0.5628194868479781  1.0000
  C   C12       1.0  0.8933892168917126  0.518013041349313  0.5785160779637692  1.0000
  C   C13       1.0  0.1439194321896551  0.41521657606859447  0.5368563726797363  1.0000
  C   C14       1.0  0.8591309328782372  0.5815310096289323  0.5626142960337506  1.0000
  C   C15       1.0  0.22222569046834204  0.4228205475486249  0.5159561004998139  1.0000
  C   C16       1.0  0.7798918898222452  0.5779918111652833  0.5479723018726405  1.0000
  C   C17       1.0  0.023353930962159094  0.4675742523662975  0.5750514118982651  1.0000
  C   C18       1.0  0.9784778250611054  0.5236672187572464  0.5814837493738382  1.0000
  C   C19       1.0  0.5252845194684072  0.5600003906470762  0.7497311891913514  1.0000
  C   C20       1.0  0.4782144850270029  0.4382335766172715  0.2590586834930377  1.0000
  C   C21       1.0  0.5309474555425098  0.5561236609674082  0.8202123441788843  1.0000
  C   C22       1.0  0.4725363702045088  0.4372072565576914  0.18812707565581385  1.0000
  C   C23       1.0  0.48698066629005865  0.4996520599777127  0.8556039775294196  1.0000
  C   C24       1.0  0.51581011144863  0.4912867214517292  0.14935336995259263  1.0000
  C   C25       1.0  0.43647702151583445  0.4477037911641091  0.8180927256894963  1.0000
  C   C26       1.0  0.5656935267704953  0.5459342126859851  0.18419644614900224  1.0000
  C   C27       1.0  0.43144808269681073  0.452730203485558  0.7476424671428532  1.0000
  C   C28       1.0  0.5709520747704887  0.5454042869513742  0.2549997597510085  1.0000
  C   C29       1.0  0.4758816443248293  0.5079692676442279  0.7116559186983552  1.0000
  C   C30       1.0  0.5271119342424414  0.4928297221961628  0.2944834672296821  1.0000
  C   C31       1.0  0.42891530374264164  0.47332537999283636  0.9721343968856574  1.0000
  C   C32       1.0  0.5743592839373548  0.5125609025227433  0.03234690200343241  1.0000
  C   C33       1.0  0.43610566946951934  0.4714450425610153  0.04277038982417031  1.0000
  C   C34       1.0  0.5671587709999315  0.5143795426242831  0.9617664451010414  1.0000
  C   C35       1.0  0.5088624935984285  0.4914361372982228  0.07427430723846841  1.0000
  C   C36       1.0  0.4942093988883728  0.49534045085228234  0.9303095686735433  1.0000
  C   C37       1.0  0.5154533287992892  0.2814553732264642  0.5537053798770871  1.0000
  C   C38       1.0  0.4682318073845764  0.7293642804046809  0.5435130269758943  1.0000
  C   C39       1.0  0.5237178938053334  0.2075220015671206  0.5507879511660719  1.0000
  C   C40       1.0  0.46053449960986365  0.802940046324494  0.5393376204480093  1.0000
  C   C41       1.0  0.48927286295894135  0.162298579943382  0.4967748780152945  1.0000
  C   C42       1.0  0.5093724873838141  0.8459872082973589  0.4937867627621274  1.0000
  C   C43       1.0  0.4460295375759245  0.1937459813155726  0.4480303533723244  1.0000
  C   C44       1.0  0.5648873849560019  0.8124844079165426  0.4537484689054807  1.0000
  C   C45       1.0  0.4387185085553824  0.2705379733304836  0.45558798559699903  1.0000
  C   C46       1.0  0.5707332487334044  0.7359663588914601  0.46247615618536747  1.0000
  C   C47       1.0  0.42805572371597833  0.03177033641191681  0.49023281257679235  1.0000
  C   C48       1.0  0.5710068478342976  0.9765649865035754  0.5006258182856342  1.0000
  C   C49       1.0  0.43282351232246447  0.9564189735228795  0.48642267993420774  1.0000
  C   C50       1.0  0.5669337422607441  0.0518967657902181  0.4990640192950765  1.0000
  C   C51       1.0  0.503922077605374  0.9258040651740557  0.4916738796350161  1.0000
  C   C52       1.0  0.4957812152786189  0.08241679211376148  0.4939784828729047  1.0000
  N   N1        1.0  0.4750030803761689  0.3125615759966037  0.505997845812395  1.0000
  N   N2        1.0  0.521766592503937  0.6964229681694859  0.5050463564874195  1.0000
  N   N3        1.0  0.41208652718594874  0.1567104208204384  0.3905035160531014  1.0000
  N   N4        1.0  0.6128864522328287  0.8471601534517106  0.4044013298017575  1.0000
  N   N5        1.0  0.39102107262511515  0.3007259439129371  0.4118132239821365  1.0000
  N   N6        1.0  0.6297129613189014  0.7041079884932484  0.4292167637797633  1.0000
  N   N7        1.0  0.35817956833773223  0.9091121244790727  0.47439571630538074  1.0000
  N   N8        1.0  0.6427747445515382  0.09927698622347948  0.5011930503383442  1.0000
  N   N9        1.0  0.3747350153377482  0.39730572847071943  0.7123920266322729  1.0000
  N   N10       1.0  0.6270080239966732  0.6016468173983184  0.288464727488865  1.0000
  O   O1        1.0  0.5261517348848554  0.4372711905746839  0.40141260717950195  1.0000
  O   O2        1.0  0.5042574439917901  0.570774517165198  0.6096066386198445  1.0000
  O   O3        1.0  0.5133406450350364  0.5595887823907971  0.398530224590509  1.0000
  O   O4        1.0  0.4585035096215577  0.44925482163515074  0.6026756016409891  1.0000
  O   O5        1.0  0.3807566050744812  0.4440249529500662  0.4737457588763975  1.0000
  O   O6        1.0  0.6245483173946482  0.5641089809025174  0.5066307527858029  1.0000
  O   O7        1.0  0.3895641035845897  0.5637916104930553  0.5084204251978691  1.0000
  O   O8        1.0  0.6056638002916799  0.4448976035491298  0.535881915637411  1.0000
  O   O9        1.0  0.35798700775858794  0.861712647066767  0.4275818257874278  1.0000
  O   O10       1.0  0.3011037156264038  0.9220250128195674  0.5108450539336005  1.0000
  O   O11       1.0  0.653317809402587  0.14780071602446296  0.4587721165149505  1.0000
  O   O12       1.0  0.6907154065645713  0.08539353470687418  0.5441077605916007  1.0000
  O   O13       1.0  0.31684405444593716  0.41978403654287894  0.6873429286440996  1.0000
  O   O14       1.0  0.3877536534264793  0.332265867637382  0.7138504484958831  1.0000
  O   O15       1.0  0.6697329965659903  0.581211594403996  0.3325130485164324  1.0000
  O   O16       1.0  0.6288053349849676  0.6661811257776619  0.2701739325685254  1.0000
