data_image0
_chemical_formula_structural       Zn2H19C20N7O9
_chemical_formula_sum              "Zn2 H19 C20 N7 O9"
_cell_length_a       9.77359429661353
_cell_length_b       11.208697998415843
_cell_length_c       11.013653103813269
_cell_angle_alpha    97.06115817548705
_cell_angle_beta     90.56903775096134
_cell_angle_gamma    91.75512084158309

_space_group_name_H-M_alt    "P 1"
_space_group_IT_number       1

loop_
  _space_group_symop_operation_xyz
  'x, y, z'

loop_
  _atom_site_type_symbol
  _atom_site_label
  _atom_site_symmetry_multiplicity
  _atom_site_fract_x
  _atom_site_fract_y
  _atom_site_fract_z
  _atom_site_occupancy
  Zn  Zn1       1.0  0.3633765684415593  0.506201251034881  0.4734321460853435  1.0000
  Zn  Zn2       1.0  0.6490342098680557  0.5048575658990657  0.467375556183711  1.0000
  H   H1        1.0  0.6344812183674193  0.3677694726536487  0.057058021907650386  1.0000
  H   H2        1.0  0.28510858912780174  0.1530710610933212  0.44140789893337734  1.0000
  H   H3        1.0  0.9505932167069562  0.6447662655944768  0.7455310473085176  1.0000
  H   H4        1.0  0.7810499045517288  0.6010449203000974  0.6938789462992287  1.0000
  H   H5        1.0  0.3191718145431253  0.9769596155246775  0.19699032721969437  1.0000
  H   H6        1.0  0.25058342452702215  0.872182094358699  0.272421541155829  1.0000
  H   H7        1.0  0.20593692406260541  0.9528315657269814  0.013191837141398795  1.0000
  H   H8        1.0  0.37785149389566197  0.700922046186939  0.7015830288028794  1.0000
  H   H9        1.0  0.3321685129419407  0.8412336664432586  0.7633392859535771  1.0000
  H   H10       1.0  0.7945008386518851  0.9447124697588836  0.3693370046851213  1.0000
  H   H11       1.0  0.734011159169839  0.8042243187425057  0.4055976336782549  1.0000
  H   H12       1.0  0.1437646640260652  0.6412023404094285  0.6204338797462581  1.0000
  H   H13       1.0  0.0948004070732509  0.4399326200933729  0.4283213829551967  1.0000
  H   H14       1.0  0.9061389674213843  0.4958997090586621  0.39814556554244257  1.0000
  H   H15       1.0  0.3827925151151065  0.6970005439198202  0.244352027689544  1.0000
  H   H16       1.0  0.6351904977067235  0.39017469771167157  0.833717034782907  1.0000
  H   H17       1.0  0.41962407701335275  0.9122235295099584  0.5430027361804831  1.0000
  H   H18       1.0  0.7002727028449273  0.125818315266244  0.47145732850012206  1.0000
  H   H19       1.0  0.3384975509949797  0.004005427070076498  0.43624206703813667  1.0000
  C   C1        1.0  0.49785464218169306  0.2729597979044199  0.4721493004888797  1.0000
  C   C2        1.0  0.48795917846594256  0.13750978864174357  0.46704398484152404  1.0000
  C   C3        1.0  0.08590449165611601  0.5736916325067368  0.5578174983198136  1.0000
  C   C4        1.0  0.5050563513386309  0.49590305153820674  0.23494571813662893  1.0000
  C   C5        1.0  0.9335447764071462  0.5676473983809629  0.5680640926009771  1.0000
  C   C6        1.0  0.5027584329981208  0.7411281666971802  0.4830418574149177  1.0000
  C   C7        1.0  0.5043711053343428  0.5356760897445341  0.7162316804635365  1.0000
  C   C8        1.0  0.38059485222566286  0.7061873115353093  0.14724700431824533  1.0000
  C   C9        1.0  0.3242763281377847  0.8063712418686745  0.10796703900114576  1.0000
  C   C10       1.0  0.3200018032604817  0.8186470688281843  0.9823847850163855  1.0000
  C   C11       1.0  0.3777842635157213  0.7355246378461259  0.8942127968931427  1.0000
  C   C12       1.0  0.4391212307012538  0.6174740771546751  0.06254578501825847  1.0000
  C   C13       1.0  0.44061785689839184  0.6319473836997105  0.9334955866479149  1.0000
  C   C14       1.0  0.507219165339869  0.5178997385646084  0.10343281584903247  1.0000
  C   C15       1.0  0.5802477518249133  0.44051836835936337  0.022658773395249892  1.0000
  C   C16       1.0  0.5818614054174702  0.4541147832366976  0.8978043794017762  1.0000
  C   C17       1.0  0.5105539539246351  0.5450509088563961  0.8529460618751369  1.0000
  C   C18       1.0  0.6125144305131797  0.9434863306676248  0.46063236164259536  1.0000
  C   C19       1.0  0.5055370036382598  0.8705629043893668  0.49487687506135786  1.0000
  C   C20       1.0  0.6044556822950895  0.07307930776455858  0.4683889682289787  1.0000
  N   N1        1.0  0.1534112614014376  0.5034241654426949  0.48260386211310174  1.0000
  N   N2        1.0  0.8549534677031049  0.520225341046384  0.4770983105160837  1.0000
  N   N3        1.0  0.3560103146434344  0.09336653250994693  0.46016124012169246  1.0000
  N   N4        1.0  0.8849337039866896  0.6127308872064532  0.676742099488784  1.0000
  N   N5        1.0  0.2618170543453147  0.8984021068116803  0.18759194861544157  1.0000
  N   N6        1.0  0.3781488285936305  0.7638918926681625  0.7759853663104932  1.0000
  N   N7        1.0  0.7329833609633455  0.8960654074715108  0.4193655010659184  1.0000
  O   O1        1.0  0.3842465672020836  0.3230401972742527  0.4570988088238791  1.0000
  O   O2        1.0  0.6140045643760388  0.32578254581999727  0.4905167058948407  1.0000
  O   O3        1.0  0.3913589186959427  0.5068729092299051  0.2906202739768843  1.0000
  O   O4        1.0  0.6172537889974095  0.46695390999973807  0.2821036575574637  1.0000
  O   O5        1.0  0.3882945610022475  0.6880410919609118  0.5073939338493645  1.0000
  O   O6        1.0  0.6102142962666477  0.6824209728864615  0.4481190004774262  1.0000
  O   O7        1.0  0.3883017679762162  0.5112884591211965  0.6646556363381462  1.0000
  O   O8        1.0  0.6168004540134504  0.5461015282297126  0.6590504647556725  1.0000
  O   O9        1.0  0.2581416566025112  0.9165518848483174  0.9432237024538349  1.0000
