data_image0
_chemical_formula_structural       Mg5H38C52N4O18
_chemical_formula_sum              "Mg5 H38 C52 N4 O18"
_cell_length_a       9.796045035589191
_cell_length_b       10.102704546127166
_cell_length_c       14.168547898029061
_cell_angle_alpha    73.89946645088685
_cell_angle_beta     73.41184608678338
_cell_angle_gamma    70.02743837864051

_space_group_name_H-M_alt    "P 1"
_space_group_IT_number       1

loop_
  _space_group_symop_operation_xyz
  'x, y, z'

loop_
  _atom_site_type_symbol
  _atom_site_label
  _atom_site_symmetry_multiplicity
  _atom_site_fract_x
  _atom_site_fract_y
  _atom_site_fract_z
  _atom_site_occupancy
  Mg  Mg1       1.0  0.20516417981210813  0.4342587578195138  0.007823203093920489  1.0000
  Mg  Mg2       1.0  0.7948369478244643  0.5657410962250112  0.9921771904210175  1.0000
  Mg  Mg3       1.0  0.5000000260434447  0.49999960653927633  6.229007780679843e-07  1.0000
  Mg  Mg4       1.0  0.5361486391036081  0.15366354921268066  0.9862996937143294  1.0000
  Mg  Mg5       1.0  0.4638503429446531  0.846336320589856  0.013699715744351675  1.0000
  H   H1        1.0  0.5576017179429725  0.593652739233093  0.12022070360501404  1.0000
  H   H2        1.0  0.4424004772253624  0.406347106575197  0.8797794772677889  1.0000
  H   H3        1.0  0.5913323161250688  0.985491604460357  0.6931498245638468  1.0000
  H   H4        1.0  0.4086669849431884  0.014507191279477602  0.306851146133198  1.0000
  H   H5        1.0  0.6900878818516533  0.027023608328427404  0.5086819335963996  1.0000
  H   H6        1.0  0.30991111072140126  0.972976262188567  0.4913188852028085  1.0000
  H   H7        1.0  0.7328802108113451  0.5858497139224497  0.5123280695010877  1.0000
  H   H8        1.0  0.26712197383218955  0.4141501311713895  0.48767070203118823  1.0000
  H   H9        1.0  0.6342393210569242  0.5481476445962203  0.6966330860384035  1.0000
  H   H10       1.0  0.36576102649350867  0.4518511414784643  0.3033648533354452  1.0000
  H   H11       1.0  0.6897871735693782  0.0671784234193922  0.35771466216584713  1.0000
  H   H12       1.0  0.31021257277783576  0.9328225132812948  0.6422850874231258  1.0000
  H   H13       1.0  0.8082928874423914  0.09758748799857393  0.1770707815800208  1.0000
  H   H14       1.0  0.19170548287785752  0.9024145317155075  0.8229290287532506  1.0000
  H   H15       1.0  0.8922300601995086  0.6084730633357723  0.3797191527114593  1.0000
  H   H16       1.0  0.10777075367946047  0.391527865128687  0.620280384235386  1.0000
  H   H17       1.0  0.9980978634424602  0.6588867720586509  0.1980465171749585  1.0000
  H   H18       1.0  0.0019037147354623778  0.3411152233039517  0.8019533599021785  1.0000
  H   H19       1.0  0.6647258787796063  0.3882949999693892  0.2681120511677335  1.0000
  H   H20       1.0  0.3352749403617707  0.6117059288522955  0.7318881904493678  1.0000
  H   H21       1.0  0.5642831059800173  0.3194013899016639  0.4498955701962757  1.0000
  H   H22       1.0  0.43571832488936474  0.6805973890084758  0.5501042705462281  1.0000
  H   H23       1.0  0.9928653623501447  0.2558110716846826  0.5097208273630613  1.0000
  H   H24       1.0  0.007134697754672445  0.7441887905960771  0.4902797787940187  1.0000
  H   H25       1.0  0.09138530076075566  0.3232633736958804  0.32728173116188225  1.0000
  H   H26       1.0  0.9086155236430143  0.6767375554830296  0.6727192151254896  1.0000
  H   H27       1.0  0.8275840279620893  0.06422339286362441  0.8230704692658933  1.0000
  H   H28       1.0  0.1724160321427277  0.9357764694171353  0.17693013689118686  1.0000
  H   H29       1.0  0.9279816590132273  0.11358214770885412  0.6406341968266389  1.0000
  H   H30       1.0  0.07201778410117744  0.8864198641262252  0.3593661055347681  1.0000
  H   H31       1.0  0.47879056340546083  0.3483118313445602  0.6033237146549909  1.0000
  H   H32       1.0  0.521209805194559  0.6516869561590469  0.39667704339991866  1.0000
  H   H33       1.0  0.39613846054073326  0.2762122481799736  0.7868414446049597  1.0000
  H   H34       1.0  0.6038615943016908  0.7237876137435607  0.21315845688184953  1.0000
  H   H35       1.0  0.9173994182185224  0.2364778700960244  0.9797090816958376  1.0000
  H   H36       1.0  0.08259957435453194  0.7635220004209703  0.020291737103370573  1.0000
  H   H37       1.0  0.15867628114920512  0.0609728419343654  0.9932356571422218  1.0000
  H   H38       1.0  0.8413227114238497  0.939027028582629  0.006765161656993333  1.0000
  C   C1        1.0  0.5477409333652971  0.7400185500433311  0.8175360740005218  1.0000
  C   C2        1.0  0.4522597332051318  0.25997916196865833  0.1824634266116902  1.0000
  C   C3        1.0  0.6049856680220173  0.7651813649856295  0.7057661047623185  1.0000
  C   C4        1.0  0.39501362778384674  0.2348174303969728  0.2942341612644554  1.0000
  C   C5        1.0  0.6213449059483764  0.8996930768760123  0.652091966395453  1.0000
  C   C6        1.0  0.3786543951198809  0.10030571886382231  0.3479090043015916  1.0000
  C   C7        1.0  0.6757550517159456  0.9221977004047734  0.5487805661540934  1.0000
  C   C8        1.0  0.32424607065823347  0.07780215328252642  0.4512191226905813  1.0000
  C   C9        1.0  0.7170241190826728  0.810476452436568  0.4959595931360282  1.0000
  C   C10       1.0  0.2829756325269415  0.18952448462135152  0.5040408611232152  1.0000
  C   C11       1.0  0.7015214983867182  0.6750257929974739  0.5507962117908463  1.0000
  C   C12       1.0  0.2984796292498544  0.3249740610470511  0.44920418172409177  1.0000
  C   C13       1.0  0.6458427102814853  0.6529962992607781  0.654128694276892  1.0000
  C   C14       1.0  0.35415871006310334  0.34700247893491115  0.34586973712509206  1.0000
  C   C15       1.0  0.780059691451029  0.8340705293357474  0.38681751797250297  1.0000
  C   C16       1.0  0.21994081393273757  0.16593147390586444  0.6131818670765057  1.0000
  C   C17       1.0  0.758672633443183  0.972786642855482  0.3265729393809594  1.0000
  C   C18       1.0  0.24132604537227562  0.027214302081439705  0.6734270228501558  1.0000
  C   C19       1.0  0.8248723496799641  0.9901744455955139  0.2246374139682174  1.0000
  C   C20       1.0  0.17512632387309418  0.009826498984175201  0.775361843592627  1.0000
  C   C21       1.0  0.8680146675666476  0.7193498682943017  0.33844745131873577  1.0000
  C   C22       1.0  0.13198507878056626  0.28065106840638526  0.6615522982702373  1.0000
  C   C23       1.0  0.9291677401884326  0.7476521204268992  0.2359478308135366  1.0000
  C   C24       1.0  0.07083169240117829  0.2523498906937149  0.7640510622073364  1.0000
  C   C25       1.0  0.943632583896509  0.407806639403205  0.17585127308131376  1.0000
  C   C26       1.0  0.05636853847767039  0.5921932142840945  0.8241484157633607  1.0000
  C   C27       1.0  0.8842681460091981  0.3615348275554739  0.2861813131801084  1.0000
  C   C28       1.0  0.11573160560041623  0.6384661095024459  0.713819141079135  1.0000
  C   C29       1.0  0.7355506799597862  0.3602242225821541  0.32189886052773187  1.0000
  C   C30       1.0  0.26445044767678627  0.6397756314623709  0.6781015329872062  1.0000
  C   C31       1.0  0.6796882580396114  0.3215695236081261  0.424454538156361  1.0000
  C   C32       1.0  0.32031286433456774  0.6784303300791735  0.5755451506883132  1.0000
  C   C33       1.0  0.7708501432606951  0.2821765688917993  0.4944673752817009  1.0000
  C   C34       1.0  0.2291509791134842  0.7178232847955004  0.5055323135629735  1.0000
  C   C35       1.0  0.9200646721738579  0.28331325132761265  0.4575334997558897  1.0000
  C   C36       1.0  0.07993645546272178  0.7166866027169122  0.5424668937590553  1.0000
  C   C37       1.0  0.9760194162392394  0.32204885675641753  0.3551499935710821  1.0000
  C   C38       1.0  0.023980335370374837  0.6779520803015019  0.6448504606881613  1.0000
  C   C39       1.0  0.7529381557143324  0.12465995776963015  0.7717876209662932  1.0000
  C   C40       1.0  0.24706220762328715  0.8753388293767445  0.22821243241834574  1.0000
  C   C41       1.0  0.8091971996942746  0.15578880525269062  0.6688780034113507  1.0000
  C   C42       1.0  0.19080392794230513  0.8442110487918342  0.33112239010358735  1.0000
  C   C43       1.0  0.7134239007238391  0.24041321479823108  0.6035834304444592  1.0000
  C   C44       1.0  0.28657509184921554  0.7595866557187635  0.39641738835474877  1.0000
  C   C45       1.0  0.5612086129768485  0.28294327409578574  0.6480919229641627  1.0000
  C   C46       1.0  0.4387914418655684  0.7170565878277485  0.3519079785226467  1.0000
  C   C47       1.0  0.5141673138860197  0.24416418226424244  0.751693154489523  1.0000
  C   C48       1.0  0.48583304945159955  0.7558346048821323  0.2483068988951231  1.0000
  C   C49       1.0  0.7991728030956224  0.2703518853263986  0.9750698369622768  1.0000
  C   C50       1.0  0.20082511668328348  0.7296479930695982  0.024930489808802688  1.0000
  C   C51       1.0  0.2239729192871849  0.1317034404469837  0.9915036488553283  1.0000
  C   C52       1.0  0.7760274440504417  0.868295346699391  0.008496404529317655  1.0000
  N   N1        1.0  0.9098093391184607  0.8805243580202954  0.1788110778561033  1.0000
  N   N2        1.0  0.0901893396969911  0.11947658691662612  0.8211888843750045  1.0000
  N   N3        1.0  0.6077763796864986  0.16892633173108618  0.8142349012198906  1.0000
  N   N4        1.0  0.39222261288656296  0.8310735387859013  0.18576591757931743  1.0000
  O   O1        1.0  0.5140335670770355  0.6228215635052337  0.8579434726230701  1.0000
  O   O2        1.0  0.4859667962605911  0.37717722364114087  0.1420565807615759  1.0000
  O   O3        1.0  0.5382848129186968  0.8357825666367661  0.8631659873331615  1.0000
  O   O4        1.0  0.46171478611997685  0.16421515361145822  0.13683372592118556  1.0000
  O   O5        1.0  0.0779158733055851  0.4116702443410105  0.1481257805694653  1.0000
  O   O6        1.0  0.9220855628261972  0.5883285349263547  0.851874764843309  1.0000
  O   O7        1.0  0.8542032268058081  0.4420118420012216  0.11781480293012687  1.0000
  O   O8        1.0  0.14579789556836428  0.5579880116860778  0.8821848859145478  1.0000
  O   O9        1.0  0.7396710271990088  0.1757053094812591  0.9809104342715215  1.0000
  O   O10       1.0  0.26032658408469445  0.8242956436918973  0.01908974060172141  1.0000
  O   O11       1.0  0.7330189214977593  0.40544829955907613  0.9637170971566178  1.0000
  O   O12       1.0  0.266980830111855  0.5945526374988434  0.03628335710262577  1.0000
  O   O13       1.0  0.3626518305773274  0.07056986152282012  0.9914840360464225  1.0000
  O   O14       1.0  0.6373482190026963  0.9294300000434818  0.008515160770116404  1.0000
  O   O15       1.0  0.15950599814264876  0.2631465234544095  0.9889867940816757  1.0000
  O   O16       1.0  0.840494056699768  0.7368533384691177  0.011013107405133806  1.0000
  O   O17       1.0  0.5726795320459175  0.6334746742298877  0.04848292427490722  1.0000
  O   O18       1.0  0.42732052805889953  0.366525188050872  0.9515176818821728  1.0000
