data_image0
_chemical_formula_structural       Cu16H96W4C144S16I8N72
_chemical_formula_sum              "Cu16 H96 W4 C144 S16 I8 N72"
_cell_length_a       13.90202791300426
_cell_length_b       20.555105314846234
_cell_length_c       20.555092696365413
_cell_angle_alpha    99.77578587155134
_cell_angle_beta     90.00005638162551
_cell_angle_gamma    90.00005922999719

_space_group_name_H-M_alt    "P 1"
_space_group_IT_number       1

loop_
  _space_group_symop_operation_xyz
  'x, y, z'

loop_
  _atom_site_type_symbol
  _atom_site_label
  _atom_site_symmetry_multiplicity
  _atom_site_fract_x
  _atom_site_fract_y
  _atom_site_fract_z
  _atom_site_occupancy
  Cu  Cu1       1.0  0.6586151964571059  0.3845121573955127  0.2725089351756367  1.0000
  Cu  Cu2       1.0  0.6586199930805422  0.11548683507109561  0.22748601599246143  1.0000
  Cu  Cu3       1.0  0.8413890429252647  0.7274869862789968  0.6154848465030652  1.0000
  Cu  Cu4       1.0  0.8413878343293034  0.772509133701135  0.8845137005484247  1.0000
  Cu  Cu5       1.0  0.341433921052321  0.6154876703211228  0.7274899642656791  1.0000
  Cu  Cu6       1.0  0.3414305630686272  0.8845129986645476  0.7725138574481178  1.0000
  Cu  Cu7       1.0  0.15856800168165108  0.2725079048380153  0.3845132443619264  1.0000
  Cu  Cu8       1.0  0.1585656136818869  0.22748626310729492  0.11548641916640179  1.0000
  Cu  Cu9       1.0  0.6596292248919439  0.2525167396568975  0.11973412444908861  1.0000
  Cu  Cu10      1.0  0.6596258138505887  0.24748079976782827  0.3802649679672001  1.0000
  Cu  Cu11      1.0  0.8403663834545154  0.8802653259989982  0.7474808292848962  1.0000
  Cu  Cu12      1.0  0.8403719422951427  0.6197362293653583  0.7525195803349405  1.0000
  Cu  Cu13      1.0  0.3404055062174365  0.7474781063545421  0.8802566614571177  1.0000
  Cu  Cu14      1.0  0.34041107523373887  0.7525185944716101  0.6197435906021482  1.0000
  Cu  Cu15      1.0  0.15959281912638085  0.11974341457301559  0.2525239084846334  1.0000
  Cu  Cu16      1.0  0.1595894182240372  0.38025519111462813  0.24747550955768113  1.0000
  H   H1        1.0  0.659242505196623  0.5118080293608784  0.22395902842234958  1.0000
  H   H2        1.0  0.6592400303547237  0.9881925908529753  0.27604406508991997  1.0000
  H   H3        1.0  0.8407603022842097  0.7760451805915594  0.4881916251648449  1.0000
  H   H4        1.0  0.8407591967653261  0.7239575508355642  0.011809503399035713  1.0000
  H   H5        1.0  0.3408037350107946  0.48818032690501684  0.7760190184033675  1.0000
  H   H6        1.0  0.3408062099011246  0.0118177330365796  0.7239774732542159  1.0000
  H   H7        1.0  0.1591945843941076  0.2239783816989701  0.5118174862177085  1.0000
  H   H8        1.0  0.1591985671416651  0.27601855727566976  0.9881816190227966  1.0000
  H   H9        1.0  0.7608262419318734  0.5728093264120632  0.1541665579011777  1.0000
  H   H10       1.0  0.7608244945235754  0.9271918693088638  0.34583621152644645  1.0000
  H   H11       1.0  0.7391751319129438  0.8458350083170177  0.4271901233311794  1.0000
  H   H12       1.0  0.7391740082719948  0.6541661512623025  0.07280970661062013  1.0000
  H   H13       1.0  0.2392228755495651  0.4271760558815246  0.8458090558048426  1.0000
  H   H14       1.0  0.23922678097222413  0.0728214225379062  0.6541867859418886  1.0000
  H   H15       1.0  0.2607747195296639  0.15418758170518743  0.572821261338241  1.0000
  H   H16       1.0  0.2607772817569298  0.34581042642874144  0.9271776006677542  1.0000
  H   H17       1.0  0.9709717164121441  0.4160828504207146  0.1461946871963136  1.0000
  H   H18       1.0  0.9709694551893193  0.083918401673813  0.3538047357044718  1.0000
  H   H19       1.0  0.5290318096986012  0.8538051905686858  0.583918221895388  1.0000
  H   H20       1.0  0.5290311729867909  0.6461956080486785  0.9160813683690988  1.0000
  H   H21       1.0  0.0290961034124848  0.5839209626630932  0.8538107030759932  1.0000
  H   H22       1.0  0.0290962066621745  0.916078918649539  0.6461874284824772  1.0000
  H   H23       1.0  0.4709029360004777  0.1461877168869421  0.41607808454691053  1.0000
  H   H24       1.0  0.4709064500059553  0.35381213015607926  0.0839207726871649  1.0000
  H   H25       1.0  0.8585866796478071  0.36030198440788314  0.21301484063005202  1.0000
  H   H26       1.0  0.8585836873241347  0.13969918283102337  0.2869859524825671  1.0000
  H   H27       1.0  0.6414189997322309  0.7869879131396615  0.639699381674113  1.0000
  H   H28       1.0  0.6414176648639157  0.7130149569957923  0.8603011097927293  1.0000
  H   H29       1.0  0.1414825788134735  0.6397003386805694  0.7869888460830553  1.0000
  H   H30       1.0  0.14148197453036457  0.8602991428597663  0.713009295408277  1.0000
  H   H31       1.0  0.3585171846110384  0.21301042754305405  0.3602983011611514  1.0000
  H   H32       1.0  0.35852139676516254  0.2869893286259426  0.1397009522860628  1.0000
  H   H33       1.0  0.02101258802443339  0.7130480556589306  0.9893263816558431  1.0000
  H   H34       1.0  0.0210130159130486  0.7869518309379303  0.5106736913701724  1.0000
  H   H35       1.0  0.4789857318259649  0.010673777636803501  0.28695112260822236  1.0000
  H   H36       1.0  0.4789853250866614  0.48933003142402504  0.21304936198363578  1.0000
  H   H37       1.0  0.9790422840288783  0.2869443190711395  0.01066351298958071  1.0000
  H   H38       1.0  0.9790454527634935  0.2130559494461224  0.4893352677257212  1.0000
  H   H39       1.0  0.520956207091011  0.9893384305576235  0.7130561291291074  1.0000
  H   H40       1.0  0.5209558944864554  0.5106638422821277  0.7869436971736904  1.0000
  H   H41       1.0  0.13715391532949886  0.7690064670886941  0.9278547707684197  1.0000
  H   H42       1.0  0.1371557855920855  0.7309945068510046  0.572146044785633  1.0000
  H   H43       1.0  0.3628429703751407  0.0721441454062912  0.23099332295314673  1.0000
  H   H44       1.0  0.3628454281906599  0.427856601687836  0.2690060956956088  1.0000
  H   H45       1.0  0.8629052726553397  0.23099582891274653  0.07214453294652401  1.0000
  H   H46       1.0  0.862909156948291  0.26900631420288335  0.4278539903685897  1.0000
  H   H47       1.0  0.6370924946511566  0.9278566665659159  0.7690052511507375  1.0000
  H   H48       1.0  0.6370936334334943  0.572143722648157  0.7309933715545114  1.0000
  H   H49       1.0  0.3465973573092426  0.6260968314059808  0.9374533433759851  1.0000
  H   H50       1.0  0.34659799370890443  0.8739038238395341  0.5625475605144389  1.0000
  H   H51       1.0  0.15340096119891194  0.0625455633689711  0.3739038346156747  1.0000
  H   H52       1.0  0.15340250658742594  0.43745156219830517  0.12609630986372622  1.0000
  H   H53       1.0  0.653445286287635  0.3738884756548728  0.06251009534380361  1.0000
  H   H54       1.0  0.6534460886075806  0.12611499150676053  0.4374914233237135  1.0000
  H   H55       1.0  0.8465539254962663  0.9374918604124717  0.6261138716679184  1.0000
  H   H56       1.0  0.8465530993431258  0.5625087158150563  0.8738868682392252  1.0000
  H   H57       1.0  0.23901089256309402  0.5636758447021252  0.9996018470187025  1.0000
  H   H58       1.0  0.23901225345469607  0.9363247116417454  0.5003975089644115  1.0000
  H   H59       1.0  0.2609888598175658  0.0003980763577047003  0.4363244043685058  1.0000
  H   H60       1.0  0.260986812968298  0.49960061102436276  0.06367460858387372  1.0000
  H   H61       1.0  0.7610418215029284  0.4363040381640459  0.00036167631080270536  1.0000
  H   H62       1.0  0.761043337975046  0.0636980318938782  0.49963871271427956  1.0000
  H   H63       1.0  0.7389573950463415  0.9996398621406543  0.5636967917609326  1.0000
  H   H64       1.0  0.7389558452075489  0.5003606181854181  0.9363028872295374  1.0000
  H   H65       1.0  0.5939430222134091  0.24455407881637112  0.9767222298643786  1.0000
  H   H66       1.0  0.59394270088665  0.2554456886029969  0.5232771438393158  1.0000
  H   H67       1.0  0.9060561496329029  0.023277587474993304  0.7554458956266927  1.0000
  H   H68       1.0  0.9060543307677377  0.4767214443333716  0.7445521074990538  1.0000
  H   H69       1.0  0.40606869066901646  0.7554412367679646  0.023264740891683323  1.0000
  H   H70       1.0  0.40607116997921366  0.7445581665870977  0.47673506440202124  1.0000
  H   H71       1.0  0.09393254505131667  0.9767350993490714  0.24455900198670835  1.0000
  H   H72       1.0  0.09393220592877329  0.5232630679806861  0.2554423374482937  1.0000
  H   H73       1.0  0.4549229271454749  0.19222339083327003  0.9089121792279897  1.0000
  H   H74       1.0  0.4549220651906936  0.3077747734661145  0.5910858656130529  1.0000
  H   H75       1.0  0.045077533808424185  0.09108559960591832  0.8077762163505824  1.0000
  H   H76       1.0  0.04507553506692119  0.40891172866495407  0.6922214165583398  1.0000
  H   H77       1.0  0.5450736800480911  0.8077936606599325  0.09108078409087031  1.0000
  H   H78       1.0  0.545078138581971  0.6922053741878289  0.40892051363756116  1.0000
  H   H79       1.0  0.9549248279266818  0.9089205493262823  0.19220815019369303  1.0000
  H   H80       1.0  0.9549253880396904  0.5910783402588535  0.3077943717603304  1.0000
  H   H81       1.0  0.372810491367801  0.10257060261826473  0.0757896275481684  1.0000
  H   H82       1.0  0.3728109703250766  0.3974296531270697  0.42420874429905814  1.0000
  H   H83       1.0  0.1271878400756776  0.9242061494350511  0.8974272357464131  1.0000
  H   H84       1.0  0.12718879771399116  0.5757918452146101  0.6025716256350506  1.0000
  H   H85       1.0  0.6271559044289177  0.8974686904704119  0.9242113571786703  1.0000
  H   H86       1.0  0.6271554254106987  0.6025307302128482  0.5757914787853053  1.0000
  H   H87       1.0  0.8728440137353602  0.0757909752760995  0.10253327346948991  1.0000
  H   H88       1.0  0.8728452141178094  0.4242092346176565  0.3974702914502971  1.0000
  H   H89       1.0  0.5101085362152205  0.16111660714567225  0.1380235500139548  1.0000
  H   H90       1.0  0.5101102737147727  0.3388842689875631  0.36197696159598536  1.0000
  H   H91       1.0  0.9898877872536219  0.8619758000636896  0.8388816786848566  1.0000
  H   H92       1.0  0.9898896445868033  0.6380233998871887  0.6611164994516301  1.0000
  H   H93       1.0  0.48987943914739424  0.8389029216521138  0.8619712785690156  1.0000
  H   H94       1.0  0.4898791402672415  0.661097856295541  0.6380302280652614  1.0000
  H   H95       1.0  0.0101210483545628  0.13802983715989112  0.1610996850120472  1.0000
  H   H96       1.0  0.010122068317592398  0.36196916139532226  0.3389035891357253  1.0000
  W   W1        1.0  0.6571721222025814  0.24999927287510104  0.2500013305680114  1.0000
  W   W2        1.0  0.8428249197062738  0.7500022596762579  0.7500004483635506  1.0000
  W   W3        1.0  0.34287483735158014  0.7500010725703634  0.7500015457210978  1.0000
  W   W4        1.0  0.15712277375224906  0.2499990459571677  0.2499982065991873  1.0000
  C   C1        1.0  0.7284884888505588  0.4922235666201047  0.2047623572787103  1.0000
  C   C2        1.0  0.7284860259321705  0.0077779946228205  0.2952398725912815  1.0000
  C   C3        1.0  0.7715114413382196  0.7952414692524173  0.5077776563979057  1.0000
  C   C4        1.0  0.7715117242952089  0.7047610219211222  0.9922238333045215  1.0000
  C   C5        1.0  0.2715656638800255  0.5077687810268544  0.7952231543723302  1.0000
  C   C6        1.0  0.2715659688726433  0.992229818859734  0.7047744434947916  1.0000
  C   C7        1.0  0.22843409418027247  0.20477518184856797  0.4922303230260923  1.0000
  C   C8        1.0  0.22843740778571234  0.2952234843589069  0.007769637629031918  1.0000
  C   C9        1.0  0.785964274740543  0.5264297957448889  0.1667534608348049  1.0000
  C   C10       1.0  0.7859625800180582  0.9735724052786028  0.3332490036081026  1.0000
  C   C11       1.0  0.714036377530114  0.8332487273716256  0.4735715692135756  1.0000
  C   C12       1.0  0.7140366443530725  0.6667533985203846  0.026428402129234016  1.0000
  C   C13       1.0  0.21408700071300762  0.4735645205069261  0.8332314002320302  1.0000
  C   C14       1.0  0.21408869546866777  0.026435420240453297  0.666767260475055  1.0000
  C   C15       1.0  0.28591203526573133  0.166767917712157  0.5264354362128927  1.0000
  C   C16       1.0  0.2859139263673214  0.33323160141636526  0.9735651496588106  1.0000
  C   C17       1.0  0.8753058801513588  0.4997051747727925  0.14464369994497872  1.0000
  C   C18       1.0  0.8753034931949344  0.0002955157861493  0.3553575128192747  1.0000
  C   C19       1.0  0.6246969298994571  0.8553577982308698  0.5002944535708167  1.0000
  C   C20       1.0  0.6246964124035799  0.6446440646052027  0.9997048886815705  1.0000
  C   C21       1.0  0.12475474645982837  0.5002891745841469  0.8553465181184237  1.0000
  C   C22       1.0  0.12475425616264599  0.9997112893221645  0.6446532325658795  1.0000
  C   C23       1.0  0.37524572833481784  0.14465390126173364  0.4997102823161654  1.0000
  C   C24       1.0  0.3752462458073751  0.35534685920165293  0.00028963335024201385  1.0000
  C   C25       1.0  0.9024925274809377  0.43904419950939666  0.16199887742681093  1.0000
  C   C26       1.0  0.9024902081353829  0.06095700440735641  0.3380019511537213  1.0000
  C   C27       1.0  0.5975095602659976  0.8380021715504924  0.5609574742868304  1.0000
  C   C28       1.0  0.5975097004477659  0.6619986902897496  0.939043145293759  1.0000
  C   C29       1.0  0.09757385369950808  0.5609585901511595  0.8380005071449547  1.0000
  C   C30       1.0  0.09757329576449078  0.9390413543837469  0.6619986537290359  1.0000
  C   C31       1.0  0.40242662407909785  0.16199863440360932  0.4390401258186571  1.0000
  C   C32       1.0  0.4024293611784485  0.33800116145452824  0.06095965009784982  1.0000
  C   C33       1.0  0.839958488556185  0.4078082329877759  0.199366537296747  1.0000
  C   C34       1.0  0.8399568820049765  0.09219242804338992  0.3006346469137995  1.0000
  C   C35       1.0  0.6600450352057547  0.8006354249756387  0.5921942354851168  1.0000
  C   C36       1.0  0.6600444678428302  0.6993669730820288  0.9078071641731427  1.0000
  C   C37       1.0  0.16010357670811004  0.5921960346301276  0.8006326028356626  1.0000
  C   C38       1.0  0.16010374461421145  0.9078029688098042  0.6993654728443204  1.0000
  C   C39       1.0  0.33989690369556774  0.19936587162778352  0.4078029584772623  1.0000
  C   C40       1.0  0.3399003483410254  0.30063338134837647  0.09219717307274783  1.0000
  C   C41       1.0  0.9383851633784134  0.5339543918352733  0.10425358589010611  1.0000
  C   C42       1.0  0.9383842673341433  0.9660479244793551  0.395747053683067  1.0000
  C   C43       1.0  0.5616147722528878  0.8957477402336879  0.4660485428090979  1.0000
  C   C44       1.0  0.5616142350360745  0.6042532800451568  0.033952604695706226  1.0000
  C   C45       1.0  0.0616617961537997  0.46603792872586774  0.8957275427639217  1.0000
  C   C46       1.0  0.0616626922411072  0.0339638683420489  0.6042727792257168  1.0000
  C   C47       1.0  0.43833867578749863  0.10427387150538442  0.5339641411519835  1.0000
  C   C48       1.0  0.4383384936360954  0.3957272529138295  0.9660363234132419  1.0000
  C   C49       1.0  0.0529236971009865  0.5964423551818571  0.03649024448942845  1.0000
  C   C50       1.0  0.052923523262570896  0.9035577464965389  0.4635104112351983  1.0000
  C   C51       1.0  0.44707537407176545  0.9635113531476879  0.4035582587975739  1.0000
  C   C52       1.0  0.4470748240010494  0.5364905527423858  0.09644198389013071  1.0000
  C   C53       1.0  0.9471225431042926  0.40354598302882766  0.9634848803402178  1.0000
  C   C54       1.0  0.9471248749558752  0.096455551367427  0.5365135602306594  1.0000
  C   C55       1.0  0.5528759160152319  0.03651569181698021  0.5964558015550167  1.0000
  C   C56       1.0  0.5528743080673877  0.46348502860792007  0.9035437006815101  1.0000
  C   C57       1.0  0.119637706469895  0.6326508092970827  0.00039773102971451315  1.0000
  C   C58       1.0  0.1196389683300652  0.8673493420942933  0.4996020045891357  1.0000
  C   C59       1.0  0.3803606481490505  0.9996021592101699  0.3673501031976442  1.0000
  C   C60       1.0  0.380359376166858  0.5004001785859344  0.13264919245208517  1.0000
  C   C61       1.0  0.8804178848930633  0.36734001224409957  0.9995802330699918  1.0000
  C   C62       1.0  0.8804209389963232  0.13266146943868762  0.5004186406157487  1.0000
  C   C63       1.0  0.6195805714582148  0.000419931133904999  0.6326602266156839  1.0000
  C   C64       1.0  0.6195782467956192  0.4995813356605724  0.8673389233598954  1.0000
  C   C65       1.0  0.0921036313055481  0.6913363034924629  0.979338224399605  1.0000
  C   C66       1.0  0.0921055455881401  0.8086641361483442  0.5206619869090758  1.0000
  C   C67       1.0  0.4078939687769676  0.020661180883052997  0.30866404402485154  1.0000
  C   C68       1.0  0.4078927958590555  0.47934108782128965  0.19133614057622592  1.0000
  C   C69       1.0  0.9079533987040164  0.3086550718894614  0.02064956054148581  1.0000
  C   C70       1.0  0.9079550810494083  0.19134562487947457  0.4793482696020348  1.0000
  C   C71       1.0  0.5920465315023974  0.9793510393475771  0.6913451557092714  1.0000
  C   C72       1.0  0.5920433884738329  0.5206503055653685  0.8086545663121284  1.0000
  C   C73       1.0  0.1575314951421376  0.7233165434613938  0.9446203546681105  1.0000
  C   C74       1.0  0.1575319723190347  0.7766834631974789  0.5553808026381333  1.0000
  C   C75       1.0  0.3424668268117088  0.055379022278081905  0.2766830373950455  1.0000
  C   C76       1.0  0.34246780521471  0.4446217138122392  0.2233173387917233  1.0000
  C   C77       1.0  0.8425154644035543  0.2766842204101607  0.0553704274912974  1.0000
  C   C78       1.0  0.8425185838382204  0.22331790868134502  0.4446285663517315  1.0000
  C   C79       1.0  0.657481585973315  0.9446301818535262  0.7233169112305902  1.0000
  C   C80       1.0  0.6574827655161571  0.5553707240674868  0.7766827827978133  1.0000
  C   C81       1.0  0.2738950370682076  0.6437024355585167  0.9500548356948784  1.0000
  C   C82       1.0  0.2738963475173861  0.8562981559448489  0.5499455224667145  1.0000
  C   C83       1.0  0.22610400095129526  0.0499446586846446  0.3562980724504071  1.0000
  C   C84       1.0  0.2261041525874319  0.45005449321273977  0.14370099317639534  1.0000
  C   C85       1.0  0.7261468872200039  0.356283943071908  0.04992240071409533  1.0000
  C   C86       1.0  0.7261484541066066  0.14371908815735424  0.45007860882965645  1.0000
  C   C87       1.0  0.7738516050508225  0.9500789397166046  0.6437168829245721  1.0000
  C   C88       1.0  0.7738507340365857  0.5499220634153944  0.8562829051080243  1.0000
  C   C89       1.0  0.213134835623876  0.6089016196937252  0.9850570373617202  1.0000
  C   C90       1.0  0.21313470980295784  0.8910974370743362  0.5149425421554312  1.0000
  C   C91       1.0  0.2868649190428414  0.014941928335502999  0.3910979398858175  1.0000
  C   C92       1.0  0.28686363501473977  0.48505777098435515  0.10890174267701276  1.0000
  C   C93       1.0  0.7869142818605467  0.3910911373496121  0.014914919159551223  1.0000
  C   C94       1.0  0.7869158463731549  0.10891046367445513  0.48508589691104476  1.0000
  C   C95       1.0  0.7130842130815723  0.985086552458597  0.6089090580374759  1.0000
  C   C96       1.0  0.7130833390978709  0.514914893566356  0.8910907617604452  1.0000
  C   C97       1.0  0.5421750261114724  0.2134075693924657  0.9969615163307141  1.0000
  C   C98       1.0  0.5421754423473502  0.28659166413493864  0.5030382216999385  1.0000
  C   C99       1.0  0.9578248630872535  0.0030380932430276  0.7865916826326823  1.0000
  C   C100      1.0  0.9578237492318138  0.49696048514626057  0.7134057944594403  1.0000
  C   C101      1.0  0.45783596746719013  0.7866035582333312  0.003030476747000014  1.0000
  C   C102      1.0  0.4578377091827264  0.7133953947100551  0.4969692895106875  1.0000
  C   C103      1.0  0.042163831580758405  0.9969690670693083  0.2133967416086477  1.0000
  C   C104      1.0  0.0421649454386639  0.5030290570151125  0.2866045560075889  1.0000
  C   C105      1.0  0.4655588163304287  0.18443385763822565  0.9594911467177027  1.0000
  C   C106      1.0  0.46555789275576126  0.3155648152205401  0.5405079615677053  1.0000
  C   C107      1.0  0.0344402037500799  0.040505785488541314  0.8155656398287902  1.0000
  C   C108      1.0  0.0344375517799662  0.4594920335704913  0.6844330393395097  1.0000
  C   C109      1.0  0.5344377908640539  0.815582221588741  0.04050408989004948  1.0000
  C   C110      1.0  0.5344401530582417  0.6844168013640513  0.4594967122463984  1.0000
  C   C111      1.0  0.965562157983207  0.9594978981722733  0.18441880944525482  1.0000
  C   C112      1.0  0.9655633713297007  0.5405014909461415  0.3155833149565553  1.0000
  C   C113      1.0  0.4024931864808464  0.14380474867385123  0.9877619774212008  1.0000
  C   C114      1.0  0.40249228398421627  0.3561933748365577  0.5122365120658259  1.0000
  C   C115      1.0  0.09750583096229798  0.012235147235500704  0.8561935672594956  1.0000
  C   C116      1.0  0.09750532114626509  0.4877627214982567  0.6438046758554634  1.0000
  C   C117      1.0  0.5974919116066033  0.8562172544217149  0.012234229428855851  1.0000
  C   C118      1.0  0.5974942527124653  0.643781339585175  0.48776849078687695  1.0000
  C   C119      1.0  0.9025080398781853  0.9877680036543882  0.143784470173813  1.0000
  C   C120      1.0  0.9025078304002533  0.5122313357992142  0.3562180902909375  1.0000
  C   C121      1.0  0.4192605568449891  0.13456927721085782  0.05267600429742461  1.0000
  C   C122      1.0  0.4192617397531321  0.36543003303464877  0.44732273036449033  1.0000
  C   C123      1.0  0.08073705738853927  0.9473209002245754  0.8654281063788004  1.0000
  C   C124      1.0  0.08073874549467058  0.5526770496034744  0.634569743480796  1.0000
  C   C125      1.0  0.5807238219324731  0.8654630956720766  0.9473223874838652  1.0000
  C   C126      1.0  0.5807255162542261  0.6345362771965882  0.5526789499745988  1.0000
  C   C127      1.0  0.9192775327612779  0.05267873488877229  0.1345396250905182  1.0000
  C   C128      1.0  0.9192765640212172  0.4473200388432303  0.3654647087748728  1.0000
  C   C129      1.0  0.4960868081822908  0.1667456438273902  0.0871291565274674  1.0000
  C   C130      1.0  0.4960886110667175  0.333254227261925  0.41287020804907826  1.0000
  C   C131      1.0  0.0039108059643738  0.9128674014144238  0.8332524792974851  1.0000
  C   C132      1.0  0.0039104356296207005  0.5871299935876239  0.6667457146456003  1.0000
  C   C133      1.0  0.5039011671812047  0.8332748722826294  0.9128658337633266  1.0000
  C   C134      1.0  0.5039015222319206  0.6667254237224897  0.5871356033442083  1.0000
  C   C135      1.0  0.9961009069194943  0.08713674581440502  0.1667271808408159  1.0000
  C   C136      1.0  0.9960998386368162  0.4128625767218921  0.3332758349392009  1.0000
  C   C137      1.0  0.3209633021234879  0.1100861837105143  0.9512182117834981  1.0000
  C   C138      1.0  0.3209625043718559  0.38991187771085123  0.5487811858414985  1.0000
  C   C139      1.0  0.17903643474851091  0.048779800199959304  0.8899128819894528  1.0000
  C   C140      1.0  0.1790358199702382  0.4512181426602524  0.6100864009854945  1.0000
  C   C141      1.0  0.6790275505149451  0.8899347959648123  0.048771989368923074  1.0000
  C   C142      1.0  0.6790290675677466  0.6100643598101598  0.4512308775657985  1.0000
  C   C143      1.0  0.8209731201824865  0.9512307645574939  0.11006782924884115  1.0000
  C   C144      1.0  0.8209737349722345  0.5487690004408704  0.3899347462053199  1.0000
  S   S1        1.0  0.5649906199717165  0.31580742954531615  0.19882801288616747  1.0000
  S   S2        1.0  0.5649913129720687  0.18419101512605351  0.30117067779012535  1.0000
  S   S3        1.0  0.9350071457303101  0.8011719444418189  0.6841920332010573  1.0000
  S   S4        1.0  0.9350093210544442  0.6988291933157101  0.8158078850160421  1.0000
  S   S5        1.0  0.43506065549642153  0.6841933794660592  0.8011700742651514  1.0000
  S   S6        1.0  0.4350606818182712  0.815808836665397  0.6988321176471075  1.0000
  S   S7        1.0  0.06493910909084379  0.19883084516856536  0.3158073513221851  1.0000
  S   S8        1.0  0.06493837240086009  0.3011676754310599  0.1841910162601721  1.0000
  S   S9        1.0  0.7488682005594641  0.3147209600444115  0.3244305384503861  1.0000
  S   S10       1.0  0.7488708705534605  0.185279615866989  0.1755691111800886  1.0000
  S   S11       1.0  0.7511309989335684  0.6755696435227136  0.6852783806804084  1.0000
  S   S12       1.0  0.7511312069621353  0.8244308499827466  0.8147217951440949  1.0000
  S   S13       1.0  0.2511722851232108  0.6852808904403177  0.6755764763925995  1.0000
  S   S14       1.0  0.2511710537567922  0.8147196880985206  0.8244248374109588  1.0000
  S   S15       1.0  0.24882676499199616  0.3244242602823634  0.3147195484770506  1.0000
  S   S16       1.0  0.24882799561479632  0.17557540726267012  0.18528010335914763  1.0000
  I   I1        1.0  0.5580789058559573  0.47708350100643326  0.3414638040340563  1.0000
  I   I2        1.0  0.5580769866586195  0.022915934229850204  0.1585365037636777  1.0000
  I   I3        1.0  0.9419231764741625  0.6585339508707764  0.522915086036555  1.0000
  I   I4        1.0  0.9419243659767671  0.8414661993331409  0.977083702060476  1.0000
  I   I5        1.0  0.441937842256543  0.5229044097382386  0.65852195391534  1.0000
  I   I6        1.0  0.4419376035348606  0.9770982787114024  0.8414759414120923  1.0000
  I   I7        1.0  0.058061921615909284  0.34147582517150005  0.47709760544076824  1.0000
  I   I8        1.0  0.0580607320784594  0.1585241736605028  0.022901486147020506  1.0000
  N   N1        1.0  0.7541350737695822  0.4336962266990484  0.2207997359293259  1.0000
  N   N2        1.0  0.7541312384717358  0.06630387199009388  0.2792017850966246  1.0000
  N   N3        1.0  0.7458698888002999  0.7792026812695596  0.5663036119118487  1.0000
  N   N4        1.0  0.7458679532474549  0.7207997794553053  0.9336963960781121  1.0000
  N   N5        1.0  0.2459233948866171  0.566298152748999  0.7791953521266493  1.0000
  N   N6        1.0  0.24592363360254407  0.9337014190474519  0.7208033607328446  1.0000
  N   N7        1.0  0.25407636602826494  0.22080409069096876  0.43370177643548397  1.0000
  N   N8        1.0  0.2540804595234789  0.2791950966120993  0.0662992597866747  1.0000
  N   N9        1.0  0.9057597363861659  0.5900597907290932  0.08509606182587964  1.0000
  N   N10       1.0  0.9057595016425919  0.9099410173632094  0.41490430883063567  1.0000
  N   N11       1.0  0.594240921444424  0.9149054108424082  0.40994247007277096  1.0000
  N   N12       1.0  0.5942397171664948  0.5850961303471323  0.09005878464144251  1.0000
  N   N13       1.0  0.09429153906013  0.4099315244664083  0.9148819831260014  1.0000
  N   N14       1.0  0.09429321248811108  0.09006880986373741  0.5851166616628589  1.0000
  N   N15       1.0  0.40570749135967077  0.0851181634822282  0.5900685893045433  1.0000
  N   N16       1.0  0.4057086955854317  0.4148804563703123  0.9099299836338018  1.0000
  N   N17       1.0  0.963763503845861  0.621884277841474  0.05103086951412914  1.0000
  N   N18       1.0  0.9637618312871864  0.878117081388467  0.4489710898498486  1.0000
  N   N19       1.0  0.5362357178684718  0.9489722699280491  0.3781180442130392  1.0000
  N   N20       1.0  0.5362337884040116  0.5510307007646205  0.12188291920601561  1.0000
  N   N21       1.0  0.036283455681832805  0.378106534668504  0.9489456335840599  1.0000
  N   N22       1.0  0.03628728624859429  0.12189374819521254  0.5510524773467367  1.0000
  N   N23       1.0  0.46371557221710447  0.051054762999811494  0.6218940681421756  1.0000
  N   N24       1.0  0.4637146243461742  0.4489439113283566  0.8781055256535737  1.0000
  N   N25       1.0  0.0828135471101916  0.5380092201445095  0.0514119264301698  1.0000
  N   N26       1.0  0.08281416032918539  0.9619908944664531  0.44858680544275137  1.0000
  N   N27       1.0  0.41718624057457987  0.9485885006418898  0.4619921112254132  1.0000
  N   N28       1.0  0.41718706701691116  0.5514118963027598  0.038007377756983415  1.0000
  N   N29       1.0  0.9172219032782393  0.4619666653182932  0.9485431580715441  1.0000
  N   N30       1.0  0.917222728798876  0.038034347433963916  0.5514546904913971  1.0000
  N   N31       1.0  0.5827779972854968  0.0514563671048265  0.5380331388621328  1.0000
  N   N32       1.0  0.5827786093745857  0.4485428883042958  0.9619646839707556  1.0000
  N   N33       1.0  0.0248831508060618  0.5064290979765502  0.08599683768869681  1.0000
  N   N34       1.0  0.024882323436976602  0.9935724642549392  0.41400452494527684  1.0000
  N   N35       1.0  0.4751173536683595  0.9140052835391188  0.49357336378369604  1.0000
  N   N36       1.0  0.4751181871230016  0.5859956554554773  0.006426252850033641  1.0000
  N   N37       1.0  0.9751522995880818  0.4935512454373169  0.9139614094949593  1.0000
  N   N38       1.0  0.9751538463708015  0.006450321401388201  0.5860385147163925  1.0000
  N   N39       1.0  0.5248483228301168  0.0860400688367164  0.50645050616032  1.0000
  N   N40       1.0  0.5248489279108242  0.4139596468819065  0.9935497857269623  1.0000
  N   N41       1.0  0.2473478594931393  0.7003131897401288  0.9296786789087648  1.0000
  N   N42       1.0  0.2473505515630947  0.7996878762524559  0.5703222256615348  1.0000
  N   N43       1.0  0.25264974283324193  0.07032075563326151  0.299687097349981  1.0000
  N   N44       1.0  0.2526506649176312  0.4296789211236459  0.20031353157302334  1.0000
  N   N45       1.0  0.7527070125541472  0.29967717425505214  0.0703050483288763  1.0000
  N   N46       1.0  0.752710075081353  0.20032488282247843  0.4296943599651826  1.0000
  N   N47       1.0  0.7472907574499741  0.929695416855509  0.7003232362147855  1.0000
  N   N48       1.0  0.7472912739648406  0.5703050674236537  0.7996759625089567  1.0000
  N   N49       1.0  0.5573174532664495  0.20538758775918356  0.0600171868584525  1.0000
  N   N50       1.0  0.5573177977902688  0.2946128311449883  0.43998279503356486  1.0000
  N   N51       1.0  0.9426795942011168  0.9399824379049238  0.7946103006632014  1.0000
  N   N52       1.0  0.9426799578731958  0.5600172162652088  0.7053879201912778  1.0000
  N   N53       1.0  0.44268275051712186  0.7946200902876868  0.9399752142361989  1.0000
  N   N54       1.0  0.44268456395106887  0.7053791612474711  0.5600250377124851  1.0000
  N   N55       1.0  0.0573177323033178  0.0600252311131371  0.20538063943224927  1.0000
  N   N56       1.0  0.057318087951585994  0.43997380085001236  0.2946216988425832  1.0000
  N   N57       1.0  0.2856295885501225  0.13407329109362823  0.8990201569266957  1.0000
  N   N58       1.0  0.285629549303394  0.36592622478894304  0.600979941716716  1.0000
  N   N59       1.0  0.2143651160028242  0.10097918418125572  0.8659272962590095  1.0000
  N   N60       1.0  0.21436949144382567  0.3990192908772344  0.6340735571088061  1.0000
  N   N61       1.0  0.7143648606813358  0.8659437303066612  0.1009679363978435  1.0000
  N   N62       1.0  0.7143641805990482  0.6340544586472276  0.3990333363760143  1.0000
  N   N63       1.0  0.7856358070998012  0.8990343695921083  0.1340582830933812  1.0000
  N   N64       1.0  0.7856371862159007  0.6009653628776944  0.3659437768158682  1.0000
  N   N65       1.0  0.28715526004113906  0.05614769992250499  0.9738895102803937  1.0000
  N   N66       1.0  0.2871552312014884  0.4438508299223329  0.5261104278876516  1.0000
  N   N67       1.0  0.2128437545817405  0.026109827098444807  0.9438528351890624  1.0000
  N   N68       1.0  0.212842376751837  0.47388814701221793  0.5561469620948571  1.0000
  N   N69       1.0  0.7128377505546197  0.9438722894322854  0.026100042165730083  1.0000
  N   N70       1.0  0.7128406566572351  0.5561268945872371  0.4739028520818138  1.0000
  N   N71       1.0  0.7871622037540577  0.9739022276534613  0.056129579607556906  1.0000
  N   N72       1.0  0.7871614236305361  0.5260965127599064  0.44387134582734694  1.0000
