data_image0
_chemical_formula_structural       Li4H16C20S4N4O12
_chemical_formula_sum              "Li4 H16 C20 S4 N4 O12"
_cell_length_a       7.647087193126611
_cell_length_b       8.771539676794536
_cell_length_c       10.361887312251191
_cell_angle_alpha    80.77921827771266
_cell_angle_beta     71.76241291829488
_cell_angle_gamma    82.38561282042545

_space_group_name_H-M_alt    "P 1"
_space_group_IT_number       1

loop_
  _space_group_symop_operation_xyz
  'x, y, z'

loop_
  _atom_site_type_symbol
  _atom_site_label
  _atom_site_symmetry_multiplicity
  _atom_site_fract_x
  _atom_site_fract_y
  _atom_site_fract_z
  _atom_site_occupancy
  Li  Li1       1.0  0.44634554047351577  0.8260940268695123  0.8894262704669629  1.0000
  Li  Li2       1.0  0.5536572774974144  0.17391077714327  0.11057182019153096  1.0000
  Li  Li3       1.0  0.6239966720498415  0.3193164127969367  0.6241570438319002  1.0000
  Li  Li4       1.0  0.37599974465992847  0.6806837370526821  0.37584699937828964  1.0000
  H   H1        1.0  0.6303955933307889  0.9966594511946454  0.4106364915406288  1.0000
  H   H2        1.0  0.36960366301951797  0.0033396169094857  0.589356417576596  1.0000
  H   H3        1.0  0.9076190357167278  0.13288426992224334  0.27187960012870593  1.0000
  H   H4        1.0  0.09238012037402399  0.8671159122244917  0.7281189776428504  1.0000
  H   H5        1.0  0.0010228761580180178  0.6159971216733522  0.5164596790588831  1.0000
  H   H6        1.0  0.9989759434226639  0.38400649337535947  0.4835443199744206  1.0000
  H   H7        1.0  0.22688167896234288  0.48521791402762204  0.7608743424208484  1.0000
  H   H8        1.0  0.7731162270519716  0.5147810887586103  0.23912757446220925  1.0000
  H   H9        1.0  0.9078720272019111  0.6157782336361636  0.7671380910744006  1.0000
  H   H10       1.0  0.0921262212777023  0.384217321119067  0.23286033533045716  1.0000
  H   H11       1.0  0.6328822714375021  0.4821756472114912  0.9082776611128766  1.0000
  H   H12       1.0  0.367114027147025  0.5178256620678139  0.09172625840102461  1.0000
  H   H13       1.0  0.9534205831117789  0.11122556814347459  0.044136070959211814  1.0000
  H   H14       1.0  0.046578239446525095  0.8887780393407211  0.955868893465869  1.0000
  H   H15       1.0  0.22263862599982787  0.9989271119452354  0.2559370023479275  1.0000
  H   H16       1.0  0.7773603027732676  0.001075366367331302  0.7440642242063547  1.0000
  C   C1        1.0  0.7955142025227033  0.7966731543097794  0.4762758531631661  1.0000
  C   C2        1.0  0.2044863336801868  0.20332701750971435  0.5237233707602797  1.0000
  C   C3        1.0  0.7682232421130094  0.9428234474234498  0.4059644450971475  1.0000
  C   C4        1.0  0.2317757839420338  0.057177924411028896  0.5940301474110328  1.0000
  C   C5        1.0  0.9234790939856123  0.0180151529915094  0.3272198555380187  1.0000
  C   C6        1.0  0.0765201832080038  0.9819838621610231  0.672779811321611  1.0000
  C   C7        1.0  0.09875609137924363  0.9439408203198238  0.3189960103432626  1.0000
  C   C8        1.0  0.9012442055955318  0.05606167792355881  0.6810020007958286  1.0000
  C   C9        1.0  0.9755474107406741  0.7307536214196941  0.46368681300337056  1.0000
  C   C10       1.0  0.0244513969295568  0.269250023887075  0.5363133244628457  1.0000
  C   C11       1.0  0.11208592142426707  0.28896571873737287  0.9025532122746114  1.0000
  C   C12       1.0  0.8879130073488211  0.711036759575201  0.09744801427967796  1.0000
  C   C13       1.0  0.1012303126202383  0.43221492169887193  0.8229204953517666  1.0000
  C   C14       1.0  0.8987692008238709  0.5677817745942875  0.17707941890045475  1.0000
  C   C15       1.0  0.9262122442050751  0.5035836995965468  0.8259096606771267  1.0000
  C   C16       1.0  0.0737869118856693  0.4964164825501883  0.17408891709443708  1.0000
  C   C17       1.0  0.7707145010705576  0.42970701274348494  0.9067424131042044  1.0000
  C   C18       1.0  0.22928501832878107  0.5702896684206493  0.09325943193156404  1.0000
  C   C19       1.0  0.9494779978141352  0.22321258689795082  0.9812748687149763  1.0000
  C   C20       1.0  0.0505227865497062  0.7767852358041123  0.01872846416815582  1.0000
  S   S1        1.0  0.6056255868167923  0.6942309221138316  0.5834862307485266  1.0000
  S   S2        1.0  0.39438116072044943  0.30576229720564635  0.41651052760961693  1.0000
  S   S3        1.0  0.3299500043187109  0.18965217249932212  0.9061870058849094  1.0000
  S   S4        1.0  0.6700465186058578  0.8103468481786676  0.09381329945448867  1.0000
  N   N1        1.0  0.12485137892071661  0.8020498322385307  0.3858768117688172  1.0000
  N   N2        1.0  0.8751474347047434  0.19795379793920628  0.6141252564809534  1.0000
  N   N3        1.0  0.7807482229242382  0.29193169489738574  0.9841162407097102  1.0000
  N   N4        1.0  0.2192493316919482  0.708070778613397  0.015886270476229945  1.0000
  O   O1        1.0  0.6783014516988646  0.5311020039820703  0.5897366382830355  1.0000
  O   O2        1.0  0.3217075567631298  0.46889590048230906  0.4102522290677513  1.0000
  O   O3        1.0  0.5545007037854575  0.7535960905926371  0.7159332193717843  1.0000
  O   O4        1.0  0.44550802640063136  0.24639129099310966  0.28406866518681534  1.0000
  O   O5        1.0  0.45770094586081456  0.7311623204650957  0.5184868692072158  1.0000
  O   O6        1.0  0.5422960614752057  0.26883203223608376  0.4815177924844533  1.0000
  O   O7        1.0  0.4686137792570904  0.2821186939838896  0.8052663252555731  1.0000
  O   O8        1.0  0.5313844526749633  0.7178907106487457  0.19473802068802834  1.0000
  O   O9        1.0  0.3277136084460254  0.034399129083489306  0.8712755393755457  1.0000
  O   O10       1.0  0.672293447143268  0.9656045374694887  0.12871785569251404  1.0000
  O   O11       1.0  0.3377933078630519  0.18665403360342478  0.04657500572527344  1.0000
  O   O12       1.0  0.6622049644374713  0.813341460635691  0.9534311438137592  1.0000
