data_image0
_chemical_formula_structural       Li4H12C4N24O12
_chemical_formula_sum              "Li4 H12 C4 N24 O12"
_cell_length_a       6.694254473723111
_cell_length_b       8.401322196990883
_cell_length_c       10.149681837005806
_cell_angle_alpha    90.00007015048162
_cell_angle_beta     90.00007115101565
_cell_angle_gamma    109.22081088917929

_space_group_name_H-M_alt    "P 1"
_space_group_IT_number       1

loop_
  _space_group_symop_operation_xyz
  'x, y, z'

loop_
  _atom_site_type_symbol
  _atom_site_label
  _atom_site_symmetry_multiplicity
  _atom_site_fract_x
  _atom_site_fract_y
  _atom_site_fract_z
  _atom_site_occupancy
  Li  Li1       1.0  0.7391808574368925  0.0887164817224217  0.2886813162320933  1.0000
  Li  Li2       1.0  0.7608202106177303  0.9112837649930087  0.7886816493382368  1.0000
  Li  Li3       1.0  0.26082092302373644  0.9112832110660847  0.7113184293762627  1.0000
  Li  Li4       1.0  0.23918055140678265  0.0887171594464391  0.21131908152288756  1.0000
  H   H1        1.0  0.7347041024840308  0.5171254123685074  0.6396708577061927  1.0000
  H   H2        1.0  0.7652940231166242  0.4828757060776851  0.13967094339956526  1.0000
  H   H3        1.0  0.265295154295778  0.48287548348758236  0.3603288879017511  1.0000
  H   H4        1.0  0.234704746857382  0.5171239295462868  0.8603288022075404  1.0000
  H   H5        1.0  0.3766710476731704  0.8630101282181857  0.23145414929265928  1.0000
  H   H6        1.0  0.12332800448930212  0.13698773801986158  0.7314535894364125  1.0000
  H   H7        1.0  0.6233292275427615  0.13698953598695604  0.7685446110625163  1.0000
  H   H8        1.0  0.8766717839221982  0.8630106659542562  0.2685461561704869  1.0000
  H   H9        1.0  0.3674730648279124  0.9309006581536038  0.3759326002393592  1.0000
  H   H10       1.0  0.13252688017790604  0.0690987895768487  0.8759329646671076  1.0000
  H   H11       1.0  0.6325281839996394  0.069101526515766  0.6240661601174793  1.0000
  H   H12       1.0  0.8674744134769058  0.9308996429795398  0.1240667809404172  1.0000
  C   C1        1.0  0.7661234959770483  0.5711352407427341  0.427481980440632  1.0000
  C   C2        1.0  0.7338754384784425  0.42886651767615547  0.927483775566699  1.0000
  C   C3        1.0  0.2338772660460792  0.42886568369561934  0.5725177651679373  1.0000
  C   C4        1.0  0.26612381830275933  0.5711343781810214  0.07251695529379279  1.0000
  N   N1        1.0  0.7441005103956188  0.48178066240706124  0.5417288573572137  1.0000
  N   N2        1.0  0.7558983583918321  0.5182190066086179  0.041729956288122594  1.0000
  N   N3        1.0  0.25589976482169885  0.5182190017991745  0.45827088825052426  1.0000
  N   N4        1.0  0.2440999247777498  0.48177936878433053  0.9582707745707066  1.0000
  N   N5        1.0  0.7415690483428391  0.324589652551829  0.5129042282038367  1.0000
  N   N6        1.0  0.7584332367283437  0.6754112697657392  0.012904502475706195  1.0000
  N   N7        1.0  0.25843321892359933  0.675411300468788  0.4870955174053576  1.0000
  N   N8        1.0  0.24156752529478356  0.3245896546726073  0.9870952431328631  1.0000
  N   N9        1.0  0.7607421588049164  0.3184421875665037  0.3854578734394919  1.0000
  N   N10       1.0  0.73925767598287  0.6815582457567119  0.8854579572890838  1.0000
  N   N11       1.0  0.2392601084615223  0.6815587654541133  0.6145418721697025  1.0000
  N   N12       1.0  0.2607410939911361  0.3184413898672602  0.11454178831802145  1.0000
  N   N13       1.0  0.7759860992321068  0.4670262537320156  0.3284650350655979  1.0000
  N   N14       1.0  0.7240100780927036  0.5329727354662807  0.8284649566384413  1.0000
  N   N15       1.0  0.22401417598520376  0.5329734104742201  0.6715347105421329  1.0000
  N   N16       1.0  0.27598718663799093  0.4670268715754204  0.17153478896803875  1.0000
  N   N17       1.0  0.7762340499892917  0.7326484080042023  0.40169406553337683  1.0000
  N   N18       1.0  0.7237633515738578  0.26734951237559557  0.9016947042754637  1.0000
  N   N19       1.0  0.22376622522802594  0.2673512562020336  0.5983056800743538  1.0000
  N   N20       1.0  0.2762334263510269  0.732648834433995  0.0983050413301783  1.0000
  N   N21       1.0  0.7631245192057817  0.8285142786601652  0.5026233806448133  1.0000
  N   N22       1.0  0.7368762317298659  0.1714865922153663  0.0026241143863500994  1.0000
  N   N23       1.0  0.23687624281734543  0.17148664577818104  0.49737636496374893  1.0000
  N   N24       1.0  0.26312404348882973  0.8285130719919634  0.9973766164739428  1.0000
  O   O1        1.0  0.7443835712595401  0.7741220990495066  0.6196348952087617  1.0000
  O   O2        1.0  0.7556170217146984  0.22587777177835017  0.11963569908206746  1.0000
  O   O3        1.0  0.25561670395777725  0.22587756515672908  0.38036485039897616  1.0000
  O   O4        1.0  0.24438475874730872  0.7741219210112502  0.8803650317788507  1.0000
  O   O5        1.0  0.7699543172702337  0.9776003800532251  0.4769990100586979  1.0000
  O   O6        1.0  0.7300472800233211  0.022400285400465205  0.9769984216353791  1.0000
  O   O7        1.0  0.2300479499962051  0.022400572967392  0.5230007355504964  1.0000
  O   O8        1.0  0.26995348199980645  0.9776006390378882  0.023001323973190296  1.0000
  O   O9        1.0  0.4282125367746374  0.9658268468697457  0.2882294008421623  1.0000
  O   O10       1.0  0.07179017223887028  0.0341724630090496  0.7882286952804946  1.0000
  O   O11       1.0  0.5717897304918012  0.034174106150871394  0.7117703447670322  1.0000
  O   O12       1.0  0.9282116082217584  0.9658272297794496  0.2117710503278686  1.0000
