data_image0
_chemical_formula_structural       Dy4H40C44N4O28
_chemical_formula_sum              "Dy4 H40 C44 N4 O28"
_cell_length_a       8.07108243138448
_cell_length_b       8.071105550065399
_cell_length_c       17.828515735752017
_cell_angle_alpha    91.29932373791927
_cell_angle_beta     91.2993939073554
_cell_angle_gamma    89.68691111834802

_space_group_name_H-M_alt    "P 1"
_space_group_IT_number       1

loop_
  _space_group_symop_operation_xyz
  'x, y, z'

loop_
  _atom_site_type_symbol
  _atom_site_label
  _atom_site_symmetry_multiplicity
  _atom_site_fract_x
  _atom_site_fract_y
  _atom_site_fract_z
  _atom_site_occupancy
  Dy  Dy1       1.0  0.5424974959309737  0.7576298082315348  0.5128810506071559  1.0000
  Dy  Dy2       1.0  0.242368015583871  0.4575003524500332  0.9871210010445283  1.0000
  Dy  Dy3       1.0  0.45750448151482453  0.24236993010707414  0.48711858737122066  1.0000
  Dy  Dy4       1.0  0.7576290057307488  0.5425005987378883  0.0128797325984777  1.0000
  H   H1        1.0  0.41879127656463316  0.42260378285568123  0.6880522101225424  1.0000
  H   H2        1.0  0.5773964201560489  0.5812164757325958  0.8119466181107741  1.0000
  H   H3        1.0  0.5812119322689638  0.577398471731627  0.3119491368622036  1.0000
  H   H4        1.0  0.4225993085458128  0.41878441096946534  0.1880507404668492  1.0000
  H   H5        1.0  0.18396073173511948  0.4321318462278684  0.7793666199946897  1.0000
  H   H6        1.0  0.567871364733321  0.8160520887740366  0.7206344434617051  1.0000
  H   H7        1.0  0.8160436561679633  0.5678753852768565  0.22063533099032637  1.0000
  H   H8        1.0  0.4321230908512278  0.18395252240976137  0.2793640541236684  1.0000
  H   H9        1.0  0.9021620861869052  0.5367723249726879  0.7329099862690498  1.0000
  H   H10       1.0  0.46322172872829986  0.0978430528570229  0.7670967318546502  1.0000
  H   H11       1.0  0.0978436438436106  0.4632262250894145  0.2670907915086573  1.0000
  H   H12       1.0  0.5367704054652691  0.9021541542193108  0.23290506325342622  1.0000
  H   H13       1.0  0.12760052050044376  0.6234344637648306  0.5196198907354415  1.0000
  H   H14       1.0  0.37656840874056025  0.8723940907558048  0.9803843426413508  1.0000
  H   H15       1.0  0.8724014491601793  0.3765677797718183  0.4803814475015217  1.0000
  H   H16       1.0  0.6234386305945209  0.12760202749997523  0.0196186709960884  1.0000
  H   H17       1.0  0.8721456840050196  0.11165102237226421  0.3116117991820815  1.0000
  H   H18       1.0  0.8883416208451822  0.12785264278699063  0.1883888182810338  1.0000
  H   H19       1.0  0.12785255810859297  0.8883486650026243  0.6883866904470892  1.0000
  H   H20       1.0  0.11165663964241189  0.8721483194515828  0.811611924109755  1.0000
  H   H21       1.0  0.8401912401548443  0.8965007869256142  0.2900773052610148  1.0000
  H   H22       1.0  0.10349232724745862  0.15980680343722756  0.2099230962523535  1.0000
  H   H23       1.0  0.15980448910774211  0.10350135682839583  0.7099211839723694  1.0000
  H   H24       1.0  0.8965071980115482  0.8401916824657009  0.7900770767335104  1.0000
  H   H25       1.0  0.9987698981968336  0.0381986612748761  0.4358940446097961  1.0000
  H   H26       1.0  0.961793689870646  0.001231577505286901  0.0641049632756179  1.0000
  H   H27       1.0  0.0012320864734150015  0.9617973148137294  0.5641027624542545  1.0000
  H   H28       1.0  0.03819960501840569  0.9987693316247789  0.9358951830711036  1.0000
  H   H29       1.0  0.9545426773082754  0.8270840514919798  0.41811678783887635  1.0000
  H   H30       1.0  0.1729086123616881  0.0454613775008212  0.08188370146326211  1.0000
  H   H31       1.0  0.04545929845534151  0.1729119156907615  0.5818794581722386  1.0000
  H   H32       1.0  0.8270859127937199  0.9545395337740387  0.9181158925783137  1.0000
  H   H33       1.0  0.15123368216865876  0.8214242253939119  0.3115129181260059  1.0000
  H   H34       1.0  0.1785740546601602  0.8487713536811159  0.1884868442398542  1.0000
  H   H35       1.0  0.8487707552491061  0.17857426018233727  0.6884844845863185  1.0000
  H   H36       1.0  0.8214253843361803  0.15123332842292572  0.8115133714954581  1.0000
  H   H37       1.0  0.19691910481223826  0.0362542423470487  0.3295838396197226  1.0000
  H   H38       1.0  0.9637424876455613  0.8030815602428305  0.17041610232026025  1.0000
  H   H39       1.0  0.8030841017784526  0.9637429840324431  0.6704129847419935  1.0000
  H   H40       1.0  0.0362557906552894  0.19691941980747885  0.8295857621763929  1.0000
  C   C1        1.0  0.2952385711160161  0.4676716993094345  0.6739442829959259  1.0000
  C   C2        1.0  0.5323311275887479  0.7047653593363209  0.8260561747894499  1.0000
  C   C3        1.0  0.7047657822820028  0.5323380106757369  0.3260576850888697  1.0000
  C   C4        1.0  0.4676659282309358  0.2952331133711469  0.1739445417537766  1.0000
  C   C5        1.0  0.16295725516390291  0.473643577535249  0.7222241800752869  1.0000
  C   C6        1.0  0.5263505951128308  0.8370481175486758  0.777777312329917  1.0000
  C   C7        1.0  0.8370459442023447  0.5263574110942387  0.2777754752007695  1.0000
  C   C8        1.0  0.4736488872952123  0.16295409498078336  0.2222234473585445  1.0000
  C   C9        1.0  0.009298780503940002  0.5327266672411922  0.6967957553031212  1.0000
  C   C10       1.0  0.46726281851530865  0.9907023710516968  0.8032067400427962  1.0000
  C   C11       1.0  0.9907045229382236  0.46726814299891845  0.303204979329344  1.0000
  C   C12       1.0  0.5327354937298807  0.009294873466217301  0.1967939766983235  1.0000
  C   C13       1.0  0.992857891778776  0.5882680675083876  0.6232836522235203  1.0000
  C   C14       1.0  0.41172631556737826  0.007140344981131402  0.8767202256969284  1.0000
  C   C15       1.0  0.007145377158323599  0.41172922121216265  0.3767170995087312  1.0000
  C   C16       1.0  0.5882744666778591  0.9928581697841921  0.1232810781425826  1.0000
  C   C17       1.0  0.12934540091271876  0.5812261151676665  0.5769777722932831  1.0000
  C   C18       1.0  0.41877336746539123  0.8706525279633086  0.9230236676267793  1.0000
  C   C19       1.0  0.8706541165611128  0.418774875933309  0.4230241009511531  1.0000
  C   C20       1.0  0.5812273708074328  0.12934719932464134  0.0769759616038144  1.0000
  C   C21       1.0  0.833090688250209  0.6557094369440433  0.5911600190826789  1.0000
  C   C22       1.0  0.34428481668605576  0.16690861223099776  0.908842683082277  1.0000
  C   C23       1.0  0.1669101112475673  0.3442878385810532  0.4088412762069424  1.0000
  C   C24       1.0  0.6557171702270992  0.8330923920654314  0.09115864660478931  1.0000
  C   C25       1.0  0.6911116767129073  0.9947059231108996  0.3792039602008188  1.0000
  C   C26       1.0  0.005286690481710799  0.30888894958569324  0.1207969510329505  1.0000
  C   C27       1.0  0.30888780457367915  0.005293775314648001  0.6207945381761348  1.0000
  C   C28       1.0  0.9947115176875625  0.6911144733215977  0.8792026863517535  1.0000
  C   C29       1.0  0.8496084116430112  0.9903544781457825  0.3356724454497879  1.0000
  C   C30       1.0  0.0096403976056649  0.15039238181041983  0.1643285260981315  1.0000
  C   C31       1.0  0.1503910696435753  0.0096452202797721  0.6643260529271657  1.0000
  C   C32       1.0  0.9903578890410927  0.8496073500937984  0.8356727687957033  1.0000
  C   C33       1.0  0.9885126338416657  0.9426512402800001  0.39108243330134934  1.0000
  C   C34       1.0  0.057340649573880895  0.011487044430047898  0.1089163154746373  1.0000
  C   C35       1.0  0.0114881027489702  0.0573447158520821  0.6089138039619897  1.0000
  C   C36       1.0  0.9426551147545013  0.9885138778954785  0.8910832873147214  1.0000
  C   C37       1.0  0.1574185431669832  0.9204089801506541  0.35469813221775576  1.0000
  C   C38       1.0  0.079587848613393  0.8425853250727473  0.1453015871399899  1.0000
  C   C39       1.0  0.8425846634237075  0.0795882462288446  0.6452986921439674  1.0000
  C   C40       1.0  0.9204104207808327  0.1574156460716978  0.8546997163037346  1.0000
  C   C41       1.0  0.2791672106094295  0.8723579625681952  0.4154861126652776  1.0000
  C   C42       1.0  0.1276411733577305  0.7208341300354136  0.084514772172767  1.0000
  C   C43       1.0  0.720833501504231  0.12764299505410293  0.5845129640622773  1.0000
  C   C44       1.0  0.8723558657701462  0.2791668389642297  0.9154870835761102  1.0000
  N   N1        1.0  0.2757194986505525  0.52019335925295  0.602604101645369  1.0000
  N   N2        1.0  0.4798090742455656  0.7242843058047085  0.8973980161284629  1.0000
  N   N3        1.0  0.724284923196862  0.47981013671937955  0.3973967015841069  1.0000
  N   N4        1.0  0.5201929388267529  0.27571546815735815  0.1026038660616493  1.0000
  O   O1        1.0  0.4044546237933133  0.5103280994170589  0.5567262124068577  1.0000
  O   O2        1.0  0.48967527339298295  0.5955447116058752  0.9432736738240378  1.0000
  O   O3        1.0  0.5955486022928155  0.48967291593002943  0.44327512602799146  1.0000
  O   O4        1.0  0.5103292258104659  0.40445257925947703  0.05672652560306091  1.0000
  O   O5        1.0  0.8312094363534898  0.693272935737923  0.5218203509146733  1.0000
  O   O6        1.0  0.30671692781729115  0.16878900176822503  0.978181182150756  1.0000
  O   O7        1.0  0.16879506284995932  0.30672435512742885  0.4781798485124327  1.0000
  O   O8        1.0  0.6932862459505171  0.8312144742475739  0.0218190512780083  1.0000
  O   O9        1.0  0.7068227989683463  0.6745968598868545  0.631663269244271  1.0000
  O   O10       1.0  0.3254032476485876  0.29317855891187616  0.8683405715217773  1.0000
  O   O11       1.0  0.29317922188914025  0.32540040887717947  0.3683369126872691  1.0000
  O   O12       1.0  0.6745999517176525  0.7068224297176189  0.13165908375427904  1.0000
  O   O13       1.0  0.637072771703714  0.8554248463156073  0.3999418202305662  1.0000
  O   O14       1.0  0.1445684517445613  0.3629274259750232  0.1000602373238308  1.0000
  O   O15       1.0  0.36292674464866076  0.1445736306814567  0.600057791702362  1.0000
  O   O16       1.0  0.8554298254348395  0.6370710399713815  0.8999393658613143  1.0000
  O   O17       1.0  0.6284684395629512  0.13608615826765202  0.3954359032145476  1.0000
  O   O18       1.0  0.8639067862776599  0.37153295996944996  0.10456354468362859  1.0000
  O   O19       1.0  0.3715298108965613  0.8639122809611522  0.6045620168117979  1.0000
  O   O20       1.0  0.1360926872237513  0.6284692436541448  0.8954366539519043  1.0000
  O   O21       1.0  0.30891410990132334  0.7207045196694254  0.4277875053701408  1.0000
  O   O22       1.0  0.2792968008083818  0.6910827518297536  0.0722156553797788  1.0000
  O   O23       1.0  0.6910866111189691  0.2792964468587372  0.5722121324103497  1.0000
  O   O24       1.0  0.7207027339179818  0.308917000030995  0.9277862093147674  1.0000
  O   O25       1.0  0.3468775575117533  0.9855336986125637  0.4573298525182281  1.0000
  O   O26       1.0  0.014466423564215304  0.6531253975732697  0.0426704774946174  1.0000
  O   O27       1.0  0.653116941484491  0.0144684429966517  0.5426691890203088  1.0000
  O   O28       1.0  0.9855305894045044  0.3468768017607361  0.9573308257512068  1.0000
