data_image0
_chemical_formula_structural       Zn8H52C72N16O26
_chemical_formula_sum              "Zn8 H52 C72 N16 O26"
_cell_length_a       15.175580852194788
_cell_length_b       20.156462016027515
_cell_length_c       22.547040075718968
_cell_angle_alpha    88.89152427166725
_cell_angle_beta     88.57955156363319
_cell_angle_gamma    91.35100048570396

_space_group_name_H-M_alt    "P 1"
_space_group_IT_number       1

loop_
  _space_group_symop_operation_xyz
  'x, y, z'

loop_
  _atom_site_type_symbol
  _atom_site_label
  _atom_site_symmetry_multiplicity
  _atom_site_fract_x
  _atom_site_fract_y
  _atom_site_fract_z
  _atom_site_occupancy
  Zn  Zn1       1.0  0.42560731496519816  0.4197924521050709  0.9908394824254998  1.0000
  Zn  Zn2       1.0  0.4306531922573029  0.9201849393714315  0.4902854483703082  1.0000
  Zn  Zn3       1.0  0.41611355893656576  0.5799891916905866  0.00378589146613  1.0000
  Zn  Zn4       1.0  0.4193828994797216  0.0806458342332874  0.5042371530225651  1.0000
  Zn  Zn5       1.0  0.5745817354833349  0.5058770779261863  0.9335607199489147  1.0000
  Zn  Zn6       1.0  0.5625567982413885  0.5040555036090738  0.0726410368946162  1.0000
  Zn  Zn7       1.0  0.5794004650121849  0.0070434082751447006  0.4344799264419521  1.0000
  Zn  Zn8       1.0  0.5669515328299752  0.0059428697954473  0.5727022456181814  1.0000
  H   H1        1.0  0.0001821889326407998  0.38136449124341  0.9403901100917764  1.0000
  H   H2        1.0  0.003758207063022207  0.8814938098654328  0.4389691660107573  1.0000
  H   H3        1.0  0.8286717815779241  0.6121734476986164  0.0516610807116038  1.0000
  H   H4        1.0  0.8343808110715117  0.10686386193121679  0.560139642867199  1.0000
  H   H5        1.0  0.5295794687892438  0.6495283050162188  0.6613007104975496  1.0000
  H   H6        1.0  0.6940148451144881  0.7581719967581081  0.2479415883711269  1.0000
  H   H7        1.0  0.5247918290903897  0.1470202110075434  0.16151630797930494  1.0000
  H   H8        1.0  0.6910189586047863  0.2480737940016411  0.7575927748087921  1.0000
  H   H9        1.0  0.4835008089072161  0.38027023834844453  0.21867873383961717  1.0000
  H   H10       1.0  0.3974121962206921  0.3183928529967375  0.828276305349803  1.0000
  H   H11       1.0  0.4807442440878801  0.8813812724301255  0.7197693501055866  1.0000
  H   H12       1.0  0.40145361182773337  0.822856524188758  0.3257681256169819  1.0000
  H   H13       1.0  0.14216961307633372  0.5784437341250523  0.030358300188147797  1.0000
  H   H14       1.0  0.1474894449886079  0.0779868739628142  0.5283277246782419  1.0000
  H   H15       1.0  0.16170680973197446  0.3894772159149228  0.9485108266077661  1.0000
  H   H16       1.0  0.16522181559842153  0.8884305417480792  0.4473103582801414  1.0000
  H   H17       1.0  0.5788559430601623  0.5975467308375998  0.7258344208942092  1.0000
  H   H18       1.0  0.5524972266226128  0.5676310076229782  0.7964596055687069  1.0000
  H   H19       1.0  0.6869000441144523  0.6702852987524608  0.2112437033472219  1.0000
  H   H20       1.0  0.6410140534938122  0.6305360049504005  0.1525011027048535  1.0000
  H   H21       1.0  0.5582658115340847  0.06900721736530362  0.29774710506107743  1.0000
  H   H22       1.0  0.580580137445942  0.09803254908776181  0.22634760599640202  1.0000
  H   H23       1.0  0.6936739611643999  0.1959665291292865  0.6896782841257902  1.0000
  H   H24       1.0  0.6424099621810482  0.1378137604631107  0.6449505565432077  1.0000
  H   H25       1.0  0.8690691413575494  0.3693480744615343  0.9637332147381344  1.0000
  H   H26       1.0  0.7749944662543982  0.4107328786886342  0.9583758468179369  1.0000
  H   H27       1.0  0.8720461097544288  0.8716487260820289  0.4568701342436938  1.0000
  H   H28       1.0  0.7790208387113183  0.9153427290222282  0.4519685582514229  1.0000
  H   H29       1.0  0.4494319006775171  0.7499543414310992  0.9012432787200596  1.0000
  H   H30       1.0  0.34305570423207854  0.6855428820451906  0.15629405328703433  1.0000
  H   H31       1.0  0.44608007539684275  0.2502956275599928  0.4004840885036032  1.0000
  H   H32       1.0  0.33901234410902953  0.17448388948328394  0.6641614111850345  1.0000
  H   H33       1.0  0.4218056103997084  0.3618890728093191  0.3709491776305498  1.0000
  H   H34       1.0  0.41181114044440653  0.3845021062387915  0.2997381086885653  1.0000
  H   H35       1.0  0.25298816441171823  0.22564005421334343  0.7393778129352881  1.0000
  H   H36       1.0  0.29628414994758145  0.25836471163052005  0.7999321039382039  1.0000
  H   H37       1.0  0.44827502261856006  0.8646576595456851  0.8756903369407426  1.0000
  H   H38       1.0  0.4830990514396944  0.895602379116376  0.809700036895471  1.0000
  H   H39       1.0  0.29845393398606024  0.7726904226695198  0.290683818747496  1.0000
  H   H40       1.0  0.2561748072996792  0.7384957236784047  0.23027996841435794  1.0000
  H   H41       1.0  0.5123188483190048  0.1811653185331039  0.0617129569127357  1.0000
  H   H42       1.0  0.4946922157584766  0.26278842710751604  0.04146453421532931  1.0000
  H   H43       1.0  0.7541963225174159  0.3279414868645815  0.8184115322114849  1.0000
  H   H44       1.0  0.6912907603621008  0.3780992260549354  0.8624440456497879  1.0000
  H   H45       1.0  0.522767893315681  0.68487470139236  0.562052182622935  1.0000
  H   H46       1.0  0.5035786195413293  0.7662343509768805  0.5421349603583749  1.0000
  H   H47       1.0  0.757541934095542  0.8370928046367755  0.3101270817796333  1.0000
  H   H48       1.0  0.6947765685533013  0.8852851414602086  0.3562229022125933  1.0000
  H   H49       1.0  0.9584400899136085  0.6774839212616897  0.06399033057937231  1.0000
  H   H50       1.0  0.05872095457474559  0.6554207229847577  0.040065045696273706  1.0000
  H   H51       1.0  0.9653530729449428  0.1625381571728184  0.589045780888739  1.0000
  H   H52       1.0  0.06577874615545198  0.1295348170090307  0.5820403761786466  1.0000
  C   C1        1.0  0.4845601137989206  0.6281832467226495  0.1149827058721016  1.0000
  C   C2        1.0  0.4914849285364156  0.6258162203588784  0.887475003928536  1.0000
  C   C3        1.0  0.4829564444893463  0.1273484704881724  0.6156725091169974  1.0000
  C   C4        1.0  0.4965122051061001  0.12757951028131495  0.38866688527231474  1.0000
  C   C5        1.0  0.4878182933976447  0.27904989790128815  0.2524282687601058  1.0000
  C   C6        1.0  0.4647055713498531  0.25725700930420464  0.7640354488584365  1.0000
  C   C7        1.0  0.4913181383169772  0.7803603425375911  0.753412693818241  1.0000
  C   C8        1.0  0.46788272659431845  0.7637895820677019  0.25940829699843704  1.0000
  C   C9        1.0  0.5097735283206432  0.7139362671964379  0.7360223943326005  1.0000
  C   C10       1.0  0.5531757633430844  0.7428011383470334  0.239494657524034  1.0000
  C   C11       1.0  0.5067887043902601  0.21255307849898497  0.2356672339761445  1.0000
  C   C12       1.0  0.5502288288621668  0.23709106807350366  0.7438503056313907  1.0000
  C   C13       1.0  0.515199557604049  0.6616816426559851  0.7803454705391104  1.0000
  C   C14       1.0  0.5605236393948091  0.694643610459238  0.1932662595535746  1.0000
  C   C15       1.0  0.515955836056193  0.1615972633770397  0.2807970214407263  1.0000
  C   C16       1.0  0.5581138238078792  0.1908131911944722  0.6959410471896562  1.0000
  C   C17       1.0  0.46747835223995793  0.7418006080511362  0.8549217760532885  1.0000
  C   C18       1.0  0.40020467634398926  0.7015320862778438  0.18116607739531082  1.0000
  C   C19       1.0  0.4654372912862997  0.24193234947028935  0.3544243626163421  1.0000
  C   C20       1.0  0.3965011468140958  0.19235897751252654  0.6877315421283399  1.0000
  C   C21       1.0  0.47064110010921917  0.793919818277061  0.8145742901115584  1.0000
  C   C22       1.0  0.3901992506320013  0.741989843268037  0.229265848186273  1.0000
  C   C23       1.0  0.46570767938386126  0.29317551560198757  0.3132300279430495  1.0000
  C   C24       1.0  0.3867156745787809  0.23273628500377447  0.7358129223444366  1.0000
  C   C25       1.0  0.1604812968737477  0.4853246204276401  0.9900513275994598  1.0000
  C   C26       1.0  0.16490861631653786  0.9841407809419633  0.4891604005033585  1.0000
  C   C27       1.0  0.831173735396142  0.5182791807963696  0.007580425522384398  1.0000
  C   C28       1.0  0.8358260152424248  0.0177515204909113  0.5089677403453692  1.0000
  C   C29       1.0  0.9618722917011693  0.5833931778248242  0.033313452978220005  1.0000
  C   C30       1.0  0.9672994615816108  0.079374846071353  0.5390488285690935  1.0000
  C   C31       1.0  0.8711582272049654  0.574544336149117  0.03285110230394389  1.0000
  C   C32       1.0  0.8766095714577915  0.071091783989786  0.538325905129419  1.0000
  C   C33       1.0  0.8807152514304378  0.4681696910636787  0.9823045340227594  1.0000
  C   C34       1.0  0.8849835825917508  0.9688732724582043  0.4811799571926231  1.0000
  C   C35       1.0  0.5222731710674181  0.37698770052168845  0.8852274344750414  1.0000
  C   C36       1.0  0.4979586854757301  0.3698724918198195  0.10408749238956008  1.0000
  C   C37       1.0  0.5269682669847384  0.8791139455850682  0.3835793904329776  1.0000
  C   C38       1.0  0.5019206215802257  0.8724437219983868  0.6053097402236745  1.0000
  C   C39       1.0  0.9746315078660928  0.4742343968575327  0.9844731295796761  1.0000
  C   C40       1.0  0.9789789121667171  0.9735662625876528  0.4846143149830411  1.0000
  C   C41       1.0  0.01560107916346  0.5318320155798659  0.009972502119922  1.0000
  C   C42       1.0  0.0204668824526948  0.029726237667695405  0.5119845963129634  1.0000
  C   C43       1.0  0.10859881008576622  0.5358586865686235  0.011197739765371806  1.0000
  C   C44       1.0  0.1134762954587529  0.03436863617224619  0.5113379480989622  1.0000
  C   C45       1.0  0.1201325749231543  0.4286047557656829  0.9652774674096349  1.0000
  C   C46       1.0  0.12405399283292697  0.9276105603266201  0.4644561226404633  1.0000
  C   C47       1.0  0.029767917086914505  0.4242049643868881  0.9617759623121885  1.0000
  C   C48       1.0  0.03363448635927569  0.9238077389383362  0.46094252720615003  1.0000
  C   C49       1.0  0.2582100016002613  0.4904860734195609  0.993501165147663  1.0000
  C   C50       1.0  0.2627540078793658  0.9896878920213156  0.49162726643720606  1.0000
  C   C51       1.0  0.7328566244044127  0.5137455484780845  0.007304843668819698  1.0000
  C   C52       1.0  0.7377543844581992  0.014063706007874498  0.5087937792294639  1.0000
  C   C53       1.0  0.4909703336338113  0.676159154366225  0.8393496969776777  1.0000
  C   C54       1.0  0.4834553197782583  0.6761510823940783  0.1635696922915173  1.0000
  C   C55       1.0  0.49311258687291115  0.1769473470459388  0.3398644989656958  1.0000
  C   C56       1.0  0.4804597964134202  0.17085952660384862  0.6672759852702512  1.0000
  C   C57       1.0  0.5001095465227082  0.31394642296602643  0.1475741911902588  1.0000
  C   C58       1.0  0.5352568131273473  0.328392530586747  0.8374749691948793  1.0000
  C   C59       1.0  0.5045425391043779  0.8164357623875844  0.6487772970549842  1.0000
  C   C60       1.0  0.5393788441882136  0.8324691997042567  0.3342316422144904  1.0000
  C   C61       1.0  0.5160880235022559  0.19822363871855225  0.1749860589682513  1.0000
  C   C62       1.0  0.6252900282692622  0.263532905033344  0.7713044535671615  1.0000
  C   C63       1.0  0.5209897771937477  0.7005419243388857  0.6753023166591064  1.0000
  C   C64       1.0  0.6288142740606304  0.7703078588089484  0.2654891884831798  1.0000
  C   C65       1.0  0.5098914715586175  0.24644139307969945  0.1300576878581836  1.0000
  C   C66       1.0  0.6210719611701521  0.3100522246055207  0.8163224900899664  1.0000
  C   C67       1.0  0.5164915148439277  0.7493337802077421  0.6307901097965926  1.0000
  C   C68       1.0  0.6250016923078975  0.8160844239904675  0.311098525864729  1.0000
  C   C69       1.0  0.4900408961602097  0.3282808371767417  0.2074216649266418  1.0000
  C   C70       1.0  0.4607290297432485  0.301493113699138  0.811412122715474  1.0000
  C   C71       1.0  0.4924253936884569  0.8299341370956982  0.7086499623245786  1.0000
  C   C72       1.0  0.46446516391192455  0.806571882655902  0.3078780313788485  1.0000
  N   N1        1.0  0.539373772444705  0.5996803387271542  0.7625428518741373  1.0000
  N   N2        1.0  0.6428883539383747  0.6715769972056479  0.17820685279424003  1.0000
  N   N3        1.0  0.542228929418684  0.09985475305108343  0.263616356922789  1.0000
  N   N4        1.0  0.639807994768347  0.16794744340243994  0.680639637068829  1.0000
  N   N5        1.0  0.8417583938194892  0.41376116202984997  0.9544704293405318  1.0000
  N   N6        1.0  0.8459247741348861  0.917005549640081  0.4502991879332825  1.0000
  N   N7        1.0  0.4478337188099459  0.35849168843991924  0.3292151748575947  1.0000
  N   N8        1.0  0.3034516406001443  0.2534617771853434  0.7553228482493851  1.0000
  N   N9        1.0  0.44831013201744707  0.8582747275991311  0.8311081612868563  1.0000
  N   N10       1.0  0.3073384526186728  0.7652908858978905  0.2465451807293633  1.0000
  N   N11       1.0  0.5185977219725258  0.22984976064191193  0.0713202490250353  1.0000
  N   N12       1.0  0.696961127873287  0.33415604848314473  0.8414387191009354  1.0000
  N   N13       1.0  0.5279588379342998  0.7335313258492279  0.572021121464239  1.0000
  N   N14       1.0  0.7012299947816841  0.8418319958060605  0.3345538806556192  1.0000
  N   N15       1.0  0.0003225287793072014  0.639369713390181  0.058763834788486194  1.0000
  N   N16       1.0  0.006428993531116597  0.13573752208351664  0.5632204595546002  1.0000
  O   O1        1.0  0.4926355765349371  0.5024080991374973  0.001231774192973501  1.0000
  O   O2        1.0  0.49642344045537357  0.0031689488442552  0.5014795194290471  1.0000
  O   O3        1.0  0.5519721151186019  0.590448135984346  0.10993289895671411  1.0000
  O   O4        1.0  0.52990945018027  0.5701603629560027  0.8770430184599791  1.0000
  O   O5        1.0  0.5538983961429622  0.0944100476452405  0.6059094722722875  1.0000
  O   O6        1.0  0.5378829061567743  0.07310696632131203  0.3786243712626529  1.0000
  O   O7        1.0  0.4491528493117444  0.3750065805082343  0.914609935971555  1.0000
  O   O8        1.0  0.4698347829077533  0.3575097954330532  0.0518964397549198  1.0000
  O   O9        1.0  0.45519315920955716  0.8748515021968188  0.41444618880358763  1.0000
  O   O10       1.0  0.4739758524676461  0.8597644952919127  0.5531892224428177  1.0000
  O   O11       1.0  0.29269362978867974  0.5484103094642165  0.9985837844071028  1.0000
  O   O12       1.0  0.296898798568165  0.0477481679252918  0.49608368243981  1.0000
  O   O13       1.0  0.6983706185176004  0.5144950496364445  0.9561038690709722  1.0000
  O   O14       1.0  0.691712353148212  0.508903719320877  0.0571565681498427  1.0000
  O   O15       1.0  0.7031238033153642  0.010540711246726198  0.45770048150711773  1.0000
  O   O16       1.0  0.6961311972128215  0.014003189723794704  0.5585934951748541  1.0000
  O   O17       1.0  0.4549061871321598  0.6394719197619524  0.9374874775078793  1.0000
  O   O18       1.0  0.41884529887410327  0.6254668333198978  0.08042923349627532  1.0000
  O   O19       1.0  0.45945220334518677  0.1408256983391993  0.4386171983026728  1.0000
  O   O20       1.0  0.4158367926178882  0.12376246031227112  0.5822500161415007  1.0000
  O   O21       1.0  0.5234747440484498  0.42701995657395025  0.1216036994997225  1.0000
  O   O22       1.0  0.5855019956954024  0.4191111578951947  0.8941213806605505  1.0000
  O   O23       1.0  0.5275222078457914  0.9296793277052516  0.6226952531168878  1.0000
  O   O24       1.0  0.5893026261242227  0.9219625897781468  0.39230895438993935  1.0000
  O   O25       1.0  0.2993982416611871  0.43574876797393375  0.9909465144166276  1.0000
  O   O26       1.0  0.30416001663764547  0.9350413467671075  0.4892736765529762  1.0000
