data_image0
_chemical_formula_structural       Zn2H18C28N4O8
_chemical_formula_sum              "Zn2 H18 C28 N4 O8"
_cell_length_a       6.989349860135464
_cell_length_b       8.080977452741156
_cell_length_c       11.711935997397216
_cell_angle_alpha    101.92445159579582
_cell_angle_beta     98.50185277550366
_cell_angle_gamma    96.34675228537073

_space_group_name_H-M_alt    "P 1"
_space_group_IT_number       1

loop_
  _space_group_symop_operation_xyz
  'x, y, z'

loop_
  _atom_site_type_symbol
  _atom_site_label
  _atom_site_symmetry_multiplicity
  _atom_site_fract_x
  _atom_site_fract_y
  _atom_site_fract_z
  _atom_site_occupancy
  Zn  Zn1       1.0  0.8451674451420529  0.9939257376567382  0.3559511419299285  1.0000
  Zn  Zn2       1.0  0.15482321972375956  0.006074980688360699  0.6440538646718751  1.0000
  H   H1        1.0  0.16327298414398675  0.49800672022070097  0.39473839738487027  1.0000
  H   H2        1.0  0.836723970814468  0.5019876675803445  0.6052568813883213  1.0000
  H   H3        1.0  0.28808252258098577  0.8590851553855714  0.9567139299707393  1.0000
  H   H4        1.0  0.7119184732034964  0.1409156458516065  0.04327924568838168  1.0000
  H   H5        1.0  0.21612269109358098  0.6643590569413435  0.18564854183225077  1.0000
  H   H6        1.0  0.7838914514329359  0.3356518390080794  0.8143575801062399  1.0000
  H   H7        1.0  0.5825792248396056  0.24556564678615433  0.5756199257368166  1.0000
  H   H8        1.0  0.41741524776864464  0.7544312919422466  0.4243772007332681  1.0000
  H   H9        1.0  0.7470086645620597  0.3606321136848294  0.3145892829163374  1.0000
  H   H10       1.0  0.25298770510848095  0.6393673847679082  0.6854075400388455  1.0000
  H   H11       1.0  0.4057679502598005  0.38282364221672077  0.16819762112967854  1.0000
  H   H12       1.0  0.5942301259163542  0.6171771531558008  0.8317969886706253  1.0000
  H   H13       1.0  0.032595034613159185  0.23804578834962337  0.1779444630008982  1.0000
  H   H14       1.0  0.9674040781452219  0.7619524609589448  0.8220481647420501  1.0000
  H   H15       1.0  0.6399544628616665  0.48967002258201836  0.9810227772644213  1.0000
  H   H16       1.0  0.36006450400336826  0.5103356935554828  0.018988163590954305  1.0000
  H   H17       1.0  0.435271076953036  0.8637057951282473  0.18090948646978694  1.0000
  H   H18       1.0  0.5647279796605885  0.13629242299742828  0.8190865469974258  1.0000
  C   C1        1.0  0.35822768029344587  0.3573775413508428  0.4838710551787743  1.0000
  C   C2        1.0  0.6417667642424263  0.6426193817861119  0.5161277741534394  1.0000
  C   C3        1.0  0.1787332739830632  0.05493705191155839  0.07445743333030921  1.0000
  C   C4        1.0  0.8212658387753178  0.9450611973970026  0.925535194412646  1.0000
  C   C5        1.0  0.31135483694546184  0.499891048448191  0.44038207154685693  1.0000
  C   C6        1.0  0.6886454187347011  0.500105870826644  0.5596155923651125  1.0000
  C   C7        1.0  0.831476929701715  0.6949355880444231  0.1877948595418886  1.0000
  C   C8        1.0  0.1685270856623546  0.3050586818910048  0.8122113082064575  1.0000
  C   C9        1.0  0.20789631661131835  0.20416215954580957  0.46589413094239535  1.0000
  C   C10       1.0  0.7920914847909228  0.7958385841175185  0.5341089040763337  1.0000
  C   C11       1.0  0.9191759360728894  0.5886162030543575  0.09342149145368248  1.0000
  C   C12       1.0  0.08084181768942497  0.41139080413826423  0.9065886703880041  1.0000
  C   C13       1.0  0.1613181542101572  0.9198269695064668  0.9758127544249436  1.0000
  C   C14       1.0  0.8386830602033866  0.0801751101267172  0.024180628012032895  1.0000
  C   C15       1.0  0.12209409927913127  0.592372084762445  0.1038818698209099  1.0000
  C   C16       1.0  0.8779215949365877  0.4076311154927125  0.8961249830335591  1.0000
  C   C17       1.0  0.5476593687301586  0.35799871588799437  0.5437450451577703  1.0000
  C   C18       1.0  0.4523304918003461  0.641996927851693  0.4562548771773012  1.0000
  C   C19       1.0  0.6303572789648868  0.2610540896817212  0.2650732530944424  1.0000
  C   C20       1.0  0.36963738420004677  0.7389441118512395  0.7349257830156193  1.0000
  C   C21       1.0  0.46136436001217607  0.2736886591966651  0.1936063206252712  1.0000
  C   C22       1.0  0.5386373695083364  0.7263082708062215  0.8063897747850394  1.0000
  C   C23       1.0  0.018285592729490884  0.13564145157008764  0.0991991971225445  1.0000
  C   C24       1.0  0.9817190066228887  0.8643632063112178  0.9007914618668099  1.0000
  C   C25       1.0  0.7978250840588926  0.49422546602299616  0.98898136895199  1.0000
  C   C26       1.0  0.2021886352456903  0.5057828809301341  0.011023487999736403  1.0000
  C   C27       1.0  0.4726773669717943  0.0012919981888188995  0.19877342431238537  1.0000
  C   C28       1.0  0.5273200252447906  0.9987049464042383  0.8012222680165025  1.0000
  N   N1        1.0  0.634701013981889  0.09110977074817579  0.2679636819273413  1.0000
  N   N2        1.0  0.3652951089872117  0.9088884337171165  0.732034637112122  1.0000
  N   N3        1.0  0.36272204460208707  0.10798110030513189  0.15206725469137441  1.0000
  N   N4        1.0  0.6372791417390785  0.8920209637366127  0.8479278306077236  1.0000
  O   O1        1.0  0.04057357340629149  0.20596005483988475  0.4051901214366467  1.0000
  O   O2        1.0  0.9594136286718394  0.7940457916794158  0.5948153091951413  1.0000
  O   O3        1.0  0.2538425825591801  0.0791575285696524  0.509946388832809  1.0000
  O   O4        1.0  0.7461416714199129  0.9208393896324408  0.4900557571314295  1.0000
  O   O5        1.0  0.9574827554294386  0.809942024059282  0.2654687002126366  1.0000
  O   O6        1.0  0.042513171033014885  0.19005607126590007  0.7345415388617554  1.0000
  O   O7        1.0  0.6506789920534359  0.6740553026438504  0.1854441870785521  1.0000
  O   O8        1.0  0.34932500885611967  0.32593005263475316  0.8145564104299866  1.0000
