data_image0
_chemical_formula_structural       Zn4H24C22N8O16
_chemical_formula_sum              "Zn4 H24 C22 N8 O16"
_cell_length_a       7.658771943664532
_cell_length_b       8.784042606236754
_cell_length_c       11.454678404346556
_cell_angle_alpha    82.24270980182865
_cell_angle_beta     81.24902891021291
_cell_angle_gamma    72.91903905202805

_space_group_name_H-M_alt    "P 1"
_space_group_IT_number       1

loop_
  _space_group_symop_operation_xyz
  'x, y, z'

loop_
  _atom_site_type_symbol
  _atom_site_label
  _atom_site_symmetry_multiplicity
  _atom_site_fract_x
  _atom_site_fract_y
  _atom_site_fract_z
  _atom_site_occupancy
  Zn  Zn1       1.0  0.03894037855040719  0.27911462035505963  0.3134262771335158  1.0000
  Zn  Zn2       1.0  0.9610606533136165  0.7208868690869326  0.6865723665767546  1.0000
  Zn  Zn3       1.0  0.1036884779000502  0.03797212047037141  0.6007042125119  1.0000
  Zn  Zn4       1.0  0.8963099081933451  0.962029380952245  0.3992947195376927  1.0000
  H   H1        1.0  0.3958523228565768  0.3738571001286958  0.544862950533961  1.0000
  H   H2        1.0  0.6041491069907823  0.6261431750918407  0.4551366381875396  1.0000
  H   H3        1.0  0.12207871987471464  0.39705031211371283  0.5815251783737521  1.0000
  H   H4        1.0  0.8779200008438083  0.602950028889751  0.4184720810173771  1.0000
  H   H5        1.0  0.016274819111785608  0.16599432669605108  0.944213996462352  1.0000
  H   H6        1.0  0.9837277413273924  0.8340023596624137  0.05578580962314562  1.0000
  H   H7        1.0  0.6592818953901728  0.7418561400716046  0.8696423909744907  1.0000
  H   H8        1.0  0.3407222013472265  0.2581441052342015  0.13035778196424988  1.0000
  H   H9        1.0  0.4172317082900747  0.774504598535245  0.867531648475051  1.0000
  H   H10       1.0  0.5827707098174814  0.22549683111412833  0.13246946873524473  1.0000
  H   H11       1.0  0.5600056836281411  0.7974231559560252  0.7325156002544801  1.0000
  H   H12       1.0  0.43999576733862267  0.20257710133040524  0.26748486102358976  1.0000
  H   H13       1.0  0.23069608106284537  0.2715485698757334  0.8046123419348206  1.0000
  H   H14       1.0  0.7693049063435141  0.7284492111557768  0.19539277120506426  1.0000
  H   H15       1.0  0.23474413620191836  0.3268544628825296  0.9481553792176172  1.0000
  H   H16       1.0  0.7652566243951995  0.6731481331763051  0.051847554820810236  1.0000
  H   H17       1.0  0.37271904846318904  0.1345041807941243  0.9043882963492961  1.0000
  H   H18       1.0  0.6272821523560809  0.8654971651750429  0.09561732781348546  1.0000
  H   H19       1.0  0.215519153733787  0.005289699541613401  0.37230154511500047  1.0000
  H   H20       1.0  0.7844775537297652  0.9947129862245631  0.6276983312061546  1.0000
  H   H21       1.0  0.41554044635014986  0.1076344659480526  0.6644883001215119  1.0000
  H   H22       1.0  0.5844600374758359  0.8923646189754351  0.3355115052243178  1.0000
  H   H23       1.0  0.44383149419941514  0.12822991624078384  0.5277565841625602  1.0000
  H   H24       1.0  0.5561729582825095  0.8717691507117639  0.47224278867427927  1.0000
  C   C1        1.0  0.7608591145464205  0.3145875665396646  0.7205194904670548  1.0000
  C   C2        1.0  0.2391369392820693  0.6854128043785294  0.2794771847068345  1.0000
  C   C3        1.0  0.5032712547832929  0.4238734240902249  0.4969840839934037  1.0000
  C   C4        1.0  0.4967305308086057  0.5761256727770528  0.5030147046261959  1.0000
  C   C5        1.0  0.733333399281115  0.4736521713623675  0.7414620512716753  1.0000
  C   C6        1.0  0.2666662885781932  0.5263493420040392  0.2585358640516943  1.0000
  C   C7        1.0  0.6188699527286873  0.2389936521395768  0.7596655500023317  1.0000
  C   C8        1.0  0.38112658356076434  0.7610054328207454  0.24033556040905066  1.0000
  C   C9        1.0  0.9790824399298828  0.1089598360513762  0.13827509004456567  1.0000
  C   C10       1.0  0.02091810725432464  0.8910391950698013  0.8617273329709575  1.0000
  C   C11       1.0  0.990725489475814  0.3950108268612312  0.6309639348541509  1.0000
  C   C12       1.0  0.009272306340740537  0.6049883059110855  0.3690344137178768  1.0000
  C   C13       1.0  0.44519484508372653  0.48778519538195303  0.8585514013661778  1.0000
  C   C14       1.0  0.5548066058830445  0.5122150619044775  0.14144905991188486  1.0000
  C   C15       1.0  0.9979545824387801  0.07229759941613172  0.013622788818025797  1.0000
  C   C16       1.0  0.002048041358605646  0.9276990331400229  0.9863796349371654  1.0000
  C   C17       1.0  0.6604114777836472  0.3155871632779323  0.4305715814039601  1.0000
  C   C18       1.0  0.33958938290627566  0.6844107253581982  0.5694282963965306  1.0000
  C   C19       1.0  0.5538549701843183  0.7290211942209622  0.8198864643628736  1.0000
  C   C20       1.0  0.4461474268038332  0.2709802533625165  0.18011378029085984  1.0000
  C   C21       1.0  0.31750730664587223  0.2611538845489961  0.8749503968023546  1.0000
  C   C22       1.0  0.6824955516838287  0.7388462950107102  0.12505341053230984  1.0000
  N   N1        1.0  0.8779487088876226  0.5255471046010669  0.6846216058791867  1.0000
  N   N2        1.0  0.122051355835616  0.4744532124779754  0.31537638189885087  1.0000
  N   N3        1.0  0.9275460805168767  0.2666841695737645  0.6485805219952708  1.0000
  N   N4        1.0  0.07245037129495563  0.7333149871229665  0.3514170981898558  1.0000
  N   N5        1.0  0.4694303809952843  0.3307713988907608  0.8302725850897588  1.0000
  N   N6        1.0  0.530569014477706  0.669231239026594  0.1697287480051983  1.0000
  N   N7        1.0  0.5796124508995677  0.5609364388441094  0.8049410575350322  1.0000
  N   N8        1.0  0.420388602083861  0.4390650326637768  0.1950584587318076  1.0000
  O   O1        1.0  0.6650187824022353  0.16841479123941377  0.44162996358014783  1.0000
  O   O2        1.0  0.33498136679862994  0.8315854541032266  0.5583715144241451  1.0000
  O   O3        1.0  0.8921236605055826  0.03503869395849791  0.21784978306578745  1.0000
  O   O4        1.0  0.10787812508631599  0.9649604029087796  0.782149005553812  1.0000
  O   O5        1.0  0.05842826582452433  0.21371876167244608  0.1535454983047089  1.0000
  O   O6        1.0  0.9415693799373274  0.7862767523599034  0.8464549569141082  1.0000
  O   O7        1.0  0.10702984833469742  0.07746405282748729  0.4155011674679727  1.0000
  O   O8        1.0  0.8929689146226355  0.9225362523077721  0.584497837036288  1.0000
  O   O9        1.0  0.6147921477973525  0.1043907324531688  0.7349786004897183  1.0000
  O   O10       1.0  0.3852070765015443  0.8956083046583246  0.2650239666954661  1.0000
  O   O11       1.0  0.7790105018901485  0.37879768546204673  0.36902251099284905  1.0000
  O   O12       1.0  0.22098976852293356  0.6211978345237841  0.6309767833300767  1.0000
  O   O13       1.0  0.34579593188058066  0.13049093306703702  0.5951553721099643  1.0000
  O   O14       1.0  0.6542041962008726  0.8695093302097021  0.4048452333377596  1.0000
  O   O15       1.0  0.3114077395218473  0.5567377197115279  0.924818763292258  1.0000
  O   O16       1.0  0.6885922039891811  0.44326732272433134  0.07518140816713974  1.0000
