data_image0
_chemical_formula_structural       Cu2H28C44N6Cl2O4
_chemical_formula_sum              "Cu2 H28 C44 N6 Cl2 O4"
_cell_length_a       8.396627148528385
_cell_length_b       10.17872929859913
_cell_length_c       12.714737670820622
_cell_angle_alpha    66.8925899340597
_cell_angle_beta     81.43876216972005
_cell_angle_gamma    69.67339064903578

_space_group_name_H-M_alt    "P 1"
_space_group_IT_number       1

loop_
  _space_group_symop_operation_xyz
  'x, y, z'

loop_
  _atom_site_type_symbol
  _atom_site_label
  _atom_site_symmetry_multiplicity
  _atom_site_fract_x
  _atom_site_fract_y
  _atom_site_fract_z
  _atom_site_occupancy
  Cu  Cu1       1.0  0.27215487561600343  0.3279392115548985  0.29459047192184334  1.0000
  Cu  Cu2       1.0  0.7278454245399075  0.672054615373213  0.7054097640468556  1.0000
  H   H1        1.0  0.9881282003211925  0.9903267608601632  0.4127436851371372  1.0000
  H   H2        1.0  0.011871146537004097  0.009672595685657398  0.5872589312057102  1.0000
  H   H3        1.0  0.030682135747568395  0.14320371662592626  0.8547194124589268  1.0000
  H   H4        1.0  0.9693070413125467  0.8568069334454335  0.14527683195102273  1.0000
  H   H5        1.0  0.6298322803108221  0.5046607081767503  0.21892722804759052  1.0000
  H   H6        1.0  0.3701574582762247  0.49533844025582136  0.7810786680609283  1.0000
  H   H7        1.0  0.5468957384253271  0.4740832792851106  0.418817829363455  1.0000
  H   H8        1.0  0.4531028272695607  0.5259113258568032  0.5811933452024148  1.0000
  H   H9        1.0  0.9097533630476704  0.10201969538827879  0.2097846913102046  1.0000
  H   H10       1.0  0.0902592869527297  0.8979766197275862  0.7902121312569648  1.0000
  H   H11       1.0  0.5233024227410112  0.20968762308370967  0.8010320566956822  1.0000
  H   H12       1.0  0.47669689380673214  0.7903188316006861  0.19895823159168205  1.0000
  H   H13       1.0  0.9431962710662416  0.44503028848464493  0.16383229353338183  1.0000
  H   H14       1.0  0.056792748837949596  0.5549678820500645  0.8361684493364621  1.0000
  H   H15       1.0  0.5989935006927497  0.24441588471083253  0.15781673522756282  1.0000
  H   H16       1.0  0.4010107664193184  0.7555767258146915  0.84218822738724  1.0000
  H   H17       1.0  0.7741938672948975  0.38084890169375285  0.5656857577844789  1.0000
  H   H18       1.0  0.22581099012347033  0.6191515013691742  0.43432156361430424  1.0000
  H   H19       1.0  0.9999388361436488  0.2982286415127503  0.6773509713664653  1.0000
  H   H20       1.0  6.288741188600731e-05  0.7017742865995159  0.32264565409063556  1.0000
  H   H21       1.0  0.5492548566269234  0.10251231515981367  0.6749920318392668  1.0000
  H   H22       1.0  0.4507428946972425  0.8974882212234544  0.3250080171663044  1.0000
  H   H23       1.0  0.7611389111161415  0.027221035552891192  0.5632804566786191  1.0000
  H   H24       1.0  0.23886014203738862  0.9727726324708926  0.436724658136157  1.0000
  H   H25       1.0  0.5065990228976673  0.214268107490831  0.9930010504148683  1.0000
  H   H26       1.0  0.49341091004591686  0.7857259984252846  0.00699352238795833  1.0000
  H   H27       1.0  0.02610210776247608  0.1289366099073135  0.0524782356739806  1.0000
  H   H28       1.0  0.9738985586353053  0.871078733336951  0.9475155923023734  1.0000
  C   C1        1.0  0.8565221416844154  0.05515431853437038  0.3894680336018937  1.0000
  C   C2        1.0  0.14347722969031207  0.9448451088862126  0.6105321993407601  1.0000
  C   C3        1.0  0.13858839738733045  0.1530761936419651  0.885801476401241  1.0000
  C   C4        1.0  0.8613999710959847  0.8469332186574048  0.11419835390408657  1.0000
  C   C5        1.0  0.7273861074980843  0.46432800682799075  0.28197294955297286  1.0000
  C   C6        1.0  0.2726065337275756  0.5356667015392417  0.7180324295074599  1.0000
  C   C7        1.0  0.6814319909999751  0.4463959704860868  0.39549270794930186  1.0000
  C   C8        1.0  0.31856686022740627  0.5536042995529513  0.6045167626113681  1.0000
  C   C9        1.0  0.8123065770771944  0.11665223148148124  0.27466164212744815  1.0000
  C   C10       1.0  0.18770124018501402  0.8833438968905436  0.7253396009561186  1.0000
  C   C11       1.0  0.4141444735709284  0.18999363732368826  0.8555407024154819  1.0000
  C   C12       1.0  0.5858629788152782  0.8100037825402707  0.14445468341819623  1.0000
  C   C13       1.0  0.8990926632295028  0.43067302979530087  0.2515342198819611  1.0000
  C   C14       1.0  0.10090155428887465  0.5693240359913077  0.748467959721374  1.0000
  C   C15       1.0  0.6427860827461273  0.19540583674753254  0.24564106352082862  1.0000
  C   C16       1.0  0.35722459629381825  0.8045857334345424  0.7543636348483178  1.0000
  C   C17       1.0  0.8066870810730649  0.39357668894886183  0.47633589482470023  1.0000
  C   C18       1.0  0.1933173787805984  0.6064249111063232  0.5236687471911238  1.0000
  C   C19       1.0  0.12048580940910371  0.26607308169793936  0.6327621956176017  1.0000
  C   C20       1.0  0.879513063437848  0.7339308437225255  0.3672375358150363  1.0000
  C   C21       1.0  0.4281371192411568  0.16083472618250025  0.6307815754005405  1.0000
  C   C22       1.0  0.5718602864483201  0.8391635644358786  0.3692183831495157  1.0000
  C   C23       1.0  0.27791559928148496  0.1759232447583017  0.8129481616027973  1.0000
  C   C24       1.0  0.7220844633626127  0.8240806741920533  0.18705225225088645  1.0000
  C   C25       1.0  0.7322531036566176  0.07667759466944801  0.4722179718493962  1.0000
  C   C26       1.0  0.2677442092419611  0.9233240205814821  0.5277833701068745  1.0000
  C   C27       1.0  0.2754477170197164  0.1993783693687234  0.6915132822346024  1.0000
  C   C28       1.0  0.7245490973510799  0.8006277438820887  0.30848755821165236  1.0000
  C   C29       1.0  0.42141342035385787  0.19441897159811108  0.5139799236550573  1.0000
  C   C30       1.0  0.5785839771634472  0.805579295395354  0.48602082936172764  1.0000
  C   C31       1.0  0.9764823826532305  0.35891821398301715  0.44030963683733404  1.0000
  C   C32       1.0  0.02351974663918812  0.6410835407619117  0.559688873535997  1.0000
  C   C33       1.0  0.5653307049765033  0.16047595278384108  0.4367344992042561  1.0000
  C   C34       1.0  0.43466454944593375  0.8395278502974362  0.5632679517656243  1.0000
  C   C35       1.0  0.12330042937152541  0.29614393276031586  0.5158053281547978  1.0000
  C   C36       1.0  0.8767014062162275  0.7038521334625754  0.484195680690462  1.0000
  C   C37       1.0  0.26473087288049874  0.17251763904947376  0.03643084183592291  1.0000
  C   C38       1.0  0.7352716592518362  0.8274865268347821  0.9635621977258  1.0000
  C   C39       1.0  0.40495578458213544  0.1929572315705101  0.9646113044137294  1.0000
  C   C40       1.0  0.5950512620671944  0.8070413616607934  0.03538219650372556  1.0000
  C   C41       1.0  0.1345756032055192  0.14755235030269626  0.9970813312309943  1.0000
  C   C42       1.0  0.8654195035990354  0.8524618046749379  0.0029125584898183335  1.0000
  C   C43       1.0  0.24960718501961313  0.18414596715857806  0.15193872749966178  1.0000
  C   C44       1.0  0.7503984588372743  0.8158627954398341  0.8480518854815244  1.0000
  N   N1        1.0  0.01973164679410645  0.3784783288000212  0.32878243430072734  1.0000
  N   N2        1.0  0.9802670659999462  0.6215167015904655  0.6712144398639667  1.0000
  N   N3        1.0  0.5227974872654498  0.21569431085058705  0.3249948653856977  1.0000
  N   N4        1.0  0.47720355608985443  0.7843005648501558  0.6750081404214825  1.0000
  N   N5        1.0  0.27194431335387753  0.26365475489495077  0.4599733381516131  1.0000
  N   N6        1.0  0.7280575467503992  0.7363413822026955  0.5400252872934531  1.0000
  Cl  Cl1       1.0  0.2860127501302827  0.5832933872528798  0.2396903586825232  1.0000
  Cl  Cl2       1.0  0.7139617249045356  0.4167112739390361  0.7603129066145088  1.0000
  O   O1        1.0  0.27813265784389063  0.30328900918255636  0.14848579998614042  1.0000
  O   O2        1.0  0.7218887673343273  0.6967062053997989  0.8515137121109364  1.0000
  O   O3        1.0  0.2101385133372986  0.08700277145540977  0.2389245374206936  1.0000
  O   O4        1.0  0.7898547643307553  0.9130034557054145  0.761071077895494  1.0000
