data_image0
_chemical_formula_structural       Zn3H18C42N12O36
_chemical_formula_sum              "Zn3 H18 C42 N12 O36"
_cell_length_a       11.164555095674041
_cell_length_b       11.164585059397314
_cell_length_c       11.53065369105408
_cell_angle_alpha    90.00034687351602
_cell_angle_beta     89.9997645386767
_cell_angle_gamma    120.00029226550664

_space_group_name_H-M_alt    "P 1"
_space_group_IT_number       1

loop_
  _space_group_symop_operation_xyz
  'x, y, z'

loop_
  _atom_site_type_symbol
  _atom_site_label
  _atom_site_symmetry_multiplicity
  _atom_site_fract_x
  _atom_site_fract_y
  _atom_site_fract_z
  _atom_site_occupancy
  Zn  Zn1       1.0  0.05094381968873309  8.674073811196123e-06  0.8333212561347308  1.0000
  Zn  Zn2       1.0  5.286993029999917e-06  0.050943805752226  0.16667153380027597  1.0000
  Zn  Zn3       1.0  0.9490586864438911  0.9490587204892549  0.4999968324834326  1.0000
  H   H1        1.0  0.5791902762259868  0.7071013014273505  0.5742632496668348  1.0000
  H   H2        1.0  0.2929053995505696  0.8720942667066182  0.907590602310634  1.0000
  H   H3        1.0  0.12791155309023589  0.4208174742299278  0.2409430939391299  1.0000
  H   H4        1.0  0.8720948313521575  0.2929063097786514  0.09240584017677378  1.0000
  H   H5        1.0  0.4208157469227557  0.12791230829145667  0.7590545017776406  1.0000
  H   H6        1.0  0.7070992616151417  0.5791873307332056  0.4257350417270088  1.0000
  H   H7        1.0  0.310298428534331  0.3195518426381767  0.746428079523774  1.0000
  H   H8        1.0  0.6804455546795227  0.9907388063615346  0.07976286532738189  1.0000
  H   H9        1.0  0.009254161625165142  0.6897054288588153  0.41311216370227294  1.0000
  H   H10       1.0  0.9907418971866662  0.6804511881642057  0.9202392581360427  1.0000
  H   H11       1.0  0.6897022224207346  0.009254203164637426  0.5868899099841797  1.0000
  H   H12       1.0  0.3195503434087002  0.310297198165607  0.2535704599557675  1.0000
  H   H13       1.0  0.716170949987351  0.5981625245530467  0.8857913905171059  1.0000
  H   H14       1.0  0.401835156102571  0.11800027028293412  0.21912415054590886  1.0000
  H   H15       1.0  0.8819842309878965  0.28383117380245454  0.5524690424264022  1.0000
  H   H16       1.0  0.11801124269577913  0.40184349144844583  0.7808760196751051  1.0000
  H   H17       1.0  0.2838323198010715  0.8819939951268269  0.4475282681089538  1.0000
  H   H18       1.0  0.5981615339305009  0.7161679692624006  0.11420866183138398  1.0000
  C   C1        1.0  0.6625849371558772  0.6658855384215839  0.7283288132516148  1.0000
  C   C2        1.0  0.3341143872848562  0.9966961195189371  0.06165792836242189  1.0000
  C   C3        1.0  0.0032958958381001575  0.33741544421689434  0.39500461526602487  1.0000
  C   C4        1.0  0.9967047817458762  0.3341199956556269  0.9383412722800485  1.0000
  C   C5        1.0  0.33741508689769256  0.003305632981451432  0.6049919170135566  1.0000
  C   C6        1.0  0.6658862358850114  0.6625815507093691  0.27166951791960503  1.0000
  C   C7        1.0  0.5605392796450559  0.6354110420084141  0.6450006086284573  1.0000
  C   C8        1.0  0.36459580861633645  0.9251330934199945  0.9783298826486655  1.0000
  C   C9        1.0  0.07486957572957222  0.4394629402310955  0.31167905467324886  1.0000
  C   C10       1.0  0.9251326821100323  0.36459551972457405  0.021668411991924996  1.0000
  C   C11       1.0  0.43946388273543135  0.07488030204201117  0.6883176413704604  1.0000
  C   C12       1.0  0.6354114628913692  0.5605368879765111  0.3549958630429088  1.0000
  C   C13       1.0  0.4352592923581682  0.5120229571293395  0.6540893129424176  1.0000
  C   C14       1.0  0.48797951865704203  0.9232345762234221  0.9874167110483183  1.0000
  C   C15       1.0  0.07676366311371667  0.5647464126566889  0.32076997261972195  1.0000
  C   C16       1.0  0.9232369848113609  0.48798286653033085  0.012578229171126097  1.0000
  C   C17       1.0  0.5647457504667202  0.07676945442918993  0.6792277106231878  1.0000
  C   C18       1.0  0.5120213510157896  0.43525531862673017  0.34590692417842916  1.0000
  C   C19       1.0  0.40814956973204636  0.4163530267113915  0.7417103095673879  1.0000
  C   C20       1.0  0.5836489026318432  0.991790816904569  0.07504346963210648  1.0000
  C   C21       1.0  0.008209812581078807  0.5918581882659878  0.40838881387857373  1.0000
  C   C22       1.0  0.9917957840816171  0.5836514125108184  0.9249568290025392  1.0000
  C   C23       1.0  0.5918554001639292  0.008212517892694404  0.5916105647773405  1.0000
  C   C24       1.0  0.41635236395031683  0.4081457247922914  0.25828841350367066  1.0000
  C   C25       1.0  0.5123852015070512  0.45061540574507586  0.8230342980954929  1.0000
  C   C26       1.0  0.5493821046599904  0.061760841676253654  0.15637095708989077  1.0000
  C   C27       1.0  0.9382279239373404  0.4876178250146524  0.48971419969258523  1.0000
  C   C28       1.0  0.06176902755984777  0.5493905928771526  0.8436327682747872  1.0000
  C   C29       1.0  0.487612079820863  0.9382241261397368  0.5102876923512482  1.0000
  C   C30       1.0  0.450609760494352  0.5123802632863246  0.17696455561713256  1.0000
  C   C31       1.0  0.6383901883649656  0.5736797753896071  0.8191239621323445  1.0000
  C   C32       1.0  0.42631802550941694  0.0647029834633628  0.15245903288510476  1.0000
  C   C33       1.0  0.9352850948458383  0.3616114200498828  0.4858007852337422  1.0000
  C   C34       1.0  0.0647147506698716  0.4263272072128147  0.8475437119188952  1.0000
  C   C35       1.0  0.36161033411743676  0.9352903240196468  0.5141975161851917  1.0000
  C   C36       1.0  0.5736780742526192  0.6383866800930917  0.18087339199796298  1.0000
  C   C37       1.0  0.7979886585760099  0.7984592756818147  0.7200640065573366  1.0000
  C   C38       1.0  0.20154538696270674  0.999530554983494  0.053383737767489885  1.0000
  C   C39       1.0  0.00046143286025571915  0.202010546407152  0.3867306221072084  1.0000
  C   C40       1.0  0.9995382068654309  0.20154918283922293  0.9466075352211049  1.0000
  C   C41       1.0  0.20201396468283409  0.0004720901660845915  0.6132614435090814  1.0000
  C   C42       1.0  0.7984588090305706  0.7979846628045026  0.27993891364504714  1.0000
  N   N1        1.0  0.3271993165538446  0.47835144033439997  0.5664074983051391  1.0000
  N   N2        1.0  0.5216376421046577  0.8488367977087636  0.8997275527116173  1.0000
  N   N3        1.0  0.15115754479404614  0.6728016547159826  0.23308040439805916  1.0000
  N   N4        1.0  0.8488416041403825  0.5216455292177358  0.100268216343288  1.0000
  N   N5        1.0  0.6727910520724407  0.15115410350212966  0.7669243889562976  1.0000
  N   N6        1.0  0.47836134827433346  0.3272060762478689  0.43360334844942366  1.0000
  N   N7        1.0  0.4848350926566383  0.3531233568300395  0.9185949961948692  1.0000
  N   N8        1.0  0.6468797181063691  0.13170820902626448  0.25192322592082655  1.0000
  N   N9        1.0  0.8682781415694407  0.5151653589292949  0.5852684147564914  1.0000
  N   N10       1.0  0.13171651926055727  0.6468911338073867  0.7480745866158998  1.0000
  N   N11       1.0  0.5151612987650582  0.8682781731675395  0.414732570046901  1.0000
  N   N12       1.0  0.35311608476018813  0.48482564860194083  0.08140547407187168  1.0000
  O   O1        1.0  0.881561183130465  0.8254480199344273  0.8043028542578411  1.0000
  O   O2        1.0  0.17455496522539699  0.0561084626990507  0.1376320808431331  1.0000
  O   O3        1.0  0.9438701658218418  0.1184284791882319  0.47098215541240046  1.0000
  O   O4        1.0  0.05612953482344811  0.1745687463798333  0.8623600113377348  1.0000
  O   O5        1.0  0.11843167155898007  0.9438769902782553  0.5290124557099957  1.0000
  O   O6        1.0  0.825448051519274  0.8815667960003638  0.19568889596032338  1.0000
  O   O7        1.0  0.8179517655036789  0.8742509597448063  0.6317803838649708  1.0000
  O   O8        1.0  0.1257641697028761  0.9437198993761555  0.9650961296456159  1.0000
  O   O9        1.0  0.056290197783866354  0.18205616464928204  0.2984657237501551  1.0000
  O   O10       1.0  0.943718595592145  0.12576441662214685  0.03488981570865949  1.0000
  O   O11       1.0  0.18205417726567666  0.05630262501819772  0.7015272429733841  1.0000
  O   O12       1.0  0.8742518012479649  0.8179489065156743  0.36821135236068153  1.0000
  O   O13       1.0  0.35219062584972255  0.5626847022772454  0.48699502699658836  1.0000
  O   O14       1.0  0.4373247703073347  0.7895051226480663  0.8203408943327231  1.0000
  O   O15       1.0  0.21048555104395225  0.6478056863648051  0.15367881506626446  1.0000
  O   O16       1.0  0.7895064810602433  0.43732222669911636  0.17966601350492079  1.0000
  O   O17       1.0  0.6477994243125381  0.2104812176382326  0.8463234088989892  1.0000
  O   O18       1.0  0.5626713870510899  0.3521925832453763  0.5129873035420259  1.0000
  O   O19       1.0  0.21818214618905782  0.3662969013123672  0.576272395286935  1.0000
  O   O20       1.0  0.6337126982453047  0.851876712996074  0.9096001501634274  1.0000
  O   O21       1.0  0.1481178655491323  0.7818232107319077  0.24294574159576846  1.0000
  O   O22       1.0  0.8518852441259097  0.6337054875546002  0.09039832917921589  1.0000
  O   O23       1.0  0.7818221165045923  0.14811443475177533  0.7570565499436626  1.0000
  O   O24       1.0  0.36629135673673835  0.21817384891524233  0.4237287031451515  1.0000
  O   O25       1.0  0.3757995162003525  0.24007506360889158  0.9144372681130902  1.0000
  O   O26       1.0  0.7599228554466179  0.1357254634663292  0.24777233489671596  1.0000
  O   O27       1.0  0.8642675884628089  0.624204739090203  0.5811146008124409  1.0000
  O   O28       1.0  0.135733732703578  0.7599319522082342  0.7522290570615978  1.0000
  O   O29       1.0  0.6242001889180812  0.8642669421338026  0.4188873503092622  1.0000
  O   O30       1.0  0.24007362028370952  0.3757931954732427  0.08555865640851579  1.0000
  O   O31       1.0  0.5699182634478888  0.38943753784283797  0.9987092106818662  1.0000
  O   O32       1.0  0.610567802612742  0.18048454163049837  0.33204899591041936  1.0000
  O   O33       1.0  0.8195092593392203  0.43008011956931125  0.66538947783161  1.0000
  O   O34       1.0  0.18047832252203477  0.6105688037147203  0.6679522973955939  1.0000
  O   O35       1.0  0.4300753030291632  0.819507739809673  0.33461138071417196  1.0000
  O   O36       1.0  0.3894283929721779  0.5699119006358089  0.0012887723422067999  1.0000
