data_image0
_chemical_formula_structural       Mn4H20C16O26
_chemical_formula_sum              "Mn4 H20 C16 O26"
_cell_length_a       7.552018301147924
_cell_length_b       8.902050471099312
_cell_length_c       10.86551993903001
_cell_angle_alpha    90.00006941375248
_cell_angle_beta     90.00025196682077
_cell_angle_gamma    98.74842006414788

_space_group_name_H-M_alt    "P 1"
_space_group_IT_number       1

loop_
  _space_group_symop_operation_xyz
  'x, y, z'

loop_
  _atom_site_type_symbol
  _atom_site_label
  _atom_site_symmetry_multiplicity
  _atom_site_fract_x
  _atom_site_fract_y
  _atom_site_fract_z
  _atom_site_occupancy
  Mn  Mn1       1.0  0.7384468024806737  0.7419880722919886  0.0001119557946581  1.0000
  Mn  Mn2       1.0  0.261565873632911  0.25802243825583565  0.500086128860552  1.0000
  Mn  Mn3       1.0  0.8454610379262916  0.7269856844005603  0.4883878754648022  1.0000
  Mn  Mn4       1.0  0.1545467846365369  0.2730112435095578  0.9883884180029909  1.0000
  H   H1        1.0  0.8665258594448559  0.12096683354163673  0.1645632589359067  1.0000
  H   H2        1.0  0.1334780017115165  0.8790407201528013  0.6645624812663158  1.0000
  H   H3        1.0  0.7120414630144793  0.10935420959850721  0.3578386220786811  1.0000
  H   H4        1.0  0.2879690001825566  0.8906469372329014  0.8578309764623739  1.0000
  H   H5        1.0  0.616235644334587  0.3476325356076586  0.16194092104839797  1.0000
  H   H6        1.0  0.38376469732612856  0.6523704838962985  0.6619453091806875  1.0000
  H   H7        1.0  0.8164237536504189  0.3396779155293573  0.323143824564724  1.0000
  H   H8        1.0  0.18357500689302947  0.660325503710446  0.823151275156313  1.0000
  H   H9        1.0  0.012675452948229839  0.94052081581426  0.1370247506076581  1.0000
  H   H10       1.0  0.9873286917409841  0.05948211754725458  0.6370313745757982  1.0000
  H   H11       1.0  0.5737192293524701  0.9056907420000185  0.42755473676294997  1.0000
  H   H12       1.0  0.4262833304392615  0.09430835115892221  0.9275577976303068  1.0000
  H   H13       1.0  0.5058779693121025  0.5375925522233018  0.10606868654690518  1.0000
  H   H14       1.0  0.494114533969885  0.46240583418288855  0.606074156621645  1.0000
  H   H15       1.0  0.0012091896919486289  0.5193177006954173  0.38937692575849076  1.0000
  H   H16       1.0  0.9987789994371566  0.48068367471299217  0.8893784711125718  1.0000
  H   H17       1.0  0.6723005853642617  0.8938786464970433  0.6472093531714335  1.0000
  H   H18       1.0  0.3277010181794892  0.1061175008803232  0.1472111909411993  1.0000
  H   H19       1.0  0.8345880345705653  0.8402392743596111  0.7243710980693052  1.0000
  H   H20       1.0  0.1654034983093169  0.15975712810904952  0.2243697187264146  1.0000
  C   C1        1.0  0.6125100246484436  0.003214357952621998  0.1247506276957395  1.0000
  C   C2        1.0  0.3874960410815404  0.9967851186751702  0.6247581217999496  1.0000
  C   C3        1.0  0.792084277563603  0.009326329309651302  0.19045048281528662  1.0000
  C   C4        1.0  0.20791821763392454  0.9906801581969233  0.6904482054952013  1.0000
  C   C5        1.0  0.7760432657655087  0.0113196838657927  0.3314533751115434  1.0000
  C   C6        1.0  0.2239654865289964  0.9886802730379785  0.8314511460789545  1.0000
  C   C7        1.0  0.9677382245871016  0.030256893438029002  0.382042151572456  1.0000
  C   C8        1.0  0.032260318313291264  0.9697364274567807  0.8820393041746256  1.0000
  C   C9        1.0  0.8629031375793231  0.45241428726489374  0.0882707001040259  1.0000
  C   C10       1.0  0.13708917499925385  0.5475977133999026  0.5882778961161108  1.0000
  C   C11       1.0  0.7072322988478914  0.45524165883485057  0.1775215940442294  1.0000
  C   C12       1.0  0.2927602107078754  0.544761451865014  0.6775191508116478  1.0000
  C   C13       1.0  0.768466677140104  0.44967664194410156  0.3110661478420695  1.0000
  C   C14       1.0  0.231531324121498  0.5503301673201692  0.8110671997061303  1.0000
  C   C15       1.0  0.6102942443810875  0.44884428963605677  0.3999304922381839  1.0000
  C   C16       1.0  0.3897083107611436  0.5511627028348941  0.8999246772678688  1.0000
  O   O1        1.0  0.5676824408370181  0.9053048542139167  0.0408718970763218  1.0000
  O   O2        1.0  0.4323223185363716  0.09471149885778374  0.5408795789371368  1.0000
  O   O3        1.0  0.524181763451196  0.10655913685115341  0.1565833465350792  1.0000
  O   O4        1.0  0.47581325287204396  0.893443906166333  0.6565744509319416  1.0000
  O   O5        1.0  0.8874893285598232  0.8909779178266319  0.1492905801778193  1.0000
  O   O6        1.0  0.11251400319947177  0.10902732666886551  0.6492935935016604  1.0000
  O   O7        1.0  0.6710791429835227  0.8746387078987967  0.37867640322559737  1.0000
  O   O8        1.0  0.32892927801464106  0.12535795122405347  0.8786709063209202  1.0000
  O   O9        1.0  0.0274324996660909  0.9164165028859661  0.42464928599780183  1.0000
  O   O10       1.0  0.9725718652681363  0.0835711909837968  0.9246402412697563  1.0000
  O   O11       1.0  0.05866684987125129  0.16383367083664518  0.3716133127150627  1.0000
  O   O12       1.0  0.9413283362925567  0.8361562338989543  0.8716058187854471  1.0000
  O   O13       1.0  0.8821232336460054  0.5485850786420273  2.6495227011500004e-05  1.0000
  O   O14       1.0  0.11787479021932512  0.4514039102038937  0.5000224939066484  1.0000
  O   O15       1.0  0.9590595776073556  0.3493824102179843  0.1037675280926535  1.0000
  O   O16       1.0  0.04094910446320204  0.6505965140310864  0.6037653194099377  1.0000
  O   O17       1.0  0.6145920251494772  0.5812323184633784  0.1544172313975878  1.0000
  O   O18       1.0  0.3854032278641101  0.4187650277720395  0.6544232393064888  1.0000
  O   O19       1.0  0.9129967174355258  0.5682070450475436  0.33935039770521763  1.0000
  O   O20       1.0  0.08699335789164311  0.4317919207738044  0.8393499621235351  1.0000
  O   O21       1.0  0.6330468137581063  0.539040564310639  0.4931308974423985  1.0000
  O   O22       1.0  0.36694384778628114  0.46095649251004295  0.9931240036104114  1.0000
  O   O23       1.0  0.4714012728103967  0.35506074593039466  0.3791093206637726  1.0000
  O   O24       1.0  0.528589279231504  0.6449394505458275  0.8791150752778877  1.0000
  O   O25       1.0  0.8042640350002871  0.8773540773244052  0.6423455414875079  1.0000
  O   O26       1.0  0.1957379650540503  0.1226443315822365  0.1423442211645991  1.0000
