data_image0
_chemical_formula_structural       ZnH26C22N4O8
_chemical_formula_sum              "Zn1 H26 C22 N4 O8"
_cell_length_a       5.383172255541236
_cell_length_b       7.551834661154866
_cell_length_c       13.565071190023763
_cell_angle_alpha    97.74898611587068
_cell_angle_beta     101.47167720627093
_cell_angle_gamma    90.00579685324591

_space_group_name_H-M_alt    "P 1"
_space_group_IT_number       1

loop_
  _space_group_symop_operation_xyz
  'x, y, z'

loop_
  _atom_site_type_symbol
  _atom_site_label
  _atom_site_symmetry_multiplicity
  _atom_site_fract_x
  _atom_site_fract_y
  _atom_site_fract_z
  _atom_site_occupancy
  Zn  Zn1       1.0  0.6592685854444227  0.500092508868157  0.9999525068371184  1.0000
  H   H1        1.0  0.8956916424843655  0.8315585036230998  0.2708305310843925  1.0000
  H   H2        1.0  0.624755356542849  0.1684960937936992  0.7293173043799539  1.0000
  H   H3        1.0  0.2046235806876098  0.43261543827630783  0.9009895718002879  1.0000
  H   H4        1.0  0.30385850358747757  0.5672297119248241  0.09902081912888147  1.0000
  H   H5        1.0  0.3937394894110611  0.3575744878118385  0.8245339884886675  1.0000
  H   H6        1.0  0.5694269181910627  0.6424723914370105  0.1754799993476226  1.0000
  H   H7        1.0  0.224000216512664  0.8485377064810962  0.8433957077598108  1.0000
  H   H8        1.0  0.3802590130494181  0.15121010190954817  0.1565731811668911  1.0000
  H   H9        1.0  0.29553535824156535  0.17290767664134418  0.9897594105636001  1.0000
  H   H10       1.0  0.3051600195135507  0.8269536639194894  0.01028465712853688  1.0000
  H   H11       1.0  0.47543506423717463  0.0929661018252119  0.897589355925966  1.0000
  H   H12       1.0  0.5775280141910528  0.9071581319330805  0.102397225941111  1.0000
  H   H13       1.0  0.6794946728266708  0.8922962977564451  0.7517423265331826  1.0000
  H   H14       1.0  0.9277589507585802  0.1077311115062614  0.2483506306497034  1.0000
  H   H15       1.0  0.4717817253797064  0.5874882619631732  0.54992134990038  1.0000
  H   H16       1.0  0.9225372445944018  0.41299339013274045  0.449892405850207  1.0000
  H   H17       1.0  0.7476061603915909  0.5429391134958051  0.6999692045723052  1.0000
  H   H18       1.0  0.0481184686374263  0.45715261257399226  0.29989068734025887  1.0000
  H   H19       1.0  0.07124024748958391  0.6083293550922377  0.7282439112942851  1.0000
  H   H20       1.0  0.3433090604773099  0.39149661113812323  0.2716507417677079  1.0000
  H   H21       1.0  0.41254259628988876  0.6609417723349864  0.3742736318509329  1.0000
  H   H22       1.0  0.03861188192629329  0.33963383675812503  0.6255261155479344  1.0000
  H   H23       1.0  0.1540307579319204  0.913870164968621  0.4442270107628161  1.0000
  H   H24       1.0  0.7098403957548313  0.08605619968933098  0.5559445787166409  1.0000
  H   H25       1.0  0.21230276223959518  0.8446912469157084  0.6199004771969853  1.0000
  H   H26       1.0  0.592735966487119  0.15506629027895974  0.3802244281678496  1.0000
  C   C1        1.0  0.7274783872699615  0.7191313814071375  0.8656235627787509  1.0000
  C   C2        1.0  0.8613540640953232  0.28077406350728745  0.1343356718875057  1.0000
  C   C3        1.0  0.0672306966101246  0.09489009376996901  0.8444215865717624  1.0000
  C   C4        1.0  0.2227838842552643  0.9048845021808488  0.15569423708070218  1.0000
  C   C5        1.0  0.8471494651587153  0.7089680108558267  0.5980379787408694  1.0000
  C   C6        1.0  0.24960966650493785  0.2910764700673454  0.4019112768050731  1.0000
  C   C7        1.0  0.3139088488154371  0.17481511878530398  0.910770617809966  1.0000
  C   C8        1.0  0.40291172258277896  0.825129573170841  0.08927075824531978  1.0000
  C   C9        1.0  0.8286371474041232  0.8068180384073215  0.7851156953805116  1.0000
  C   C10       1.0  0.04337348484807531  0.19310581354087467  0.2148719992822379  1.0000
  C   C11       1.0  0.7814186974562887  0.7861748091976251  0.39718795162249165  1.0000
  C   C12       1.0  0.3843878974712709  0.21398985113555108  0.6028332161406594  1.0000
  C   C13       1.0  0.6217942693707244  0.6604168118440227  0.5276481372137312  1.0000
  C   C14       1.0  0.09457370699162479  0.3397706294448922  0.47218739863183856  1.0000
  C   C15       1.0  0.8791004777928818  0.6558353605698175  0.7027738422117622  1.0000
  C   C16       1.0  0.1766472728908681  0.34412853344940686  0.2971511559076204  1.0000
  C   C17       1.0  0.5878785985186994  0.6988943940821172  0.4285937815604868  1.0000
  C   C18       1.0  0.1595945095328517  0.30141837660907095  0.5712753073098894  1.0000
  C   C19       1.0  0.005046752855598401  0.8409591977242741  0.4671197879139156  1.0000
  C   C20       1.0  0.5380075647049978  0.15900092821613043  0.5329602874532497  1.0000
  C   C21       1.0  0.0360695233547048  0.8022258163818704  0.5666171465672817  1.0000
  C   C22       1.0  0.46981322136151954  0.19771816766797912  0.433440630017543  1.0000
  N   N1        1.0  0.3653730459055922  0.3601338413005876  0.8975044762124469  1.0000
  N   N2        1.0  0.4679610412714368  0.6398834634437659  0.10250302536427819  1.0000
  N   N3        1.0  0.05639619805967299  0.9157354494644138  0.8278714472454992  1.0000
  N   N4        1.0  0.22817192978656206  0.0840424524663916  0.17211559024542564  1.0000
  O   O1        1.0  0.8826281886875265  0.6366315793579741  0.9277617941525518  1.0000
  O   O2        1.0  0.9543505322357505  0.36311553031398336  0.07216670344615748  1.0000
  O   O3        1.0  0.49257801249218863  0.7211416420677778  0.8638334192213433  1.0000
  O   O4        1.0  0.6283266063155891  0.2788914606809811  0.136208634341088  1.0000
  O   O5        1.0  0.8890148459197961  0.1947982138213931  0.815759997409252  1.0000
  O   O6        1.0  0.0737314495822616  0.8048001468492104  0.1845183271298652  1.0000
  O   O7        1.0  0.7376776854079238  0.8172398758315963  0.29810000286519056  1.0000
  O   O8        1.0  0.4395204420700195  0.18299916634042998  0.7019345936340783  1.0000
