data_image0
_chemical_formula_structural       Zn4H15C34Br5N2O13
_chemical_formula_sum              "Zn4 H15 C34 Br5 N2 O13"
_cell_length_a       16.070766666073144
_cell_length_b       16.098926439067778
_cell_length_c       19.572734120335667
_cell_angle_alpha    83.83274831864136
_cell_angle_beta     89.73063954653462
_cell_angle_gamma    83.84709960943604

_space_group_name_H-M_alt    "P 1"
_space_group_IT_number       1

loop_
  _space_group_symop_operation_xyz
  'x, y, z'

loop_
  _atom_site_type_symbol
  _atom_site_label
  _atom_site_symmetry_multiplicity
  _atom_site_fract_x
  _atom_site_fract_y
  _atom_site_fract_z
  _atom_site_occupancy
  Zn  Zn1       1.0  0.4313913068839597  0.5730672767262774  0.5586194904194173  1.0000
  Zn  Zn2       1.0  0.56178304181541  0.5712323263277171  0.434707478192081  1.0000
  Zn  Zn3       1.0  0.4285844902879247  0.43668173006170735  0.44931928940001603  1.0000
  Zn  Zn4       1.0  0.5773128988368584  0.41992509341671547  0.559727183394358  1.0000
  H   H1        1.0  0.9904942847500282  0.5653309300451003  0.5565120137418731  1.0000
  H   H2        1.0  0.5655748141059788  0.03307289069244491  0.669082758594449  1.0000
  H   H3        1.0  0.6435878964968254  0.06437633415369251  0.6096135495829955  1.0000
  H   H4        1.0  0.5867376562536606  0.42651928524610133  0.06717229595422938  1.0000
  H   H5        1.0  0.5178893845272725  0.30574168535616053  0.027762580179619096  1.0000
  H   H6        1.0  0.6298230049973412  0.2916546129704686  0.030745343715096903  1.0000
  H   H7        1.0  0.5769218373534954  0.3231475196076161  0.9511170260388155  1.0000
  H   H8        1.0  0.0097181564066062  0.43677237303402466  0.44932269646036355  1.0000
  H   H9        1.0  0.4452733629901359  0.02176167961555111  0.4376659888379563  1.0000
  H   H10       1.0  0.5582198934350657  0.6178359129745206  0.22975969198336796  1.0000
  H   H11       1.0  0.652106637285044  0.4911407510950241  0.89470255563009  1.0000
  H   H12       1.0  0.4035581556428199  0.43560981048257486  0.10024447790589619  1.0000
  H   H13       1.0  0.3876272311047729  0.46717319301678384  0.9024181736752154  1.0000
  H   H14       1.0  0.5688805950545157  0.9106519420117751  0.5827399822713984  1.0000
  H   H15       1.0  0.657804706132346  0.9636513065001895  0.6576768577154439  1.0000
  C   C1        1.0  0.7238372729752455  0.48949111542464163  0.49288641077223616  1.0000
  C   C2        1.0  0.5234897728868049  0.4800955376171318  0.9821619801859072  1.0000
  C   C3        1.0  0.4808514844544263  0.5406689835629451  0.01601259775640781  1.0000
  C   C4        1.0  0.27632719068982686  0.5109731953527901  0.5147700783468565  1.0000
  C   C5        1.0  0.48024689147660377  0.5173977705701704  0.23801996815981846  1.0000
  C   C6        1.0  0.8138638238257413  0.4848685438531606  0.4891942175781381  1.0000
  C   C7        1.0  0.9774729619289246  0.47841761950312667  0.4839396740960353  1.0000
  C   C8        1.0  0.02298639956013198  0.5236039836413585  0.5221338791596608  1.0000
  C   C9        1.0  0.11050399809909811  0.519108340303582  0.5196488149905817  1.0000
  C   C10       1.0  0.8899927485553859  0.4821614124586093  0.4866263173367997  1.0000
  C   C11       1.0  0.18670507639454567  0.5160396815539842  0.5186138402781069  1.0000
  C   C12       1.0  0.5200465595894883  0.47954232158700455  0.9064492541036485  1.0000
  C   C13       1.0  0.4858848552406485  0.8175392098363335  0.4837484899071711  1.0000
  C   C14       1.0  0.4802080470907554  0.9812534271611855  0.47820801132894525  1.0000
  C   C15       1.0  0.5241745386296798  0.0183290531950462  0.5253257238142197  1.0000
  C   C16       1.0  0.4888202350549236  0.7275838093911987  0.4875783595623062  1.0000
  C   C17       1.0  0.5208920877836648  0.10702210911217241  0.5188091674863955  1.0000
  C   C18       1.0  0.4820186560100764  0.8942854002144074  0.4801436490710315  1.0000
  C   C19       1.0  0.5174616251703553  0.18343358587780761  0.5129642431362812  1.0000
  C   C20       1.0  0.5136521859338998  0.2733910752965017  0.5079019665739537  1.0000
  C   C21       1.0  0.4854621902947613  0.5125625868345057  0.31482432996862997  1.0000
  C   C22       1.0  0.5127181761450216  0.486093141913429  0.6851294637049533  1.0000
  C   C23       1.0  0.5936068360686163  0.48584925548238556  0.8684821975473724  1.0000
  C   C24       1.0  0.5158388933870698  0.48158626763832774  0.7622392758060529  1.0000
  C   C25       1.0  0.4434099996490275  0.4736309683880295  0.8017740370145602  1.0000
  C   C26       1.0  0.4447391944121719  0.4727782432682377  0.8729552159194682  1.0000
  C   C27       1.0  0.6113207006700351  0.0107995963033787  0.6311144045422736  1.0000
  C   C28       1.0  0.575344408044522  0.33002284625250417  0.006252329320396689  1.0000
  C   C29       1.0  0.5906769418635988  0.4873111015522725  0.7972903509736042  1.0000
  C   C30       1.0  0.43749556920054283  0.47590136760351964  0.128803869131481  1.0000
  C   C31       1.0  0.43689846182209635  0.465303426783784  0.2004798876837626  1.0000
  C   C32       1.0  0.5235328378729065  0.5787616793454974  0.2007643134652142  1.0000
  C   C33       1.0  0.5242021079930551  0.5885115489198898  0.12946324697674777  1.0000
  C   C34       1.0  0.4808198322126954  0.5370558542311558  0.0914980439032149  1.0000
  Br  Br1       1.0  0.34027759990262035  0.46107926610787336  0.7586442218182228  1.0000
  Br  Br2       1.0  0.5892486979744689  0.6693404131513463  0.0840544182296696  1.0000
  Br  Br3       1.0  0.37726464906764784  0.3765064871029297  0.240243938152247  1.0000
  Br  Br4       1.0  0.4211401208514332  0.6387395181859079  0.9681818685557745  1.0000
  Br  Br5       1.0  0.691180476001584  0.5013406631875413  0.7473626440933785  1.0000
  N   N1        1.0  0.5730562906632598  0.9734680439400097  0.576515743731548  1.0000
  N   N2        1.0  0.5799496153516158  0.4179964478236828  0.016787059752644492  1.0000
  O   O1        1.0  0.500560940310862  0.5000618969617606  0.5007865677561227  1.0000
  O   O2        1.0  0.5396204595366072  0.5545064561361955  0.3389268508929462  1.0000
  O   O3        1.0  0.5522247226040662  0.42541687097309483  0.6579208941761152  1.0000
  O   O4        1.0  0.436270713986886  0.4683250547004294  0.3499591016520823  1.0000
  O   O5        1.0  0.4709268102637765  0.55082788700242  0.6547724542954114  1.0000
  O   O6        1.0  0.4452017102114495  0.6923678127665981  0.5347398946073696  1.0000
  O   O7        1.0  0.5667279701867259  0.30285855876017825  0.5446061507317452  1.0000
  O   O8        1.0  0.6836490451216048  0.5422191847232941  0.4484769163030933  1.0000
  O   O9        1.0  0.31059746366361907  0.4613968951728823  0.47352166271360113  1.0000
  O   O10       1.0  0.6944098159390535  0.4404767054788366  0.5403252104728224  1.0000
  O   O11       1.0  0.31259496934615055  0.5563857605046325  0.5526774271873549  1.0000
  O   O12       1.0  0.5349300517943903  0.6914436404928495  0.44362493114199714  1.0000
  O   O13       1.0  0.4578667640633327  0.3145935254108921  0.4675930944867801  1.0000
