data_image0
_chemical_formula_structural       Mn4H32C48N8O16
_chemical_formula_sum              "Mn4 H32 C48 N8 O16"
_cell_length_a       10.311058201
_cell_length_b       10.330343984207955
_cell_length_c       10.9524
_cell_angle_alpha    90.0
_cell_angle_beta     90.0
_cell_angle_gamma    107.9615040074635

_space_group_name_H-M_alt    "P 1"
_space_group_IT_number       1

loop_
  _space_group_symop_operation_xyz
  'x, y, z'

loop_
  _atom_site_type_symbol
  _atom_site_label
  _atom_site_symmetry_multiplicity
  _atom_site_fract_x
  _atom_site_fract_y
  _atom_site_fract_z
  _atom_site_occupancy
  Mn  Mn1       1.0  0.9106704109885512  0.4863169458375083  0.6387120631094518  1.0000
  Mn  Mn2       1.0  0.5893287751696406  0.5136826918909776  0.1386965413973158  1.0000
  Mn  Mn3       1.0  0.08932931672810442  0.5136847271242146  0.3613043716445716  1.0000
  Mn  Mn4       1.0  0.4106642702798879  0.4863067696713371  0.8612925020999995  1.0000
  H   H1        1.0  0.8640946350017342  0.9732393735618885  0.583420985354806  1.0000
  H   H2        1.0  0.6359064908215827  0.026760264166597398  0.0834200723129186  1.0000
  H   H3        1.0  0.1359070590202478  0.0267592465499789  0.4165799276870814  1.0000
  H   H4        1.0  0.3640945477652977  0.9732393735618885  0.9165808407289759  1.0000
  H   H5        1.0  0.6884568469648754  0.8793805225468674  0.7479867426317525  1.0000
  H   H6        1.0  0.811543309025879  0.12061911518161848  0.24798674263175263  1.0000
  H   H7        1.0  0.31154225195687246  0.12061911518161848  0.25201234432636  1.0000
  H   H8        1.0  0.18845869939356422  0.8793805225468674  0.7520132573682475  1.0000
  H   H9        1.0  0.5953266698796612  0.0391436407739434  0.8636317154231037  1.0000
  H   H10       1.0  0.9046738271487483  0.9608539617213054  0.3636308023812163  1.0000
  H   H11       1.0  0.4046740543097584  0.960854979337924  0.1363691976187837  1.0000
  H   H12       1.0  0.0953275524757871  0.0391436407739434  0.6363691976187837  1.0000
  H   H13       1.0  0.6750125009923309  0.288554350185052  0.8057138161498827  1.0000
  H   H14       1.0  0.8249889658686413  0.7114432523101968  0.3057147291917772  1.0000
  H   H15       1.0  0.3249885375945425  0.7114452875434267  0.19428527080822278  1.0000
  H   H16       1.0  0.1750136979859107  0.2885553678016706  0.6942807055987714  1.0000
  H   H17       1.0  0.1758985098043979  0.6914694733596676  0.0317437274022154  1.0000
  H   H18       1.0  0.3241046689684167  0.3085342348352782  0.5317419013184335  1.0000
  H   H19       1.0  0.8241057260374235  0.3085342348352782  0.9682626638910179  1.0000
  H   H20       1.0  0.6758905506230803  0.6914654028932006  0.4682617508491305  1.0000
  H   H21       1.0  0.04825110876889482  0.8563966336444508  0.0895876702823131  1.0000
  H   H22       1.0  0.4517478762762154  0.1436060569338835  0.5895858441985311  1.0000
  H   H23       1.0  0.9517438497055579  0.1435958807677196  0.9104150688433563  1.0000
  H   H24       1.0  0.548249911775315  0.8563956160278323  0.4104123297176869  1.0000
  H   H25       1.0  0.857846796648232  0.8714197077552442  0.9516453014864298  1.0000
  H   H26       1.0  0.6421498210499266  0.1285778947400118  0.4516453014864297  1.0000
  H   H27       1.0  0.142148422943265  0.1285799299732417  0.04836474197436049  1.0000
  H   H28       1.0  0.3578489901145758  0.8714176725220071  0.5483583506811271  1.0000
  H   H29       1.0  0.8011958557495049  0.7205804319106051  0.7680362295022078  1.0000
  H   H30       1.0  0.6988020461786705  0.2794181882012623  0.2680362295022078  1.0000
  H   H31       1.0  0.19881294149787007  0.2794192058178808  0.23195555312077687  1.0000
  H   H32       1.0  0.3011947720403043  0.7205834847604535  0.7319655965815741  1.0000
  C   C1        1.0  0.9598091281897254  0.2413064106765503  0.5103511559110316  1.0000
  C   C2        1.0  0.5401910544412232  0.7586901742020871  0.0103447646177983  1.0000
  C   C3        1.0  0.04019028512947643  0.7586942446685541  0.48964245279573504  1.0000
  C   C4        1.0  0.45981118845505614  0.24131963969256282  0.9896470180051863  1.0000
  C   C5        1.0  0.8601770743484847  0.1785713638800885  0.6118412402761066  1.0000
  C   C6        1.0  0.639825362345043  0.8214262386151673  0.11184215331799412  1.0000
  C   C7        1.0  0.13983038538847134  0.8214333619314829  0.38815602059822407  1.0000
  C   C8        1.0  0.36016152307144716  0.1785652581803845  0.8881441510536519  1.0000
  C   C9        1.0  0.8200240215892478  0.0390235620131847  0.6357638508454784  1.0000
  C   C10       1.0  0.6799771308742706  0.9609730228654528  0.1357620247616964  1.0000
  C   C11       1.0  0.17997830122764213  0.9609770933319198  0.3642370621964162  1.0000
  C   C12       1.0  0.3200193995874443  0.0390245796298032  0.8642398013220856  1.0000
  C   C13       1.0  0.7236494738214817  0.9878899999910047  0.7274022132135443  1.0000
  C   C14       1.0  0.7763513376043818  0.0121086201208627  0.2274022132135443  1.0000
  C   C15       1.0  0.2763502805353824  0.0121086201208627  0.2725977867864557  1.0000
  C   C16       1.0  0.22364873114992892  0.9878910176076232  0.7725986998283503  1.0000
  C   C17       1.0  0.6703854497111124  0.0764626949543299  0.7915927102735479  1.0000
  C   C18       1.0  0.8296185856098859  0.923536942774156  0.2915936233154355  1.0000
  C   C19       1.0  0.3296165587083237  0.923536942774156  0.20840728972645187  1.0000
  C   C20       1.0  0.1703863323072383  0.0764626949543299  0.708407289726452  1.0000
  C   C21       1.0  0.7156105277845342  0.21444031438182518  0.7615983711332674  1.0000
  C   C22       1.0  0.7843893138087664  0.7855583057300422  0.2615983711332674  1.0000
  C   C23       1.0  0.28438954096978364  0.7855593233466607  0.2384016288667326  1.0000
  C   C24       1.0  0.21561914240095348  0.21444336723167373  0.7384043679924018  1.0000
  C   C25       1.0  0.12467451134376262  0.5216160310339504  0.8363107629378064  1.0000
  C   C26       1.0  0.3753274098392367  0.47838360669452845  0.3363080238121299  1.0000
  C   C27       1.0  0.8753032512616129  0.47838360669452845  0.1636773675176215  1.0000
  C   C28       1.0  0.6246901159012025  0.5216160310339504  0.6636965413973215  1.0000
  C   C29       1.0  0.050436025996695825  0.6194995557676037  0.8754610861546296  1.0000
  C   C30       1.0  0.4495655807888568  0.3804990643442636  0.3754601731127423  1.0000
  C   C31       1.0  0.9495570194528326  0.3804899057947111  0.1245243051751217  1.0000
  C   C32       1.0  0.5504300064805037  0.6194954853011438  0.6245516964318298  1.0000
  C   C33       1.0  0.09030198892175889  0.7011093555686756  0.978682297943827  1.0000
  C   C34       1.0  0.4096951097386281  0.2988872293099618  0.478684124027609  1.0000
  C   C35       1.0  0.90970494329612  0.2989187754250722  0.0213286585588577  1.0000
  C   C36       1.0  0.5902966248406827  0.7011042674855901  0.5213268324750757  1.0000
  C   C37       1.0  0.02034041493035231  0.7924414645246927  0.0086008546072094  1.0000
  C   C38       1.0  0.4796563160521785  0.2075602084370303  0.508599941565322  1.0000
  C   C39       1.0  0.9796639274722735  0.20755003227085922  0.9914073627698059  1.0000
  C   C40       1.0  0.5203408165642429  0.7924424821413041  0.49140279756035443  1.0000
  C   C41       1.0  0.9145657624222209  0.8005589922752705  0.9326421606223291  1.0000
  C   C42       1.0  0.5854347079659803  0.1994416630698339  0.4326403345385472  1.0000
  C   C43       1.0  0.0854245813662615  0.1994436983030639  0.0673477959168736  1.0000
  C   C44       1.0  0.4145663839013025  0.800551868958955  0.5673660567546861  1.0000
  C   C45       1.0  0.8814971125076028  0.7158281623111051  0.8307603812862964  1.0000
  C   C46       1.0  0.6185040133157074  0.2841714754173807  0.3307603812862965  1.0000
  C   C47       1.0  0.1184889842727657  0.2841796163503147  0.1692542273839521  1.0000
  C   C48       1.0  0.3815041284965588  0.7158291799277237  0.6692524013001702  1.0000
  N   N1        1.0  0.8089591070162784  0.2645345275669442  0.6742933055768603  1.0000
  N   N2        1.0  0.6910397647444525  0.7354640925449232  0.1742933055768603  1.0000
  N   N3        1.0  0.1910396775080159  0.7354640925449232  0.3257085205069217  1.0000
  N   N4        1.0  0.3089581032276811  0.2645284218672472  0.8257066944231397  1.0000
  N   N5        1.0  0.9469226853345205  0.6259146109186204  0.802637778021257  1.0000
  N   N6        1.0  0.5530777850536879  0.3740860444264769  0.3026341258536931  1.0000
  N   N7        1.0  0.05307706902234341  0.3740840091932469  0.1973576567692916  1.0000
  N   N8        1.0  0.4469360425529487  0.6259298751678699  0.697362221978743  1.0000
  O   O1        1.0  0.018786489764288202  0.17109493459796  0.45406851466345444  1.0000
  O   O2        1.0  0.4812164012512739  0.8289047031305187  0.9540694277053419  1.0000
  O   O3        1.0  0.98121654176812  0.828898597430822  0.5459296592527636  1.0000
  O   O4        1.0  0.5187849250928522  0.171099005064427  0.0459333114203275  1.0000
  O   O5        1.0  0.972480191603232  0.368351774791968  0.4897319309009873  1.0000
  O   O6        1.0  0.5275218774124468  0.6316509157863663  0.9897246265658666  1.0000
  O   O7        1.0  0.027508319080936906  0.6316387043869653  0.5102580256382154  1.0000
  O   O8        1.0  0.47249944773763997  0.368357880491665  0.010237938716628  1.0000
  O   O9        1.0  0.2238436734833087  0.5163295127107403  0.9029966034841692  1.0000
  O   O10       1.0  0.2761431246967447  0.4836619840848115  0.4029984295679512  1.0000
  O   O11       1.0  0.7761729090647691  0.48366707216789  0.0970024834739434  1.0000
  O   O12       1.0  0.7238282700389506  0.5163264598608919  0.597013439976628  1.0000
  O   O13       1.0  0.0845938488987557  0.4547555664738141  0.7388106716336154  1.0000
  O   O14       1.0  0.4154164064592507  0.5452522121876058  0.2388097585917208  1.0000
  O   O15       1.0  0.9154033636382765  0.5452379655549748  0.2611838501150459  1.0000
  O   O16       1.0  0.5846044710923692  0.4547708307230636  0.7611938935758361  1.0000
