data_image0
_chemical_formula_structural       Zn8H56C56N16O10
_chemical_formula_sum              "Zn8 H56 C56 N16 O10"
_cell_length_a       11.565608042002374
_cell_length_b       11.56560628200076
_cell_length_c       26.009978723006913
_cell_angle_alpha    90.00004093201235
_cell_angle_beta     90.00007298264451
_cell_angle_gamma    89.99999303964589

_space_group_name_H-M_alt    "P 1"
_space_group_IT_number       1

loop_
  _space_group_symop_operation_xyz
  'x, y, z'

loop_
  _atom_site_type_symbol
  _atom_site_label
  _atom_site_symmetry_multiplicity
  _atom_site_fract_x
  _atom_site_fract_y
  _atom_site_fract_z
  _atom_site_occupancy
  Zn  Zn1       1.0  0.5991637143833516  0.5991641741185063  0.7920493560402877  1.0000
  Zn  Zn2       1.0  0.4008360646440893  0.40083649421586653  0.7920492682529672  1.0000
  Zn  Zn3       1.0  0.4008362025334549  0.5991637845949143  0.2920492752114257  1.0000
  Zn  Zn4       1.0  0.5991638763484987  0.4008360805822021  0.29204929998524426  1.0000
  Zn  Zn5       1.0  0.40083593239499743  0.5991632539966647  0.7079508072811225  1.0000
  Zn  Zn6       1.0  0.5991636062094939  0.40083554998363996  0.707950447587109  1.0000
  Zn  Zn7       1.0  0.5991628794669097  0.5991637049956254  0.2079508390132858  1.0000
  Zn  Zn8       1.0  0.40083609435954065  0.4008360250926232  0.20795036675838935  1.0000
  H   H1        1.0  0.9119220430481007  0.7283203921483193  0.8121240684306131  1.0000
  H   H2        1.0  0.8199381843314485  0.6477064125244852  0.8536980735263601  1.0000
  H   H3        1.0  0.9685598489563604  0.6103516769528596  0.8472486619693671  1.0000
  H   H4        1.0  0.08807692873713081  0.2716803084325434  0.8121241465684081  1.0000
  H   H5        1.0  0.18006004167412468  0.3522934902048291  0.8536982294823973  1.0000
  H   H6        1.0  0.031440087875743906  0.38964821541619443  0.8472483609761314  1.0000
  H   H7        1.0  0.2716800109824434  0.9119221639721501  0.3121242758324031  1.0000
  H   H8        1.0  0.35229321769688227  0.819939120061264  0.35369794363305834  1.0000
  H   H9        1.0  0.38964791513065217  0.9685599421712257  0.3472485300456682  1.0000
  H   H10       1.0  0.7283192606578481  0.08807773345175463  0.3121242745378653  1.0000
  H   H11       1.0  0.64770530816309  0.180061708775952  0.353698310279384  1.0000
  H   H12       1.0  0.6103514569240076  0.031440011673510106  0.3472488282709563  1.0000
  H   H13       1.0  0.08807758805141219  0.7283203424339818  0.6878761359269845  1.0000
  H   H14       1.0  0.18006059192162377  0.6477071494796081  0.6463021052181119  1.0000
  H   H15       1.0  0.0314397964638431  0.6103515777026659  0.6527515049067109  1.0000
  H   H16       1.0  0.9119210285308338  0.2716801585654096  0.6878759127030848  1.0000
  H   H17       1.0  0.8199387704402881  0.35229414937133907  0.6463018554022355  1.0000
  H   H18       1.0  0.9685595843359849  0.3896480022429571  0.6527513513092772  1.0000
  H   H19       1.0  0.7283207623174944  0.9119220364258286  0.18787709116717372  1.0000
  H   H20       1.0  0.6477075667675364  0.819939800166118  0.14630224073793133  1.0000
  H   H21       1.0  0.6103528512927028  0.9685597725447507  0.15275208601343596  1.0000
  H   H22       1.0  0.2716798833852039  0.08807852604939369  0.1878756773025927  1.0000
  H   H23       1.0  0.35229382471377585  0.18006069552745882  0.1463016707863218  1.0000
  H   H24       1.0  0.38964769399512994  0.03143986887675251  0.15275149004200736  1.0000
  H   H25       1.0  0.08807690106464608  0.27167807779894565  0.18787719223885097  1.0000
  H   H26       1.0  0.1800598951483039  0.35229205742252406  0.1463028026750308  1.0000
  H   H27       1.0  0.031439095155782595  0.38964765762667514  0.15275221423240742  1.0000
  H   H28       1.0  0.9119220153743585  0.7283207554118434  0.18787634516581164  1.0000
  H   H29       1.0  0.8199380378043698  0.647707573639302  0.1463018777837561  1.0000
  H   H30       1.0  0.9685597208671554  0.6103519837949423  0.15275136182254562  1.0000
  H   H31       1.0  0.7283197977610029  0.0880780352392918  0.6878758314340987  1.0000
  H   H32       1.0  0.6477057264135623  0.18006107914992958  0.6463017791653698  1.0000
  H   H33       1.0  0.6103518936122895  0.031439392407328605  0.6527511927528666  1.0000
  H   H34       1.0  0.27167968345314353  0.9119224657597443  0.6878758327283949  1.0000
  H   H35       1.0  0.35229277131545433  0.8199384904355969  0.6463017969866274  1.0000
  H   H36       1.0  0.38964748718698416  0.9685601875379889  0.6527512789953036  1.0000
  H   H37       1.0  0.9119213560595298  0.27168072141009253  0.3121239713394104  1.0000
  H   H38       1.0  0.8199383521893752  0.3522930497318912  0.3536980020481479  1.0000
  H   H39       1.0  0.968559147647703  0.3896486215091386  0.34724898682736693  1.0000
  H   H40       1.0  0.08807705094766051  0.7283209052787214  0.3121241945630615  1.0000
  H   H41       1.0  0.1800610383025543  0.6477069144723799  0.3536978673965764  1.0000
  H   H42       1.0  0.0314402244074614  0.610352196968485  0.3472487559572244  1.0000
  H   H43       1.0  0.27167904642649887  0.0880781627859264  0.8121234005671527  1.0000
  H   H44       1.0  0.35229224197585296  0.18006126367790637  0.8536978665287053  1.0000
  H   H45       1.0  0.38964782208378773  0.031439562034371704  0.847248405720997  1.0000
  H   H46       1.0  0.7283190607252408  0.9119216731617926  0.8121240454958355  1.0000
  H   H47       1.0  0.6477059840291162  0.8199395036836779  0.8536980520123549  1.0000
  H   H48       1.0  0.6103521147483092  0.9685603303346896  0.8472486172244944  1.0000
  H   H49       1.0  0.6311371838513081  0.631137548516378  0.9516219728544615  1.0000
  H   H50       1.0  0.36886305136498276  0.36886424077401625  0.9516214722943205  1.0000
  H   H51       1.0  0.36886318537359136  0.6311371628796678  0.4516218738791409  1.0000
  H   H52       1.0  0.6311390789622137  0.3688620939881986  0.4516215221732764  1.0000
  H   H53       1.0  0.36886159441367977  0.6311381052231938  0.5483785850934737  1.0000
  H   H54       1.0  0.631136623369855  0.3688630363317741  0.5483782333873535  1.0000
  H   H55       1.0  0.6311384866437493  0.6311385523353722  0.048379019440908215  1.0000
  H   H56       1.0  0.3688626248915341  0.36886351532734113  0.04837774994435051  1.0000
  C   C1        1.0  0.891955111492237  0.6408636839066943  0.826304375734239  1.0000
  C   C2        1.0  0.862471088504826  0.5606162368284017  0.7833750615238986  1.0000
  C   C3        1.0  0.1080473593635531  0.3591353101877814  0.8263056463956104  1.0000
  C   C4        1.0  0.13752953035750437  0.4393878761031047  0.7833756054801598  1.0000
  C   C5        1.0  0.3591358753671229  0.8919534806079527  0.3263046243412973  1.0000
  C   C6        1.0  0.43938494723653326  0.8624729287995337  0.28337458039982283  1.0000
  C   C7        1.0  0.6408625721798343  0.10804471032890463  0.32630457975508886  1.0000
  C   C8        1.0  0.5606133775815251  0.1375269224436266  0.28337488410288364  1.0000
  C   C9        1.0  0.10804798875148691  0.6408653382506914  0.6736942629661942  1.0000
  C   C10       1.0  0.13753029221696517  0.5606127687513054  0.7166243206143293  1.0000
  C   C11       1.0  0.8919531811867926  0.3591368692344118  0.6736955940669419  1.0000
  C   C12       1.0  0.8624701358173751  0.43938518452949904  0.716624891544001  1.0000
  C   C13       1.0  0.6408657649866427  0.8919524762811337  0.17369481397471992  1.0000
  C   C14       1.0  0.5606106442663119  0.8624685446560251  0.21662292620811746  1.0000
  C   C15       1.0  0.3591357048056452  0.10804806341381831  0.1736946094938645  1.0000
  C   C16       1.0  0.4393866250892344  0.13753206399620416  0.2166239300462323  1.0000
  C   C17       1.0  0.10804642651521587  0.3591330567737074  0.17369496259654946  1.0000
  C   C18       1.0  0.1375313141323531  0.4393891501765098  0.21662273893720402  1.0000
  C   C19       1.0  0.8919541786458894  0.6408648890241722  0.17369522980703073  1.0000
  C   C20       1.0  0.8624685491203863  0.5606140523732961  0.2166241173182968  1.0000
  C   C21       1.0  0.6408630687433217  0.1080467186032337  0.6736950984571309  1.0000
  C   C22       1.0  0.5606139968744658  0.13752727041195809  0.7166255268664303  1.0000
  C   C23       1.0  0.35913637193115727  0.8919554888825943  0.6736955275111642  1.0000
  C   C24       1.0  0.4393847018976231  0.8624724121356524  0.7166256076308174  1.0000
  C   C25       1.0  0.8919544138869496  0.35913745485709814  0.3263043064301528  1.0000
  C   C26       1.0  0.8624729750547288  0.4393857011938423  0.28337463324939455  1.0000
  C   C27       1.0  0.10804489829120462  0.6408633299768313  0.32630412873124476  1.0000
  C   C28       1.0  0.1375270790282244  0.5606141500492116  0.28337483125380203  1.0000
  C   C29       1.0  0.3591340437567965  0.10804772293031562  0.8263052932917816  1.0000
  C   C30       1.0  0.43938916447707743  0.1375325191879995  0.7833771810585192  1.0000
  C   C31       1.0  0.6408641039377941  0.8919521357976237  0.8263054977726371  1.0000
  C   C32       1.0  0.5606131836542048  0.8624681352152449  0.7833761772202692  1.0000
  C   C33       1.0  0.574136324086382  0.5741288848315379  0.9732697930896638  1.0000
  C   C34       1.0  0.425874348605916  0.4258660221702116  0.973268574059688  1.0000
  C   C35       1.0  0.42586497857833905  0.574126762999889  0.4732693419974226  1.0000
  C   C36       1.0  0.5741312952167447  0.4258690701106503  0.4732689760514433  1.0000
  C   C37       1.0  0.42586851352675126  0.5741302644682166  0.5267311312149163  1.0000
  C   C38       1.0  0.5741270484735921  0.4258647898862265  0.5267307652654979  1.0000
  C   C39       1.0  0.5741306479324281  0.5741307185106024  0.0267315332077374  1.0000
  C   C40       1.0  0.4258729956149168  0.4258652619515787  0.02673069864640351  1.0000
  C   C41       1.0  0.9367369193785605  0.5000002738486558  0.7500001898427657  1.0000
  C   C42       1.0  0.06327311502701602  0.5000003269407929  0.74999994197497  1.0000
  C   C43       1.0  0.5000016820892412  0.936731002817652  0.24999818840047544  1.0000
  C   C44       1.0  0.4999974119441148  0.06326793017985471  0.24999843410690661  1.0000
  C   C45       1.0  0.06326894178993568  0.49999819609602986  0.24999837955386542  1.0000
  C   C46       1.0  0.9367318815087627  0.5000024661668405  0.24999862742210877  1.0000
  C   C47       1.0  0.49999726202120337  0.0632691963935343  0.7500015343979529  1.0000
  C   C48       1.0  0.500001532166884  0.9367322690316444  0.7500016731593464  1.0000
  C   C49       1.0  0.5000008920630635  0.5000030055577157  0.8885345890761017  1.0000
  C   C50       1.0  0.500000109802464  0.500000457943031  0.9461609337935005  1.0000
  C   C51       1.0  0.49999931272552806  0.5000008747140257  0.388534564527049  1.0000
  C   C52       1.0  0.500001124362271  0.49999832709919206  0.4461609092451796  1.0000
  C   C53       1.0  0.5000004960179182  0.49999932449741646  0.6114655427394525  1.0000
  C   C54       1.0  0.49999868438122513  0.5000010074796749  0.5538391980211871  1.0000
  C   C55       1.0  0.4999980520478288  0.49999892291894094  0.11146551819042833  1.0000
  C   C56       1.0  0.5000014282057706  0.5000014705334621  0.05383917347376871  1.0000
  N   N1        1.0  0.751933865440641  0.5372711535658254  0.7705272650725451  1.0000
  N   N2        1.0  0.24807017522175562  0.4627286155647283  0.7705274947141164  1.0000
  N   N3        1.0  0.46272828242754827  0.751933100227305  0.27052757702423247  1.0000
  N   N4        1.0  0.5372708702951671  0.24806673037918614  0.27052751813233306  1.0000
  N   N5        1.0  0.2480709766452378  0.5372711512190238  0.7294724941177435  1.0000
  N   N6        1.0  0.7519338112806864  0.46272855196422585  0.7294722407919566  1.0000
  N   N7        1.0  0.537270781027857  0.7519278749272474  0.22947258573817217  1.0000
  N   N8        1.0  0.4627282543260378  0.24807016046683114  0.2294724845409136  1.0000
  N   N9        1.0  0.2480711310974968  0.46272904564530404  0.2294728421954275  1.0000
  N   N10       1.0  0.7519287688892434  0.5372715836467705  0.22947261255214363  1.0000
  N   N11       1.0  0.5372706616829533  0.24806623435129901  0.7294721457740607  1.0000
  N   N12       1.0  0.4627280738158319  0.7519334688323127  0.7294725891339198  1.0000
  N   N13       1.0  0.7519340198929002  0.46272904799210574  0.2705276131502289  1.0000
  N   N14       1.0  0.24806599746275282  0.5372716472472234  0.270527866474545  1.0000
  N   N15       1.0  0.4627290277155823  0.24807232428419465  0.7705275215283297  1.0000
  N   N16       1.0  0.5372715544174582  0.7519291741120286  0.770527622725446  1.0000
  O   O1        1.0  0.5698121449681182  0.5698125535649012  0.8665788157803291  1.0000
  O   O2        1.0  0.4301887117575588  0.4301890991194455  0.8665783695098883  1.0000
  O   O3        1.0  0.43018885321075123  0.5698104312079055  0.366578751610021  1.0000
  O   O4        1.0  0.5698114387377018  0.43018782442180753  0.3665787690507828  1.0000
  O   O5        1.0  0.43018837000639815  0.5698106455247895  0.6334217226832735  1.0000
  O   O6        1.0  0.569810955532745  0.43018890337096144  0.6334213556563386  1.0000
  O   O7        1.0  0.5698119616177307  0.5698119647242168  0.1334213532891653  1.0000
  O   O8        1.0  0.4301876637752713  0.4301885102791232  0.1334212914863073  1.0000
  O   O9        1.0  0.4999989647750951  0.5000003003947813  0.7499996814393272  1.0000
  O   O10       1.0  0.49999997933529977  0.5000007634489876  0.25000004135924314  1.0000
