data_image0
_chemical_formula_structural       Al4H20C48I8O20
_chemical_formula_sum              "Al4 H20 C48 I8 O20"
_cell_length_a       6.689580174873444
_cell_length_b       20.548515787991153
_cell_length_c       23.49245702984717
_cell_angle_alpha    102.64209441450419
_cell_angle_beta     89.99969251805676
_cell_angle_gamma    89.9982762568399

_space_group_name_H-M_alt    "P 1"
_space_group_IT_number       1

loop_
  _space_group_symop_operation_xyz
  'x, y, z'

loop_
  _atom_site_type_symbol
  _atom_site_label
  _atom_site_symmetry_multiplicity
  _atom_site_fract_x
  _atom_site_fract_y
  _atom_site_fract_z
  _atom_site_occupancy
  Al  Al1       1.0  0.7059634378400046  0.24846948628744767  0.7493817599853684  1.0000
  Al  Al2       1.0  0.29402751397014265  0.7515245191384352  0.25060898635040013  1.0000
  Al  Al3       1.0  0.20597226664495588  0.25152485098306704  0.7506110537273329  1.0000
  Al  Al4       1.0  0.794038118512887  0.7484663997830125  0.24937836928140908  1.0000
  H   H1        1.0  0.7595804088870037  0.5954573968648375  0.34334869782072985  1.0000
  H   H2        1.0  0.24040904749578826  0.4045468421912943  0.6566521285987932  1.0000
  H   H3        1.0  0.25956759437873694  0.9045513896559213  0.15664673038533283  1.0000
  H   H4        1.0  0.7404188724005037  0.09545075190806067  0.8433514698779374  1.0000
  H   H5        1.0  0.8178747348623362  0.4614976484513633  0.4696264181016474  1.0000
  H   H6        1.0  0.18211322657786866  0.5385079889513734  0.530376159095141  1.0000
  H   H7        1.0  0.3178818625919392  0.03851628117447349  0.03037923069886969  1.0000
  H   H8        1.0  0.6821075932879876  0.961498065142173  0.9696251410282526  1.0000
  H   H9        1.0  0.6651022352753629  0.3216476712921903  0.6009653614599911  1.0000
  H   H10       1.0  0.3348707771775565  0.678365149217072  0.3990407435685057  1.0000
  H   H11       1.0  0.1651168304675821  0.1783658517785014  0.8990346846930136  1.0000
  H   H12       1.0  0.8348905636927596  0.8216501262361646  0.10096838996498289  1.0000
  H   H13       1.0  0.22789002178538448  0.4728083548441545  0.5821316824792715  1.0000
  H   H14       1.0  0.7720859804829557  0.5272025161604077  0.41787441087475924  1.0000
  H   H15       1.0  0.7279034415068465  0.027202212188889466  0.9178807510071109  1.0000
  H   H16       1.0  0.27208900414491666  0.9728107141158658  0.0821257902205872  1.0000
  H   H17       1.0  0.4617823328738168  0.337260607262131  0.7723462619395107  1.0000
  H   H18       1.0  0.538207124052711  0.6627317651844109  0.22765580025406243  1.0000
  H   H19       1.0  0.9618043137470309  0.162735973164196  0.7276600134761466  1.0000
  H   H20       1.0  0.038194112368294994  0.8372555725095124  0.272344657359234  1.0000
  C   C1        1.0  0.4540758088251237  0.1794048241895752  0.8198607262257268  1.0000
  C   C2        1.0  0.5459121530663464  0.8205930164519019  0.18013178547625586  1.0000
  C   C3        1.0  0.954076386385182  0.32059417025217124  0.680135137162736  1.0000
  C   C4        1.0  0.04592203954112509  0.6794036703338051  0.3198573745199622  1.0000
  C   C5        1.0  0.4534859549172196  0.16350251030888777  0.6615133912932476  1.0000
  C   C6        1.0  0.5465064917496889  0.8364917706841623  0.33847648548698567  1.0000
  C   C7        1.0  0.9534808147805549  0.3364936299646216  0.8384807147533377  1.0000
  C   C8        1.0  0.0465265805249899  0.6635004391520168  0.161508289529344  1.0000
  C   C9        1.0  0.0514877836334833  0.6147819615566732  0.10720779079450439  1.0000
  C   C10       1.0  0.9485255912385283  0.3852087801639712  0.8927855495720819  1.0000
  C   C11       1.0  0.5514622040147543  0.8852070584592154  0.39278609479375587  1.0000
  C   C12       1.0  0.44856014022034435  0.11477800322973049  0.6072159235806395  1.0000
  C   C13       1.0  0.06132145306212778  0.5271235638692816  0.0082176218084484  1.0000
  C   C14       1.0  0.9386694991361892  0.47286109604927157  0.9917787314031653  1.0000
  C   C15       1.0  0.5613666949802436  0.9728438216498672  0.4917817613537564  1.0000
  C   C16       1.0  0.43874384732941246  0.02711328848462806  0.5082314151822657  1.0000
  C   C17       1.0  0.9460133801009859  0.4267367147863366  0.9387700670314556  1.0000
  C   C18       1.0  0.053980561686159896  0.5732514842777618  0.06122282254973749  1.0000
  C   C19       1.0  0.4460854916672402  0.07324172429296989  0.5612370280207271  1.0000
  C   C20       1.0  0.5540056170835541  0.9267238626060675  0.438770972075794  1.0000
  C   C21       1.0  0.048271902479761784  0.6401420436906021  0.3661149444187969  1.0000
  C   C22       1.0  0.9517145642277355  0.35986139031349035  0.6338845703839694  1.0000
  C   C23       1.0  0.5482726001523943  0.8598640466677238  0.133882975356606  1.0000
  C   C24       1.0  0.45172283571709926  0.1401399384389704  0.8661148003240838  1.0000
  C   C25       1.0  0.8884550929240261  0.5980331796043287  0.3721248827803619  1.0000
  C   C26       1.0  0.11152987889184368  0.40197040242684773  0.6278772465179684  1.0000
  C   C27       1.0  0.3884564702957575  0.9019737729218348  0.12787616607359095  1.0000
  C   C28       1.0  0.6115374707612133  0.09802834694514219  0.8721259544565  1.0000
  C   C29       1.0  0.8965900443767297  0.5601603449957224  0.41410182623808106  1.0000
  C   C30       1.0  0.10339193748357899  0.4398479410969003  0.5859016380259304  1.0000
  C   C31       1.0  0.3965901030210687  0.9398522000377056  0.08590053343288419  1.0000
  C   C32       1.0  0.6033963633102674  0.06015790796405434  0.9141064265374083  1.0000
  C   C33       1.0  0.058294746006495785  0.5643976395310872  0.453600268629664  1.0000
  C   C34       1.0  0.9416857408287668  0.43561388849842336  0.5464045218455594  1.0000
  C   C35       1.0  0.558297352161908  0.9356148067025175  0.04640418690213719  1.0000
  C   C36       1.0  0.44168761917924815  0.06439811964187911  0.9536023543393309  1.0000
  C   C37       1.0  0.21346236219824985  0.609563509729945  0.4479762156907796  1.0000
  C   C38       1.0  0.7865211142036869  0.3904509846375744  0.5520307705401705  1.0000
  C   C39       1.0  0.7134735758952645  0.8904523544129361  0.05203248990262918  1.0000
  C   C40       1.0  0.2865233542376017  0.10956290283053247  0.9479736296679917  1.0000
  C   C41       1.0  0.21186305990212156  0.6453945107720713  0.40408171932988063  1.0000
  C   C42       1.0  0.7881204168115943  0.35461388121118637  0.5959221811663866  1.0000
  C   C43       1.0  0.7118663991324893  0.8546178107521809  0.09592435725852509  1.0000
  C   C44       1.0  0.28813053116130044  0.14539464981393724  0.9040782607630786  1.0000
  C   C45       1.0  0.063327902495466  0.5251254697525666  0.4980583022685677  1.0000
  C   C46       1.0  0.9366600588394787  0.47488249861266496  0.5019438532794069  1.0000
  C   C47       1.0  0.5633246178087531  0.9748859062591394  0.001943950632913503  1.0000
  C   C48       1.0  0.436658858499996  0.02513098284883601  0.9980608719264339  1.0000
  I   I1        1.0  0.7168693664939311  0.45430268793581513  0.0503309446577376  1.0000
  I   I2        1.0  0.28310065776211246  0.5456802139387662  0.9496601708551109  1.0000
  I   I3        1.0  0.21692089611864418  0.04567616186818668  0.4496805227278671  1.0000
  I   I4        1.0  0.7832404716359348  0.954281649554325  0.5503134914637897  1.0000
  I   I5        1.0  0.4591117881942138  0.6258933513356267  0.5062023091382101  1.0000
  I   I6        1.0  0.5408388006684745  0.3741320976553268  0.4938117123409994  1.0000
  I   I7        1.0  0.9591423042130883  0.8741247658096896  0.9938076431028761  1.0000
  I   I8        1.0  0.0408650895845284  0.12589856490874496  0.0061976535715047  1.0000
  O   O1        1.0  0.2848479216874437  0.18389306737474698  0.6834933412012915  1.0000
  O   O2        1.0  0.7151460198818214  0.8161005144410397  0.3164956601889344  1.0000
  O   O3        1.0  0.7848360976709542  0.3161017678159012  0.8165026746305625  1.0000
  O   O4        1.0  0.21516531822834387  0.6838911569114998  0.18348762961643664  1.0000
  O   O5        1.0  0.6242385669848217  0.1913840391612282  0.7998426326505024  1.0000
  O   O6        1.0  0.37576135410666467  0.808607804931114  0.2001472295297688  1.0000
  O   O7        1.0  0.1242205109979011  0.3086090038448005  0.7001495981567557  1.0000
  O   O8        1.0  0.8757689459675646  0.69138478979189  0.29984027571175176  1.0000
  O   O9        1.0  0.6255196599942109  0.1812039818224349  0.6823523418168803  1.0000
  O   O10       1.0  0.3744877350994641  0.8187941342910533  0.31763930029651277  1.0000
  O   O11       1.0  0.12550759068002998  0.31879786238332736  0.8176421150261816  1.0000
  O   O12       1.0  0.8745042890422352  0.68119910928543  0.18235082703225905  1.0000
  O   O13       1.0  0.7850201278303572  0.3028230604939779  0.6965623128118705  1.0000
  O   O14       1.0  0.21498128815341025  0.6971675753915393  0.30343059134174405  1.0000
  O   O15       1.0  0.28502116351511114  0.1971731290199017  0.8034332748783654  1.0000
  O   O16       1.0  0.7149593243721667  0.8028188848520371  0.1965552815499335  1.0000
  O   O17       1.0  0.45759608795962947  0.2900380476487356  0.7547040353943968  1.0000
  O   O18       1.0  0.5424098123932594  0.709956910784932  0.2452906370289014  1.0000
  O   O19       1.0  0.957592423280957  0.20995970127599856  0.7452948570045592  1.0000
  O   O20       1.0  0.042398528545277286  0.7900334774246288  0.254698497989544  1.0000
