data_image0
_chemical_formula_structural       Hg4H36C44N12Cl8O4
_chemical_formula_sum              "Hg4 H36 C44 N12 Cl8 O4"
_cell_length_a       7.414919042621944
_cell_length_b       11.035022426125554
_cell_length_c       15.71098459465484
_cell_angle_alpha    89.999569375701
_cell_angle_beta     93.26285394079224
_cell_angle_gamma    90.00035242544291

_space_group_name_H-M_alt    "P 1"
_space_group_IT_number       1

loop_
  _space_group_symop_operation_xyz
  'x, y, z'

loop_
  _atom_site_type_symbol
  _atom_site_label
  _atom_site_symmetry_multiplicity
  _atom_site_fract_x
  _atom_site_fract_y
  _atom_site_fract_z
  _atom_site_occupancy
  Hg  Hg1       1.0  0.39888346504437777  0.8323986269617406  0.02727450676115949  1.0000
  Hg  Hg2       1.0  0.6011170931635165  0.3324022463812425  0.47272288629800113  1.0000
  Hg  Hg3       1.0  0.6011226812023125  0.1676042979178334  0.9727259842680238  1.0000
  Hg  Hg4       1.0  0.3988851098842546  0.6675997722714512  0.5272800826140623  1.0000
  H   H1        1.0  0.10662539315737259  0.4158516218269525  0.8682936308117772  1.0000
  H   H2        1.0  0.8933527751481164  0.9158607279872013  0.6316946938707912  1.0000
  H   H3        1.0  0.8933724057536949  0.5841485844492594  0.13170098532880553  1.0000
  H   H4        1.0  0.10662357768366348  0.08414854028331578  0.3683033687819232  1.0000
  H   H5        1.0  0.3120681836965317  0.5437452531991979  0.9646051469645869  1.0000
  H   H6        1.0  0.6879151848920202  0.04377105574225479  0.5353915995459317  1.0000
  H   H7        1.0  0.6879283459864638  0.45625042203605665  0.035391356976901996  1.0000
  H   H8        1.0  0.31207202660231564  0.9562463683941399  0.4646079253054224  1.0000
  H   H9        1.0  0.9136564698955639  0.808891370980149  0.9709712322620303  1.0000
  H   H10       1.0  0.08634847485637921  0.3089047846256392  0.5290340388929806  1.0000
  H   H11       1.0  0.08634440969660058  0.1911061166381742  0.029032350256038293  1.0000
  H   H12       1.0  0.9136630735827042  0.6910963278532448  0.4709665461531855  1.0000
  H   H13       1.0  0.34259678789744197  0.8129362783583356  0.8217313397859909  1.0000
  H   H14       1.0  0.6574174553856339  0.31294323195390206  0.6782696154640675  1.0000
  H   H15       1.0  0.6574158399811337  0.18707117759596767  0.1782628977724414  1.0000
  H   H16       1.0  0.3425794810192074  0.6870560680545805  0.3217364449299111  1.0000
  H   H17       1.0  0.04277741424691331  0.8305599367184442  0.7476371323658668  1.0000
  H   H18       1.0  0.9572356830065444  0.3305564752416145  0.7523649831473307  1.0000
  H   H19       1.0  0.9572391297090945  0.16944661305468856  0.25235399021687493  1.0000
  H   H20       1.0  0.04276252258386389  0.6694373875453575  0.24763918947132166  1.0000
  H   H21       1.0  0.9225993338785373  0.664495540161269  0.651518907969276  1.0000
  H   H22       1.0  0.0773974907007897  0.16448652182499046  0.8484838013684523  1.0000
  H   H23       1.0  0.0774094050054472  0.33550557232548067  0.3484790816809067  1.0000
  H   H24       1.0  0.9226018484986513  0.8355000913456008  0.15151529799226174  1.0000
  H   H25       1.0  0.11276912405776332  0.48141414897020235  0.6305341307376792  1.0000
  H   H26       1.0  0.8872167357903251  0.9814053199614603  0.8694628943636358  1.0000
  H   H27       1.0  0.8872396690537415  0.5185869635099533  0.3694651331074183  1.0000
  H   H28       1.0  0.1127837370413403  0.018579480826836893  0.1305311317251991  1.0000
  H   H29       1.0  0.41288940270687396  0.4623278714286838  0.7053567852346274  1.0000
  H   H30       1.0  0.5870935932792491  0.9623312763172074  0.7946402907915838  1.0000
  H   H31       1.0  0.5871115853480617  0.5376714285877994  0.29464934566860274  1.0000
  H   H32       1.0  0.41290558325696486  0.0376598679015814  0.2053549859727894  1.0000
  H   H33       1.0  0.6361878850292867  0.5409593057797366  0.7991952031800762  1.0000
  H   H34       1.0  0.3638131524072321  0.040960276900868585  0.7008050487207027  1.0000
  H   H35       1.0  0.3638142095634365  0.45904271288615206  0.20080521734218584  1.0000
  H   H36       1.0  0.636186295278165  0.959033585901963  0.2991965990112249  1.0000
  C   C1        1.0  0.0624805827713857  0.5039463857530462  0.8906162109317959  1.0000
  C   C2        1.0  0.937503607004949  0.003957035618242299  0.6093763037106754  1.0000
  C   C3        1.0  0.9375172703672093  0.4960538205165717  0.10937967940368758  1.0000
  C   C4        1.0  0.062480903346809696  0.9960504202503339  0.3906231741600904  1.0000
  C   C5        1.0  0.17674175892612004  0.5747635947173961  0.9442679065211833  1.0000
  C   C6        1.0  0.8232445482150935  0.07478158681590229  0.5557280907129678  1.0000
  C   C7        1.0  0.82325612131077  0.4252329867262007  0.05572862092105879  1.0000
  C   C8        1.0  0.17674136693739936  0.9252313062828251  0.44427268484184157  1.0000
  C   C9        1.0  0.9583530064368732  0.7211165023366062  0.9479770633720148  1.0000
  C   C10       1.0  0.0416482173224182  0.2211303951930219  0.5520222403154518  1.0000
  C   C11       1.0  0.04164906102663931  0.27888189150986153  0.052022720062090896  1.0000
  C   C12       1.0  0.9583539043956649  0.7788743420866096  0.44797881729728317  1.0000
  C   C13       1.0  0.8456564533362398  0.6502358669913589  0.8934173934495816  1.0000
  C   C14       1.0  0.1543386550944632  0.15024240156646582  0.6065796316574534  1.0000
  C   C15       1.0  0.15434285881128318  0.3497652454734065  0.10658106877647808  1.0000
  C   C16       1.0  0.8456580644041694  0.8497578046740909  0.3934213319545704  1.0000
  C   C17       1.0  0.6628536369358431  0.6965318795790622  0.8640274239288174  1.0000
  C   C18       1.0  0.3371446217220111  0.1965325170868225  0.635970684774932  1.0000
  C   C19       1.0  0.3371417049105929  0.303471045279167  0.13597287907570174  1.0000
  C   C20       1.0  0.6628549344377531  0.8034658767312163  0.3640335113351795  1.0000
  C   C21       1.0  0.39800092152761113  0.6363742736848436  0.7691665914378305  1.0000
  C   C22       1.0  0.6019955005320908  0.13637681967797013  0.7308324396210679  1.0000
  C   C23       1.0  0.6020052518367008  0.36362955739711117  0.23083453668647982  1.0000
  C   C24       1.0  0.397999895495481  0.8636152307054985  0.2691691376062622  1.0000
  C   C25       1.0  0.2924589440261228  0.7404544387460844  0.7801175101952393  1.0000
  C   C26       1.0  0.70754384942164  0.24045663031807143  0.7198829919661163  1.0000
  C   C27       1.0  0.7075483358798423  0.2595530171909529  0.21987790754577213  1.0000
  C   C28       1.0  0.2924516550725684  0.759538138669242  0.2801211336440516  1.0000
  C   C29       1.0  0.12277126249194482  0.7494085295901481  0.7377032415536391  1.0000
  C   C30       1.0  0.8772289604511203  0.2494073512854627  0.7622984418472284  1.0000
  C   C31       1.0  0.8772373408503001  0.25059892635285763  0.2622915625930062  1.0000
  C   C32       1.0  0.1227651121440445  0.7505856052977221  0.23770374897214444  1.0000
  C   C33       1.0  0.0559690194096234  0.6570935016481412  0.6840059711474848  1.0000
  C   C34       1.0  0.9440250138262128  0.15708750296633406  0.8159960920706764  1.0000
  C   C35       1.0  0.9440383960496774  0.3429103294496726  0.3159926320900937  1.0000
  C   C36       1.0  0.05597162426929711  0.8428982039932437  0.18400296028620736  1.0000
  C   C37       1.0  0.1620581293078374  0.5540400706881101  0.6726876888486115  1.0000
  C   C38       1.0  0.8379308376247679  0.05403532651062188  0.8273116473031406  1.0000
  C   C39       1.0  0.8379439652848931  0.4459619479777785  0.3273127316736506  1.0000
  C   C40       1.0  0.16206971655590513  0.9459512866791328  0.1726842900733985  1.0000
  C   C41       1.0  0.3320638343223692  0.5432264471716692  0.7149642560753476  1.0000
  C   C42       1.0  0.6679236085039336  0.043228694923328696  0.7850332007651557  1.0000
  C   C43       1.0  0.6679397463853293  0.45677466527471466  0.285039373439588  1.0000
  C   C44       1.0  0.33207292115586995  0.9567615430778459  0.2149633031902809  1.0000
  N   N1        1.0  0.8976126271103767  0.5418412393159001  0.8647270378094446  1.0000
  N   N2        1.0  0.10237596465384508  0.041843632041413094  0.6352659899613327  1.0000
  N   N3        1.0  0.10238660369973472  0.4581607793644406  0.13526951312193347  1.0000
  N   N4        1.0  0.8976113009984347  0.9581574803861412  0.36473480912678713  1.0000
  N   N5        1.0  0.12450516579745137  0.6829280470377198  0.9726796337336693  1.0000
  N   N6        1.0  0.8754903029115653  0.18294836681128146  0.5273191348340588  1.0000
  N   N7        1.0  0.8754981708632171  0.3170676282042705  0.027318261918139786  1.0000
  N   N8        1.0  0.1245064166334515  0.817062713897435  0.47268182875006187  1.0000
  N   N9        1.0  0.5693453201625616  0.6202140464434576  0.8101104569984939  1.0000
  N   N10       1.0  0.4306496406099214  0.12021722133989236  0.6898892705973407  1.0000
  N   N11       1.0  0.43065680154006003  0.3797870660134562  0.18989060062354207  1.0000
  N   N12       1.0  0.5693431356627343  0.8797757352340196  0.3101141709138559  1.0000
  Cl  Cl1       1.0  0.5514814789845204  0.6763154893258514  0.10308771578620929  1.0000
  Cl  Cl2       1.0  0.44852190785033497  0.17631383898994096  0.3969130972997945  1.0000
  Cl  Cl3       1.0  0.448530096583788  0.32368924797246007  0.896913506348106  1.0000
  Cl  Cl4       1.0  0.5514734882274864  0.8236899920673721  0.6030884798973019  1.0000
  Cl  Cl5       1.0  0.2607556396313484  0.9910374901476828  0.9467703868537425  1.0000
  Cl  Cl6       1.0  0.7392493456128975  0.4910370370912743  0.5532301033636244  1.0000
  Cl  Cl7       1.0  0.7392572051418399  0.008966340957513799  0.05322894749362209  1.0000
  Cl  Cl8       1.0  0.26074364760462027  0.5089640753073609  0.446778434906271  1.0000
  O   O1        1.0  0.6096241065923991  0.7971956869317933  0.8883570367810163  1.0000
  O   O2        1.0  0.39037638843259975  0.2971958946076042  0.6116412158560676  1.0000
  O   O3        1.0  0.3903740447936742  0.20280361309585962  0.11164586162878007  1.0000
  O   O4        1.0  0.6096220611893699  0.7027997805610295  0.3883686906350191  1.0000
