data_image0
_chemical_formula_structural       Zn4H76C100N12O16
_chemical_formula_sum              "Zn4 H76 C100 N12 O16"
_cell_length_a       12.012354602732895
_cell_length_b       14.657705691637435
_cell_length_c       15.720577944004361
_cell_angle_alpha    90.00001282799685
_cell_angle_beta     90.0000812187036
_cell_angle_gamma    99.36720864597675

_space_group_name_H-M_alt    "P 1"
_space_group_IT_number       1

loop_
  _space_group_symop_operation_xyz
  'x, y, z'

loop_
  _atom_site_type_symbol
  _atom_site_label
  _atom_site_symmetry_multiplicity
  _atom_site_fract_x
  _atom_site_fract_y
  _atom_site_fract_z
  _atom_site_occupancy
  Zn  Zn1       1.0  0.8782330525527937  0.4799197377920378  0.5087318226968235  1.0000
  Zn  Zn2       1.0  0.12176605213778657  0.020080713432676596  0.0087312992361674  1.0000
  Zn  Zn3       1.0  0.12176768105487668  0.5200798352769382  0.4912695908647961  1.0000
  Zn  Zn4       1.0  0.878232459408778  0.9799202432616099  0.9912694782154572  1.0000
  H   H1        1.0  0.4039469956563408  0.1573640474915834  0.4671579967397362  1.0000
  H   H2        1.0  0.5960518969945311  0.3426352500584997  0.9671575495341428  1.0000
  H   H3        1.0  0.5960529055212119  0.8426355258154318  0.5328421446035704  1.0000
  H   H4        1.0  0.4039470341404723  0.6573636320315186  0.03284195569963799  1.0000
  H   H5        1.0  0.6933076894166346  0.3755659690005401  0.407827024365659  1.0000
  H   H6        1.0  0.30669233258982587  0.1244353730394323  0.9078274900662604  1.0000
  H   H7        1.0  0.30669428945908805  0.6244356781956669  0.5921743891968487  1.0000
  H   H8        1.0  0.6933075685883523  0.8755642002677391  0.09217328738597527  1.0000
  H   H9        1.0  0.49084562106859403  0.3096159469811325  0.42708955834867607  1.0000
  H   H10       1.0  0.5091536061425471  0.19038540491961697  0.9270908933707104  1.0000
  H   H11       1.0  0.5091558006031462  0.6903870833635111  0.5729105829958172  1.0000
  H   H12       1.0  0.4908460198095027  0.8096127854771566  0.0729098840812341  1.0000
  H   H13       1.0  0.3549528035036502  0.3012020815332546  0.6381135321837164  1.0000
  H   H14       1.0  0.6450476616127928  0.19879981699378393  0.13811424932507066  1.0000
  H   H15       1.0  0.6450489001447081  0.6987981827522417  0.3618866091606421  1.0000
  H   H16       1.0  0.3549507123207078  0.8012004482453036  0.8618865281264119  1.0000
  H   H17       1.0  0.3095015847801648  0.38536789852839337  0.5735904432787249  1.0000
  H   H18       1.0  0.6904968141953772  0.11463258533378713  0.07359119201034757  1.0000
  H   H19       1.0  0.6904992864399446  0.6146323659956181  0.4264103341741076  1.0000
  H   H20       1.0  0.30950322459710117  0.885367679428903  0.9264108576598955  1.0000
  H   H21       1.0  0.3039271195794696  0.2803895185299509  0.4466186342461568  1.0000
  H   H22       1.0  0.6960707629029628  0.2196090775434527  0.9466189057158514  1.0000
  H   H23       1.0  0.6960729192117724  0.7196107462324194  0.553382143206221  1.0000
  H   H24       1.0  0.30392719819135283  0.7803891133300451  0.05338187173518349  1.0000
  H   H25       1.0  0.2108993669286363  0.24018225502540244  0.5292605794729042  1.0000
  H   H26       1.0  0.7890997778691897  0.25981820645422005  0.029260829394544892  1.0000
  H   H27       1.0  0.7891016419045298  0.7598187009538079  0.4707401979800706  1.0000
  H   H28       1.0  0.2108984584512541  0.7401813673296685  0.9707399480567886  1.0000
  H   H29       1.0  0.21941863610746987  0.16902090337174513  0.6542483478751179  1.0000
  H   H30       1.0  0.7805821425060557  0.3309782371555201  0.1542473312774533  1.0000
  H   H31       1.0  0.78058209749895  0.8309786696969114  0.3457517934686436  1.0000
  H   H32       1.0  0.21941775867025368  0.6690213361511751  0.8457515378479953  1.0000
  H   H33       1.0  0.20878646136176823  0.054389384392472095  0.7688910618286613  1.0000
  H   H34       1.0  0.7912137087974002  0.4456098136405798  0.26889008079954374  1.0000
  H   H35       1.0  0.7912151046741442  0.945610188437982  0.23110971562447696  1.0000
  H   H36       1.0  0.20878605476522683  0.55438906821076  0.7311081522168265  1.0000
  H   H37       1.0  0.3169450333979213  0.9230201540130378  0.7602165940751816  1.0000
  H   H38       1.0  0.6830543804369993  0.576978426197229  0.26021605462494074  1.0000
  H   H39       1.0  0.6830547301671926  0.0769787278389416  0.23978418337690494  1.0000
  H   H40       1.0  0.31694468831168604  0.42302114734814467  0.7397840867179113  1.0000
  H   H41       1.0  0.4414962570977251  0.9106993651485948  0.6340578124719156  1.0000
  H   H42       1.0  0.5585030478776359  0.5892998434969597  0.134057776758155  1.0000
  H   H43       1.0  0.5585035064667636  0.08929951670322109  0.3659423288712417  1.0000
  H   H44       1.0  0.44149685329929156  0.4106997298098917  0.8659417284762225  1.0000
  H   H45       1.0  0.5085167910370741  0.439314591390385  0.6748959925812839  1.0000
  H   H46       1.0  0.4914829135112412  0.06068732574888708  0.17489651435383277  1.0000
  H   H47       1.0  0.4914874099003725  0.5606856721806678  0.3251066932001407  1.0000
  H   H48       1.0  0.5085158800131849  0.9393108648865719  0.8251055353155151  1.0000
  H   H49       1.0  0.7112153843932773  0.5009233397201456  0.6442229363017374  1.0000
  H   H50       1.0  0.2887835208527817  0.9990779486074073  0.14422396651861644  1.0000
  H   H51       1.0  0.28878840370373376  0.4990748494849981  0.35577847726138856  1.0000
  H   H52       1.0  0.7112152726697758  0.0009202420275684997  0.8557761748239442  1.0000
  H   H53       1.0  0.8765221966925623  0.12865403872476827  0.23002829096815697  1.0000
  H   H54       1.0  0.1234781727669656  0.37134652280542474  0.730026701619721  1.0000
  H   H55       1.0  0.12347575765126345  0.8713483011182673  0.7699724864833113  1.0000
  H   H56       1.0  0.8765267229825607  0.6286530490711185  0.26997216750843467  1.0000
  H   H57       1.0  0.8812344098146238  0.24342975877432593  0.3475430691130795  1.0000
  H   H58       1.0  0.11876549441523569  0.25657155315167296  0.8475420866888328  1.0000
  H   H59       1.0  0.11876770667292648  0.7565725798767601  0.6524570722317193  1.0000
  H   H60       1.0  0.8812346819878271  0.7434294030655764  0.1524574185458363  1.0000
  H   H61       1.0  0.0645789781298305  0.29835891220821514  0.9966778001309463  1.0000
  H   H62       1.0  0.9354217746641139  0.2016410910664135  0.49667756028483  1.0000
  H   H63       1.0  0.9354196710285546  0.7016427359409503  0.0033217051029694996  1.0000
  H   H64       1.0  0.06457909655537004  0.7983591734574416  0.5033225810590736  1.0000
  H   H65       1.0  0.14849810155958207  0.4621091495635169  0.9724751902401392  1.0000
  H   H66       1.0  0.8515039935805999  0.03788945823372809  0.47247355289339765  1.0000
  H   H67       1.0  0.8515054045608181  0.5378918057007736  0.027526223323121695  1.0000
  H   H68       1.0  0.1484960452093915  0.9621108065283296  0.5275259523411293  1.0000
  H   H69       1.0  0.15773513379543402  0.5761047011894577  0.09073917628907677  1.0000
  H   H70       1.0  0.8422649189781879  0.9238944855787707  0.5907390129137582  1.0000
  H   H71       1.0  0.8422676775085377  0.42389694576822734  0.9092616011649496  1.0000
  H   H72       1.0  0.157734982199365  0.07610508772824429  0.4092611284295486  1.0000
  H   H73       1.0  0.08239670855835608  0.5271843959088116  0.23312066414826657  1.0000
  H   H74       1.0  0.9176014003218638  0.9728162456086692  0.7331205926677667  1.0000
  H   H75       1.0  0.917604300274817  0.4728165600703989  0.7668801133047152  1.0000
  H   H76       1.0  0.08239794365356799  0.027184710847258493  0.2668801847843126  1.0000
  C   C1        1.0  0.9698020493656401  0.2253003269677264  0.1435016345684232  1.0000
  C   C2        1.0  0.030195378538031982  0.27469880914497935  0.6435018321965342  1.0000
  C   C3        1.0  0.03019327007478271  0.7747013221342344  0.8564953262279713  1.0000
  C   C4        1.0  0.9698035525969714  0.7253000729450391  0.35649767303724633  1.0000
  C   C5        1.0  0.6480702522782451  0.38818626642161996  0.4657059165262891  1.0000
  C   C6        1.0  0.3519275231318133  0.1118157967010092  0.9657070647040198  1.0000
  C   C7        1.0  0.351930061739118  0.6118153812511408  0.5342948609263871  1.0000
  C   C8        1.0  0.6480730728621679  0.8881830849126117  0.0342937127485214  1.0000
  C   C9        1.0  0.5351431124313492  0.3512049736677482  0.47781482103956546  1.0000
  C   C10       1.0  0.46485482424812824  0.1487977869587027  0.9778154632287508  1.0000
  C   C11       1.0  0.46485733919907785  0.6487973654602115  0.5221859564132598  1.0000
  C   C12       1.0  0.5351457717452348  0.8512010946547478  0.022184678114854296  1.0000
  C   C13       1.0  0.4810372091838317  0.3673634269715719  0.5539761154964467  1.0000
  C   C14       1.0  0.5189603190426623  0.13263704733098078  0.053976682137658785  1.0000
  C   C15       1.0  0.5189639372623984  0.6326382204628299  0.4460246619566845  1.0000
  C   C16       1.0  0.4810395821355157  0.8673625259761906  0.9460240953145769  1.0000
  C   C17       1.0  0.3597607446144763  0.32880722746682517  0.5727826062350373  1.0000
  C   C18       1.0  0.6402361255387203  0.17119394792388218  0.07278394848241727  1.0000
  C   C19       1.0  0.640241791462749  0.6711930365803127  0.4272175351097687  1.0000
  C   C20       1.0  0.35976155358022055  0.8288070090090827  0.927218101186618  1.0000
  C   C21       1.0  0.3009069442395925  0.25424222287257686  0.5122428075326154  1.0000
  C   C22       1.0  0.6990913348827162  0.24575823034465566  0.012243593085564396  1.0000
  C   C23       1.0  0.6990937893668345  0.7457573501960723  0.4877573338111389  1.0000
  C   C24       1.0  0.3009069014377204  0.7542413434392331  0.9877571843657689  1.0000
  C   C25       1.0  0.3391745359194046  0.10768767125365028  0.5781125286042793  1.0000
  C   C26       1.0  0.6608260939494527  0.39231143124150236  0.07811139511229467  1.0000
  C   C27       1.0  0.6608252276438404  0.892311210597853  0.42188634052101986  1.0000
  C   C28       1.0  0.3391729747973641  0.6076881423033953  0.9218868379037771  1.0000
  C   C29       1.0  0.26946376106482717  0.1135431732124701  0.6497167291584134  1.0000
  C   C30       1.0  0.7305371463084213  0.3864566565063042  0.14971566997320448  1.0000
  C   C31       1.0  0.7305360024984253  0.8864557086390262  0.3502821399668861  1.0000
  C   C32       1.0  0.26946275486726984  0.6135429168002277  0.8502825630433148  1.0000
  C   C33       1.0  0.26272048118332236  0.048041911066953  0.7141335615524368  1.0000
  C   C34       1.0  0.737279581997491  0.4519572596131026  0.21413252341479694  1.0000
  C   C35       1.0  0.7372784499516739  0.9519569710230655  0.2858659436813368  1.0000
  C   C36       1.0  0.2627201815657543  0.5480416222384008  0.7858663457105023  1.0000
  C   C37       1.0  0.3242429563330447  0.9743089722265381  0.7095346244868777  1.0000
  C   C38       1.0  0.6757581609566257  0.5256902736450613  0.2095340663701677  1.0000
  C   C39       1.0  0.6757579148870647  0.025691292297473498  0.2904661529659549  1.0000
  C   C40       1.0  0.32424049495349283  0.4743072255348721  0.7904667110811728  1.0000
  C   C41       1.0  0.39303649243868216  0.9671156913444249  0.639878824945164  1.0000
  C   C42       1.0  0.606963656337946  0.5328835199705536  0.1398788299048306  1.0000
  C   C43       1.0  0.6069616062680722  0.0328831909841085  0.360121316397091  1.0000
  C   C44       1.0  0.3930362448402248  0.4671160533366248  0.8601219475474053  1.0000
  C   C45       1.0  0.40288313689943317  0.0330274260233878  0.574108885689064  1.0000
  C   C46       1.0  0.5971174851488072  0.4669716744721343  0.0741089710464848  1.0000
  C   C47       1.0  0.597115519009442  0.966970073156233  0.4258906195444182  1.0000
  C   C48       1.0  0.4028825536418097  0.5330285902900798  0.925891170296964  1.0000
  C   C49       1.0  0.545772107134887  0.4231747969643179  0.6145629874786918  1.0000
  C   C50       1.0  0.45422581468588413  0.07682709051385929  0.11456474448615948  1.0000
  C   C51       1.0  0.45423153659795185  0.5768268497550083  0.3854377899757892  1.0000
  C   C52       1.0  0.5457715892063106  0.9231724835085514  0.8854366690736482  1.0000
  C   C53       1.0  0.6580511135086198  0.4582463661671952  0.5982595801358029  1.0000
  C   C54       1.0  0.3419476088893488  0.041755512928560286  0.09826120812639519  1.0000
  C   C55       1.0  0.34195308742758357  0.541753897403538  0.4017418334277636  1.0000
  C   C56       1.0  0.658050489818649  0.9582433694002929  0.9017402054337182  1.0000
  C   C57       1.0  0.9758717176426399  0.1502140147611399  0.08003386158474508  1.0000
  C   C58       1.0  0.02413127565411339  0.34978439652367393  0.5800334322823488  1.0000
  C   C59       1.0  0.024109450504539595  0.8497876383922999  0.9199605547682663  1.0000
  C   C60       1.0  0.9758899934429265  0.6502137876743319  0.4199616202009507  1.0000
  C   C61       1.0  0.9869917225254594  0.4147124246547094  0.35359254029148696  1.0000
  C   C62       1.0  0.0130063910533877  0.08528819931497368  0.8535926795577637  1.0000
  C   C63       1.0  0.013014418492744493  0.5852892213492211  0.6464069649464859  1.0000
  C   C64       1.0  0.9869948997545347  0.9147099906046064  0.14640618956828888  1.0000
  C   C65       1.0  0.9787225415301463  0.353511969103586  0.2769827505217818  1.0000
  C   C66       1.0  0.021277362461425798  0.1464899990307771  0.7769822754794615  1.0000
  C   C67       1.0  0.02127485561093319  0.6464917538882062  0.7230180269295374  1.0000
  C   C68       1.0  0.9787290605340144  0.8535088809141699  0.22301786586730535  1.0000
  C   C69       1.0  0.028443268227185615  0.3838253453461391  0.19723898741030144  1.0000
  C   C70       1.0  0.9715570371735822  0.1161751998050491  0.6972382634639444  1.0000
  C   C71       1.0  0.9715539912995934  0.6161776861901415  0.8027605178230032  1.0000
  C   C72       1.0  0.028447720962880407  0.8838236806162952  0.3027606056640621  1.0000
  C   C73       1.0  0.02325785806961987  0.3181714751094517  0.1288973427039508  1.0000
  C   C74       1.0  0.9767420385883766  0.18182765299283687  0.6288972742582358  1.0000
  C   C75       1.0  0.9767364913294967  0.6818294827758319  0.8711002542007761  1.0000
  C   C76       1.0  0.023261192303408458  0.8181719193604237  0.3711015948690175  1.0000
  C   C77       1.0  0.9175398782604773  0.1998212880367092  0.22028376797140226  1.0000
  C   C78       1.0  0.08245963973311632  0.3001792688643122  0.7202827553567203  1.0000
  C   C79       1.0  0.08245488398093676  0.8001817442149675  0.7797170094784107  1.0000
  C   C80       1.0  0.9175451184039642  0.6998196115571886  0.2797167498802152  1.0000
  C   C81       1.0  0.921408063167128  0.2642232382770544  0.2868284041082346  1.0000
  C   C82       1.0  0.07859324969132327  0.23577735138840689  0.7868280099012848  1.0000
  C   C83       1.0  0.07859183125931675  0.7357804839993418  0.7131711011265762  1.0000
  C   C84       1.0  0.9214105384032011  0.7642208378160973  0.21317085922612475  1.0000
  C   C85       1.0  0.06839782465296906  0.3484757273120635  0.04827438023487929  1.0000
  C   C86       1.0  0.9316045493949119  0.1515240512571054  0.5482755287396228  1.0000
  C   C87       1.0  0.9316008245047981  0.6515259208369456  0.9517244888901075  1.0000
  C   C88       1.0  0.0683972918658853  0.8484769044834266  0.4517239764959483  1.0000
  C   C89       1.0  0.11553551207153127  0.43951408668421266  0.03499246088370708  1.0000
  C   C90       1.0  0.8844658659833298  0.06048499403274829  0.5349909947773596  1.0000
  C   C91       1.0  0.8844648019452135  0.560487560988392  0.9650076804600403  1.0000
  C   C92       1.0  0.11553500523553588  0.9395152704909435  0.4650085104576147  1.0000
  C   C93       1.0  0.12053935967285409  0.5042012991829309  0.10223936192340229  1.0000
  C   C94       1.0  0.8794626556522969  0.995799275763666  0.6022392539372203  1.0000
  C   C95       1.0  0.8794616491590757  0.49579965679595966  0.8977601433117214  1.0000
  C   C96       1.0  0.12053835318025109  0.004201680215380999  0.3977608874068324  1.0000
  C   C97       1.0  0.07849117206458092  0.4770507597227082  0.1815627558562767  1.0000
  C   C98       1.0  0.9215091027104876  0.02294977759788  0.6815625942318845  1.0000
  C   C99       1.0  0.9215073394819837  0.5229501969715784  0.8184380215953552  1.0000
  C   C100      1.0  0.07849287616460993  0.9770518695981635  0.3184381832216942  1.0000
  N   N1        1.0  0.7089292196320044  0.44058898604183117  0.524962682280467  1.0000
  N   N2        1.0  0.2910694971801248  0.059413547894983786  0.024963622737651292  1.0000
  N   N3        1.0  0.2910724840175902  0.5594112782439782  0.4750387312817422  1.0000
  N   N4        1.0  0.7089295715698042  0.9405860256507025  0.9750377908230587  1.0000
  N   N5        1.0  0.34693747174878087  0.16879626732183078  0.5121073323060725  1.0000
  N   N6        1.0  0.6530631667804911  0.33120349365697166  0.012106177582751298  1.0000
  N   N7        1.0  0.6530631242439568  0.8312026142914704  0.48789217292861037  1.0000
  N   N8        1.0  0.346935764353887  0.6687953884328836  0.9878926915421002  1.0000
  N   N9        1.0  0.47136405306517287  0.0330223206122326  0.502733684296757  1.0000
  N   N10       1.0  0.5286347646807741  0.46697674470580347  0.0027330593429865995  1.0000
  N   N11       1.0  0.5286348780704555  0.9669765614779422  0.4972664570459528  1.0000
  N   N12       1.0  0.4713643040666682  0.5330228288392503  0.9972658097820142  1.0000
  O   O1        1.0  0.8832016648120913  0.10309997377547832  0.05479554856755439  1.0000
  O   O2        1.0  0.11678921233212237  0.3968963538730391  0.5547933212280256  1.0000
  O   O3        1.0  0.11678546795892687  0.8969023691668667  0.9452077733137684  1.0000
  O   O4        1.0  0.8832120852281519  0.603097687077472  0.44520745622438795  1.0000
  O   O5        1.0  0.8944507345703626  0.4208213188531431  0.39089010174187416  1.0000
  O   O6        1.0  0.10554551179074417  0.0791779413138087  0.890889067780165  1.0000
  O   O7        1.0  0.10553765021671778  0.5791789492462557  0.6091106757041941  1.0000
  O   O8        1.0  0.8944693731045844  0.920821627702267  0.10910916524447599  1.0000
  O   O9        1.0  0.08495154709355997  0.4529289355299539  0.3770676556248702  1.0000
  O   O10       1.0  0.9150413357984988  0.047074467655633584  0.8770681281660655  1.0000
  O   O11       1.0  0.9150362872418893  0.5470685667488127  0.6229337579295375  1.0000
  O   O12       1.0  0.08496938020509497  0.952929251522569  0.12293328540138757  1.0000
  O   O13       1.0  0.0743574881659015  0.1372480081875977  0.05986044934078898  1.0000
  O   O14       1.0  0.9256352013482284  0.36274901297048245  0.5598622718045334  1.0000
  O   O15       1.0  0.9256325682200879  0.8627481104631584  0.9401307864718191  1.0000
  O   O16       1.0  0.0743653878896708  0.637254017611248  0.4401327806680726  1.0000
