data_image0
_chemical_formula_structural       Zn2H14C19N2O9
_chemical_formula_sum              "Zn2 H14 C19 N2 O9"
_cell_length_a       9.941899766929186
_cell_length_b       11.106465924038554
_cell_length_c       14.473456909511354
_cell_angle_alpha    89.40198767791071
_cell_angle_beta     94.3139667838718
_cell_angle_gamma    89.25716650653843

_space_group_name_H-M_alt    "P 1"
_space_group_IT_number       1

loop_
  _space_group_symop_operation_xyz
  'x, y, z'

loop_
  _atom_site_type_symbol
  _atom_site_label
  _atom_site_symmetry_multiplicity
  _atom_site_fract_x
  _atom_site_fract_y
  _atom_site_fract_z
  _atom_site_occupancy
  Zn  Zn1       1.0  0.6365367149167652  0.4934068500384258  0.5182704613396467  1.0000
  Zn  Zn2       1.0  0.3525752619035956  0.49900724828498266  0.49596891939500415  1.0000
  H   H1        1.0  0.2929632939286932  0.109343654308077  0.470711746246657  1.0000
  H   H2        1.0  0.9324507389152572  0.7018443293385559  0.296654518765898  1.0000
  H   H3        1.0  0.009035593437637598  0.8047778384938837  0.3766363398644472  1.0000
  H   H4        1.0  0.1915436157740302  0.8441634063488622  0.266693627696803  1.0000
  H   H5        1.0  0.028385338123435095  0.8778996767836919  0.21343478086104994  1.0000
  H   H6        1.0  0.11294256100465817  0.7423773704548112  0.18641702846959873  1.0000
  H   H7        1.0  0.587167186221407  0.09056525859634233  0.5530990718016824  1.0000
  H   H8        1.0  0.2925546858892432  0.8866466272896147  0.5005046513960565  1.0000
  H   H9        1.0  0.597021933919386  0.900377731649698  0.476222388716586  1.0000
  H   H10       1.0  0.9034910873668875  0.36392543719585285  0.6096329071739249  1.0000
  H   H11       1.0  0.8748496363757211  0.5610025075783583  0.4746827020066747  1.0000
  H   H12       1.0  0.1465474166026226  0.3814633472951598  0.5915597446549299  1.0000
  H   H13       1.0  0.1464994405807118  0.5737739305534647  0.3109048868133613  1.0000
  H   H14       1.0  0.2184136445606129  0.6781552368195918  0.39352025384611994  1.0000
  C   C1        1.0  0.4953595739146479  0.7288528198896317  0.49250154858849987  1.0000
  C   C2        1.0  0.487918249328736  0.2642717915966912  0.5207280406686436  1.0000
  C   C3        1.0  0.4793481222950503  0.5085002530623015  0.6862350656990017  1.0000
  C   C4        1.0  0.5048902419380709  0.48091926380077876  0.2270516725783409  1.0000
  C   C5        1.0  0.5017764684307905  0.485539936945294  0.14210978521845874  1.0000
  C   C6        1.0  0.49679543389039776  0.49139519350368493  0.0492958956427785  1.0000
  C   C7        1.0  0.49040189946394713  0.4972843584806342  0.9638317148739118  1.0000
  C   C8        1.0  0.4843566657752376  0.5029183907793211  0.8709990746569646  1.0000
  C   C9        1.0  0.1237383108025227  0.6419026323500745  0.36209822432608973  1.0000
  C   C10       1.0  0.029707600375402893  0.7403947151629284  0.3219150470332082  1.0000
  C   C11       1.0  0.0943219912473481  0.8048274795335004  0.24263600872361482  1.0000
  C   C12       1.0  0.4794689409742858  0.5073018581616182  0.7860152061415846  1.0000
  C   C13       1.0  0.38701347255469176  0.0627061338253725  0.49450965683279696  1.0000
  C   C14       1.0  0.49228636393797837  0.13104944558198636  0.5245083984876331  1.0000
  C   C15       1.0  0.38855658421837797  0.9320984055653412  0.4945423607960962  1.0000
  C   C16       1.0  0.49889191344138334  0.8618885641883552  0.4868688553727551  1.0000
  C   C17       1.0  0.9332431229388403  0.4327634914495846  0.5606424158119836  1.0000
  C   C18       1.0  0.07704745492159763  0.43870254113453905  0.5481870192999025  1.0000
  C   C19       1.0  0.5025768355827225  0.480869413005344  0.3267600125663962  1.0000
  N   N1        1.0  0.8393546311059975  0.4989913474325507  0.5194611370095572  1.0000
  N   N2        1.0  0.13727636611203306  0.5047934457020987  0.4895896600060753  1.0000
  O   O1        1.0  0.6067992425470976  0.6728205544429713  0.485138417406894  1.0000
  O   O2        1.0  0.38233087386146986  0.6793143744491488  0.504839989156153  1.0000
  O   O3        1.0  0.6128048767146975  0.45906848745377715  0.3743399371020359  1.0000
  O   O4        1.0  0.38770621750775547  0.5043159679725449  0.3568787390706802  1.0000
  O   O5        1.0  0.5994375361704269  0.3164051108433909  0.5431206662662476  1.0000
  O   O6        1.0  0.3759880309782915  0.31696159528392087  0.4951836305809181  1.0000
  O   O7        1.0  0.5921287872944062  0.5294846421471603  0.6535397674715426  1.0000
  O   O8        1.0  0.36717592019135026  0.48774910893614287  0.6409750999031657  1.0000
  O   O9        1.0  0.055200975815907286  0.5809749584614892  0.43571783780213025  1.0000
