data_image0
_chemical_formula_structural       Nd4H24C28S4O32
_chemical_formula_sum              "Nd4 H24 C28 S4 O32"
_cell_length_a       5.9090074777059876
_cell_length_b       10.475830127861553
_cell_length_c       18.829258435545636
_cell_angle_alpha    81.08626721685798
_cell_angle_beta     80.94376467053338
_cell_angle_gamma    73.61607037672074

_space_group_name_H-M_alt    "P 1"
_space_group_IT_number       1

loop_
  _space_group_symop_operation_xyz
  'x, y, z'

loop_
  _atom_site_type_symbol
  _atom_site_label
  _atom_site_symmetry_multiplicity
  _atom_site_fract_x
  _atom_site_fract_y
  _atom_site_fract_z
  _atom_site_occupancy
  Nd  Nd1       1.0  0.9413817389810146  0.1980784900410981  0.5310679496288911  1.0000
  Nd  Nd2       1.0  0.6707767222563559  0.3019498672034757  0.968919312809547  1.0000
  Nd  Nd3       1.0  0.058629149133508654  0.8019342754327496  0.4689325872346259  1.0000
  Nd  Nd4       1.0  0.3292257740177932  0.6980376879105634  0.031077487948543613  1.0000
  H   H1        1.0  0.5539068328687974  0.2641942277854525  0.6614354004368934  1.0000
  H   H2        1.0  0.47994506573854784  0.23570340019095687  0.838618811001858  1.0000
  H   H3        1.0  0.44610516681274975  0.7358044204696058  0.33856306265691677  1.0000
  H   H4        1.0  0.5200881395185349  0.764245959092868  0.1613763876458023  1.0000
  H   H5        1.0  0.416831476577258  0.31768419430597555  0.5909233193662615  1.0000
  H   H6        1.0  0.3260145967787053  0.18209060360093332  0.9091565513445447  1.0000
  H   H7        1.0  0.5831808846547304  0.6823335688118917  0.4090765010934305  1.0000
  H   H8        1.0  0.6739799079654887  0.8178990113112546  0.0908419650154144  1.0000
  H   H9        1.0  0.4793529298549116  0.24310056736140953  0.4518273492432813  1.0000
  H   H10       1.0  0.17442029944690773  0.2567376783746766  0.04817008800198149  1.0000
  H   H11       1.0  0.5206531231904563  0.7569133284132192  0.5481773532023554  1.0000
  H   H12       1.0  0.8255864591004066  0.7432488642314324  0.9518264278613702  1.0000
  H   H13       1.0  0.6510127756949942  0.1005645381567817  0.44666004715735136  1.0000
  H   H14       1.0  0.19800556189499474  0.39932520327902665  0.05335517032516181  1.0000
  H   H15       1.0  0.34900515809371074  0.8994552388653859  0.5533399752152164  1.0000
  H   H16       1.0  0.8019895023853112  0.6006643446986785  0.9466411408473334  1.0000
  H   H17       1.0  0.9279219313917082  0.807890582105955  0.7489185554937025  1.0000
  H   H18       1.0  0.48539751440097956  0.6922698666395561  0.7510522194555947  1.0000
  H   H19       1.0  0.07207466276090453  0.1921063416145827  0.25108924006292455  1.0000
  H   H20       1.0  0.5145763880875692  0.3077267659679848  0.2489459884790861  1.0000
  H   H21       1.0  0.6205361762343811  0.8890879144252469  0.862354417171268  1.0000
  H   H22       1.0  0.3728890391307691  0.6110063042861142  0.6376712077140354  1.0000
  H   H23       1.0  0.379427847016764  0.11088686890711592  0.13765156740291934  1.0000
  H   H24       1.0  0.6270823184529419  0.3889992953210637  0.36232476389440643  1.0000
  C   C1        1.0  0.7754948968050925  0.8876945647016613  0.6079117813649972  1.0000
  C   C2        1.0  0.27169150136974457  0.6122305243058861  0.8921242413884017  1.0000
  C   C3        1.0  0.22451898205899568  0.1123223171471395  0.3920920781375656  1.0000
  C   C4        1.0  0.7282989068125262  0.3877550572419111  0.10787368720750828  1.0000
  C   C5        1.0  0.6453415490016995  0.9211376306100119  0.680386657314763  1.0000
  C   C6        1.0  0.24776874530853357  0.5788251028683078  0.8196195416147704  1.0000
  C   C7        1.0  0.3546748851497767  0.07887725048488652  0.31961743246147734  1.0000
  C   C8        1.0  0.7522196377253677  0.42116953131978363  0.18037897196720817  1.0000
  C   C9        1.0  0.7476244400851119  0.8711202564813404  0.7459153350335939  1.0000
  C   C10       1.0  0.3655241915265748  0.6289369307504344  0.7540655097537227  1.0000
  C   C11       1.0  0.2523691339208368  0.1288796696850909  0.2540921583311828  1.0000
  C   C12       1.0  0.6344503386551567  0.3710606713969042  0.2459315668876982  1.0000
  C   C13       1.0  0.5923149193723422  0.9132066107215806  0.8057238258802784  1.0000
  C   C14       1.0  0.3121969429402679  0.58682657684313  0.694286926022457  1.0000
  C   C15       1.0  0.4076602432375651  0.0867862346276027  0.19428190141436372  1.0000
  C   C16       1.0  0.6877709192549519  0.41317606065620543  0.3057106775285233  1.0000
  C   C17       1.0  0.41324745308583033  0.00042202561130010263  0.6923245615503008  1.0000
  C   C18       1.0  0.1070734596470897  0.49944517976573627  0.8077194555256497  1.0000
  C   C19       1.0  0.5867691704193158  0.9995947249986301  0.3076749740146525  1.0000
  C   C20       1.0  0.8929168613635596  0.5005534503743833  0.1922784135706763  1.0000
  C   C21       1.0  0.24898106870383427  0.06803110405848402  0.639297431100843  1.0000
  C   C22       1.0  0.9571743023775807  0.43191566560550126  0.8607661036153759  1.0000
  C   C23       1.0  0.7510386402277124  0.931990697683929  0.36070314999751935  1.0000
  C   C24       1.0  0.042813332786216955  0.5680688581317668  0.13923004852416912  1.0000
  C   C25       1.0  0.8893397741837463  0.519841025937488  0.47914932178397857  1.0000
  C   C26       1.0  0.8882555994987341  0.9801839968651009  0.020842581786304475  1.0000
  C   C27       1.0  0.11064519200128589  0.48015864886276216  0.5208498915821664  1.0000
  C   C28       1.0  0.1117330410459089  0.0198135433122957  0.9791524514785905  1.0000
  S   S1        1.0  0.3236451831920986  0.011445629056190407  0.7834508017906928  1.0000
  S   S2        1.0  0.119702975014718  0.48849978318203563  0.7165999668354176  1.0000
  S   S3        1.0  0.6763541423416797  0.9885512142838451  0.21655434532824103  1.0000
  S   S4        1.0  0.8802708962190734  0.5115026774802091  0.2833918101526365  1.0000
  O   O1        1.0  0.8728535776854333  0.9716766555053764  0.5668159058835657  1.0000
  O   O2        1.0  0.4119140075298588  0.5282355842186915  0.9331961893345806  1.0000
  O   O3        1.0  0.12716687161100984  0.028341273338021698  0.4331893732624437  1.0000
  O   O4        1.0  0.5880861095507014  0.4717558920226638  0.066797502438483  1.0000
  O   O5        1.0  0.7958690413219218  0.7732247841428759  0.5891336258009261  1.0000
  O   O6        1.0  0.15857069384094274  0.7266751785977092  0.9109133574591581  1.0000
  O   O7        1.0  0.20415592775841404  0.2267950381818835  0.4108678881332608  1.0000
  O   O8        1.0  0.8414361224808857  0.2733054342369385  0.08908623835096556  1.0000
  O   O9        1.0  0.3176960901801279  0.049927702124691116  0.5718053099347388  1.0000
  O   O10       1.0  0.9400316189168764  0.4501043922396804  0.9282514334200087  1.0000
  O   O11       1.0  0.6823342204659538  0.9500911263983198  0.42819653522955997  1.0000
  O   O12       1.0  0.05996405979673371  0.5498861761361978  0.0717454219591502  1.0000
  O   O13       1.0  0.045293283712219176  0.14324621661570802  0.6586589976899972  1.0000
  O   O14       1.0  0.8482066342683657  0.3566669027904297  0.8413944650881859  1.0000
  O   O15       1.0  0.9547238462895107  0.8567706704932548  0.34134503468718697  1.0000
  O   O16       1.0  0.15180004573932862  0.6433116370956781  0.1586029829335303  1.0000
  O   O17       1.0  0.7877499864389896  0.4312615600802444  0.4755117224113903  1.0000
  O   O18       1.0  0.6944816316108773  0.06885274287076021  0.024544241291536668  1.0000
  O   O19       1.0  0.21225493529394157  0.5687442125514508  0.5244899450679271  1.0000
  O   O20       1.0  0.3055232865138535  0.9311237214367266  0.9754509725044613  1.0000
  O   O21       1.0  0.8277005200500581  0.6421595020997729  0.4514461338004878  1.0000
  O   O22       1.0  0.9210124767080001  0.8578594006625692  0.04851322362470256  1.0000
  O   O23       1.0  0.17230564093203066  0.3578552775739965  0.5485546160395884  1.0000
  O   O24       1.0  0.0789799953826106  0.14212528354007503  0.9514882143265453  1.0000
  O   O25       1.0  0.5764970571174859  0.286682645208657  0.6092966446871059  1.0000
  O   O26       1.0  0.47320570171667936  0.21298964053920594  0.8907399186130293  1.0000
  O   O27       1.0  0.42351963166739626  0.713342158979657  0.3907036342194062  1.0000
  O   O28       1.0  0.5267819144325682  0.787008968264658  0.10925724792114272  1.0000
  O   O29       1.0  0.6449178662920686  0.19352547978866136  0.4557867532426556  1.0000
  O   O30       1.0  0.29422696956049765  0.30640313271127445  0.044240717221619284  1.0000
  O   O31       1.0  0.35509184497570323  0.806493349325592  0.5442151140490098  1.0000
  O   O32       1.0  0.7057719470308755  0.6935874917831412  0.9557579865320847  1.0000
