data_image0
_chemical_formula_structural       Cu8H28C40N24Cl4
_chemical_formula_sum              "Cu8 H28 C40 N24 Cl4"
_cell_length_a       9.262921610111407
_cell_length_b       10.47225775400092
_cell_length_c       11.268477886727432
_cell_angle_alpha    90.00002960289032
_cell_angle_beta     105.1031135098026
_cell_angle_gamma    89.99995536353958

_space_group_name_H-M_alt    "P 1"
_space_group_IT_number       1

loop_
  _space_group_symop_operation_xyz
  'x, y, z'

loop_
  _atom_site_type_symbol
  _atom_site_label
  _atom_site_symmetry_multiplicity
  _atom_site_fract_x
  _atom_site_fract_y
  _atom_site_fract_z
  _atom_site_occupancy
  Cu  Cu1       1.0  0.0944066233928069  0.41675166053683194  0.4013279860728786  1.0000
  Cu  Cu2       1.0  0.4055928976152217  0.9167517133815293  0.5986720136935517  1.0000
  Cu  Cu3       1.0  0.9055941097501546  0.5832484795476772  0.5986733217504252  1.0000
  Cu  Cu4       1.0  0.5944067173690968  0.08324938160722441  0.4013290620467842  1.0000
  Cu  Cu5       1.0  0.29657320084158567  0.2898734522574813  0.205798222092632  1.0000
  Cu  Cu6       1.0  0.20342641758472976  0.7898737534663524  0.7942017368423322  1.0000
  Cu  Cu7       1.0  0.7034264141434646  0.7101257329234301  0.7942028536473983  1.0000
  Cu  Cu8       1.0  0.7965742968901353  0.21012734152159848  0.2057977921820467  1.0000
  H   H1        1.0  0.3947298485742223  0.45230167635536833  0.4103367691202848  1.0000
  H   H2        1.0  0.1052696358031042  0.952304798488214  0.5896623526876823  1.0000
  H   H3        1.0  0.6052708565686159  0.547694644112724  0.5896618705037824  1.0000
  H   H4        1.0  0.8947288423548444  0.04769725140430841  0.4103367121705972  1.0000
  H   H5        1.0  0.5368546822820335  0.43530238446570013  0.2547619326165815  1.0000
  H   H6        1.0  0.9631469553501403  0.9353015227012306  0.7452372389620834  1.0000
  H   H7        1.0  0.4631460135258364  0.5646968007139178  0.7452358176084033  1.0000
  H   H8        1.0  0.036853759125094095  0.0646986173827955  0.2547622900621391  1.0000
  H   H9        1.0  0.34976394113687087  0.8581167438319354  0.348684367799251  1.0000
  H   H10       1.0  0.1502356342251474  0.3581177441550665  0.6513165024971883  1.0000
  H   H11       1.0  0.6502367920068225  0.1418814864447313  0.6513169400237474  1.0000
  H   H12       1.0  0.8497639714249415  0.6418843057373705  0.3486836838437598  1.0000
  H   H13       1.0  0.49337606289948605  0.8435667803339513  0.1943882272017063  1.0000
  H   H14       1.0  0.006625769285214701  0.34356605573009347  0.8056139919778289  1.0000
  H   H15       1.0  0.5066246702438376  0.1564324048466403  0.8056130806214483  1.0000
  H   H16       1.0  0.9933749545242493  0.6564331294502495  0.19438642644578163  1.0000
  H   H17       1.0  0.5187322025463814  0.7882742357301284  0.9994196214866378  1.0000
  H   H18       1.0  0.9812695573096021  0.28827273812442666  0.0005803921753723542  1.0000
  H   H19       1.0  0.48126962075325946  0.21172590435332947  0.0005792502211719071  1.0000
  H   H20       1.0  0.018730039007714097  0.7117264470560016  0.9994189047655695  1.0000
  H   H21       1.0  0.7257994755201266  0.45198924374324173  0.1787961791913872  1.0000
  H   H22       1.0  0.7741988321599038  0.9519895103984978  0.8212058591063496  1.0000
  H   H23       1.0  0.27419903064051704  0.5480099414382381  0.8212055538650489  1.0000
  H   H24       1.0  0.22579964599877658  0.048010629686182006  0.1787932057516173  1.0000
  H   H25       1.0  0.8155051169907424  0.4925795298448108  0.967264861563251  1.0000
  H   H26       1.0  0.6844931501888354  0.9925822910212788  0.03273630039797844  1.0000
  H   H27       1.0  0.18449450732817496  0.507419655336342  0.032737103576316415  1.0000
  H   H28       1.0  0.3155042004769797  0.007419758871329  0.9672616429776255  1.0000
  C   C1        1.0  0.4148495558978809  0.5376041783028427  0.36195551606500226  1.0000
  C   C2        1.0  0.08515024688883699  0.0376061716522074  0.638043472286256  1.0000
  C   C3        1.0  0.585151149244588  0.4623930970691815  0.6380431235592141  1.0000
  C   C4        1.0  0.9148493494273848  0.9623958782399883  0.36195582465514786  1.0000
  C   C5        1.0  0.2734755863408082  0.6619652175199988  0.48053528310076393  1.0000
  C   C6        1.0  0.22652412096103086  0.1619651373457032  0.5194637452716079  1.0000
  C   C7        1.0  0.7265262649604266  0.3380349225641837  0.5194662568056785  1.0000
  C   C8        1.0  0.7734754753555606  0.8380359576425745  0.48053555166963957  1.0000
  C   C9        1.0  0.35904390453147533  0.6556179160993025  0.38869855687352134  1.0000
  C   C10       1.0  0.1409546801509691  0.1556198558371449  0.6112993479738335  1.0000
  C   C11       1.0  0.6409568099448536  0.34437935927295626  0.6113009721502466  1.0000
  C   C12       1.0  0.859044906831755  0.8443812391508909  0.3886990595678697  1.0000
  C   C13       1.0  0.49639674492344443  0.5283482422792575  0.2750029765975129  1.0000
  C   C14       1.0  0.0036030743042587974  0.028349385342970403  0.7249968981744387  1.0000
  C   C15       1.0  0.5036017332359677  0.47164998799758  0.7249960882601485  1.0000
  C   C16       1.0  0.9963976401706061  0.9716517096449806  0.27500263084994  1.0000
  C   C17       1.0  0.3890795983350587  0.7649381544565017  0.3272948102582944  1.0000
  C   C18       1.0  0.110920048570776  0.2649382390446248  0.6727060300515859  1.0000
  C   C19       1.0  0.610921125474775  0.23506007581992347  0.6727056081651668  1.0000
  C   C20       1.0  0.8890795664139047  0.7350619010402113  0.32729504568859374  1.0000
  C   C21       1.0  0.5207137718073794  0.6375309757800735  0.2110979411166483  1.0000
  C   C22       1.0  0.9792870042997421  0.1375308671545383  0.7889035707498593  1.0000
  C   C23       1.0  0.47928583384381074  0.36246820940059626  0.7889022452238308  1.0000
  C   C24       1.0  0.020712601351078795  0.8624692729300563  0.21109661559077608  1.0000
  C   C25       1.0  0.46918626832101035  0.7564595102869873  0.23873604731873846  1.0000
  C   C26       1.0  0.030814503253054692  0.25645969936945784  0.7612650223457109  1.0000
  C   C27       1.0  0.5308133373298105  0.2435406297976073  0.7612641390218969  1.0000
  C   C28       1.0  0.9691862205560468  0.7435404407148098  0.23873539607805586  1.0000
  C   C29       1.0  0.5889236709037746  0.7040619204508899  0.019859462690909904  1.0000
  C   C30       1.0  0.911078162944193  0.20406291928229342  0.9801414132701325  1.0000
  C   C31       1.0  0.4110781710639628  0.2959372647291331  0.980141187815832  1.0000
  C   C32       1.0  0.08892030588025789  0.7959381757060628  0.0198567621884465  1.0000
  C   C33       1.0  0.6930149212971911  0.5251979001674272  0.10925412087998859  1.0000
  C   C34       1.0  0.8069859317261034  0.0251989225518159  0.8907464654365143  1.0000
  C   C35       1.0  0.306984693687859  0.47480128501349134  0.8907469548600346  1.0000
  C   C36       1.0  0.1930136552566211  0.9748021724362131  0.109251942105189  1.0000
  C   C37       1.0  0.73864942361746  0.5465886584763382  0.0053109404249767666  1.0000
  C   C38       1.0  0.761351422315265  0.046590724654144794  0.9946905421751424  1.0000
  C   C39       1.0  0.2613513095262334  0.4534095718003286  0.9946903673980215  1.0000
  C   C40       1.0  0.23864705584341553  0.9534094154305354  0.0053085226828244216  1.0000
  N   N1        1.0  0.1714289972060783  0.5741312842713029  0.49399938661346715  1.0000
  N   N2        1.0  0.3285707682006135  0.0741339902252491  0.5059987240933879  1.0000
  N   N3        1.0  0.8285728540962581  0.42586599110111223  0.5060021532925063  1.0000
  N   N4        1.0  0.6714299276061552  0.9258680596661435  0.49399902613205887  1.0000
  N   N5        1.0  0.5979927223367624  0.6251391351455595  0.11824089334100311  1.0000
  N   N6        1.0  0.9020069544604893  0.125139131401717  0.8817612718540389  1.0000
  N   N7        1.0  0.4020068926482878  0.3748600500353588  0.8817601823990203  1.0000
  N   N8        1.0  0.09799264185573259  0.8748629184904785  0.1182380250873649  1.0000
  N   N9        1.0  0.28755619012437716  0.7537582404476169  0.5666707476540651  1.0000
  N   N10       1.0  0.2124434373632624  0.25376003262640273  0.4333274208595769  1.0000
  N   N11       1.0  0.7124434061929462  0.2462409447328113  0.4333285492868768  1.0000
  N   N12       1.0  0.7875583766017797  0.7462420172646631  0.5666705614490013  1.0000
  N   N13       1.0  0.12061960425815238  0.613749336997067  0.5894235692292042  1.0000
  N   N14       1.0  0.37938015873211833  0.11374909041636269  0.4105772224255517  1.0000
  N   N15       1.0  0.8793811288851714  0.3862498481835174  0.41057773859395047  1.0000
  N   N16       1.0  0.6206205464088795  0.8862520045713467  0.589421417199283  1.0000
  N   N17       1.0  0.1929822549398779  0.720501853319078  0.635057854208803  1.0000
  N   N18       1.0  0.30701629859184726  0.22050354198265856  0.3649418503183171  1.0000
  N   N19       1.0  0.8070173320428466  0.2794992416689581  0.3649405533329002  1.0000
  N   N20       1.0  0.6929844158826483  0.779498507909217  0.635057678706211  1.0000
  N   N21       1.0  0.6729677326898553  0.6582009756304998  0.9495782777403647  1.0000
  N   N22       1.0  0.8270330275460082  0.1582024776970314  0.050423240778357595  1.0000
  N   N23       1.0  0.3270341279459785  0.34179725464608174  0.05042415156530921  1.0000
  N   N24       1.0  0.17296545061230964  0.8417986172915732  0.9495758240797656  1.0000
  Cl  Cl1       1.0  0.0658605552332787  0.42374532892343814  0.1903717277449601  1.0000
  Cl  Cl2       1.0  0.4341412060545835  0.9237473874497368  0.8096296278382695  1.0000
  Cl  Cl3       1.0  0.9341424142273312  0.5762519464486573  0.8096300442441448  1.0000
  Cl  Cl4       1.0  0.565858408929735  0.0762537075390242  0.19037144790205934  1.0000
