data_image0
_chemical_formula_structural       Cd2H28C36N4O14
_chemical_formula_sum              "Cd2 H28 C36 N4 O14"
_cell_length_a       8.940127960048704
_cell_length_b       11.032294296842542
_cell_length_c       11.03226871274509
_cell_angle_alpha    99.36243320203728
_cell_angle_beta     113.5689252704361
_cell_angle_gamma    113.56898483269212

_space_group_name_H-M_alt    "P 1"
_space_group_IT_number       1

loop_
  _space_group_symop_operation_xyz
  'x, y, z'

loop_
  _atom_site_type_symbol
  _atom_site_label
  _atom_site_symmetry_multiplicity
  _atom_site_fract_x
  _atom_site_fract_y
  _atom_site_fract_z
  _atom_site_occupancy
  Cd  Cd1       1.0  0.7500004967168366  0.8800715037420729  0.11992818214875461  1.0000
  Cd  Cd2       1.0  0.2499986438907058  0.11992817041165438  0.8800711259275006  1.0000
  H   H1        1.0  0.7245796325846356  0.4396644907075569  0.034663329319649015  1.0000
  H   H2        1.0  0.775421233009631  0.9653375107374917  0.5603370977599698  1.0000
  H   H3        1.0  0.2754214686368925  0.5603362443481927  0.9653395048297426  1.0000
  H   H4        1.0  0.2245810861717104  0.03466324713769349  0.43966431537425177  1.0000
  H   H5        1.0  0.2102393035395523  0.7487040591595786  0.03439271924830934  1.0000
  H   H6        1.0  0.2897604178781209  0.9656073938765956  0.2512944451226603  1.0000
  H   H7        1.0  0.7897610773216214  0.2512956049453905  0.9656097016417179  1.0000
  H   H8        1.0  0.7102387271881909  0.034392273703495804  0.7487057697193862  1.0000
  H   H9        1.0  0.4676524400358417  0.46498835422777773  0.8499754596052327  1.0000
  H   H10       1.0  0.032346718308168924  0.1500238254807087  0.5350117647986182  1.0000
  H   H11       1.0  0.5323471981711522  0.5350102717945974  0.15002201419649452  1.0000
  H   H12       1.0  0.9676543739958348  0.8499769227223127  0.4649892558191909  1.0000
  H   H13       1.0  0.4843487481955436  0.3584692981318939  0.6442822253075065  1.0000
  H   H14       1.0  0.01565069506860792  0.35571671454111004  0.6415309116280455  1.0000
  H   H15       1.0  0.5156489383149959  0.6415282538411803  0.35571353595266697  1.0000
  H   H16       1.0  0.9843496813337963  0.6442829561374951  0.35847060249619017  1.0000
  H   H17       1.0  0.4996697972231703  0.7188579221379284  0.5261164602869074  1.0000
  H   H18       1.0  0.00033158691529438204  0.4738824999416453  0.2811421795012664  1.0000
  H   H19       1.0  0.5003330150988531  0.28114179417953983  0.47388221180699464  1.0000
  H   H20       1.0  0.9996656153720879  0.5261160804418594  0.7188581363308018  1.0000
  H   H21       1.0  0.48139044019357163  0.8081363540965469  0.7383608033436531  1.0000
  H   H22       1.0  0.01861004861549283  0.2616386968464397  0.19186331389772698  1.0000
  H   H23       1.0  0.5186118656114757  0.19186442349955263  0.2616378894932012  1.0000
  H   H24       1.0  0.9813878695734747  0.7383609610614953  0.8081365084279072  1.0000
  H   H25       1.0  0.861772814524656  0.0752140874090017  0.9794502493886913  1.0000
  H   H26       1.0  0.638227239202422  0.020549845478981903  0.9247858049482859  1.0000
  H   H27       1.0  0.13822755296022401  0.9247855964168821  0.0205494512039692  1.0000
  H   H28       1.0  0.3617719014051205  0.9794498286747455  0.07521350312796223  1.0000
  C   C1        1.0  0.9124139601479939  0.7172672449903316  0.07517509868594634  1.0000
  C   C2        1.0  0.5875868011507921  0.9248249221414114  0.2827332431736026  1.0000
  C   C3        1.0  0.08758397141726708  0.2827323931966888  0.9248274439370546  1.0000
  C   C4        1.0  0.4124135707928502  0.0751747551108295  0.717267364184849  1.0000
  C   C5        1.0  0.9617505974874021  0.6072389572366461  0.03865525503132262  1.0000
  C   C6        1.0  0.5382502071649852  0.9613458252360726  0.3927610317176118  1.0000
  C   C7        1.0  0.038250508192888395  0.39276177124546763  0.9613484858838532  1.0000
  C   C8        1.0  0.46175088068024905  0.03865492954059141  0.607239082134413  1.0000
  C   C9        1.0  0.8449449914370747  0.4661670088045966  0.018836364997113726  1.0000
  C   C10       1.0  0.6550574349393231  0.9811672147823103  0.5338353325081827  1.0000
  C   C11       1.0  0.15505756388146358  0.5338358484317993  0.9811700159683598  1.0000
  C   C12       1.0  0.344944373266273  0.0188346109451416  0.4661651946031996  1.0000
  C   C13       1.0  0.11724754937633737  0.6401150003339567  0.019500761275764954  1.0000
  C   C14       1.0  0.3827552476319412  0.9805023093339641  0.3598858213790733  1.0000
  C   C15       1.0  0.8827547876400532  0.3598857312466706  0.9805042789216076  1.0000
  C   C16       1.0  0.6172465650324243  0.019499509819844708  0.6401156124980931  1.0000
  C   C17       1.0  0.4802131039669392  0.5163625971201996  0.7756405255610305  1.0000
  C   C18       1.0  0.01978512750309142  0.2243569543250672  0.483635889124173  1.0000
  C   C19       1.0  0.5197853029039549  0.48363602580366205  0.2243556489585004  1.0000
  C   C20       1.0  0.9802145240801895  0.7756416519763932  0.5163643049749213  1.0000
  C   C21       1.0  0.4887529956614499  0.46009554540718506  0.6589203963216548  1.0000
  C   C22       1.0  0.011245252639980843  0.3410778809615992  0.5399049342356792  1.0000
  C   C23       1.0  0.5112441798733444  0.5399030744181558  0.34107447891567233  1.0000
  C   C24       1.0  0.9887546127866856  0.6589228575692732  0.46009569386572485  1.0000
  C   C25       1.0  0.4964784971207124  0.5291857403984892  0.5629645148976793  1.0000
  C   C26       1.0  0.0035194757949669245  0.4370338626962679  0.4708135749588181  1.0000
  C   C27       1.0  0.5035204162671647  0.47081182124674104  0.43703163887889934  1.0000
  C   C28       1.0  0.9964777309511775  0.562964711113601  0.5291876476390344  1.0000
  C   C29       1.0  0.494365058351562  0.6572944838597506  0.5935008204068097  1.0000
  C   C30       1.0  0.005635964500314142  0.40649911072787154  0.3427050339702761  1.0000
  C   C31       1.0  0.5056365270931238  0.3427052227855683  0.40649745917068714  1.0000
  C   C32       1.0  0.994361953688653  0.5935005471800566  0.6572947883553583  1.0000
  C   C33       1.0  0.48524379375721344  0.7108141770306063  0.710546018860761  1.0000
  C   C34       1.0  0.014756220198606304  0.28945260079348867  0.2891847256570515  1.0000
  C   C35       1.0  0.514755839991011  0.2891844555654047  0.28945054817517507  1.0000
  C   C36       1.0  0.985241693531599  0.7105470636880824  0.7108141899027914  1.0000
  N   N1        1.0  0.47919500608148274  0.6411589890020082  0.801501182762678  1.0000
  N   N2        1.0  0.020804671505800336  0.19849800926278502  0.35884014587465174  1.0000
  N   N3        1.0  0.5208046321255183  0.3588396370203668  0.1984962910390423  1.0000
  N   N4        1.0  0.9791944735605042  0.8015016583172994  0.6411600689673876  1.0000
  O   O1        1.0  0.8223832307401153  0.6993725813408744  0.1421874393069019  1.0000
  O   O2        1.0  0.6776154931422839  0.8578112119380067  0.3006278283270802  1.0000
  O   O3        1.0  0.17761611925203624  0.30062923161590765  0.8578113960058716  1.0000
  O   O4        1.0  0.3223848788013584  0.1421884653142342  0.6993727790313713  1.0000
  O   O5        1.0  0.9540138939619071  0.822119386464749  0.034570079767789454  1.0000
  O   O6        1.0  0.5459847752965461  0.965428514717246  0.17787985061254133  1.0000
  O   O7        1.0  0.0459868922922055  0.17788457496723706  0.9654286752979218  1.0000
  O   O8        1.0  0.45401436531099654  0.03457115943648151  0.822119457463714  1.0000
  O   O9        1.0  0.46714217293759225  0.6922647389729734  0.9112572038014265  1.0000
  O   O10       1.0  0.032857938156659806  0.0887423578947661  0.3077355389076645  1.0000
  O   O11       1.0  0.5328574652694016  0.3077338870494017  0.08874027000029369  1.0000
  O   O12       1.0  0.9671424337869824  0.9112573193574818  0.6922650684507874  1.0000
  O   O13       1.0  0.7499994247938702  0.014004043907100102  0.9859945428820892  1.0000
  O   O14       1.0  0.25000094269100975  0.9859956399187837  0.014005157710577913  1.0000
