data_image0
_chemical_formula_structural       Mn4H4C8O12
_chemical_formula_sum              "Mn4 H4 C8 O12"
_cell_length_a       3.3674901412507996
_cell_length_b       8.625612827415603
_cell_length_c       10.251302397149969
_cell_angle_alpha    89.99967766778994
_cell_angle_beta     89.99955004127268
_cell_angle_gamma    101.83561018872703

_space_group_name_H-M_alt    "P 1"
_space_group_IT_number       1

loop_
  _space_group_symop_operation_xyz
  'x, y, z'

loop_
  _atom_site_type_symbol
  _atom_site_label
  _atom_site_symmetry_multiplicity
  _atom_site_fract_x
  _atom_site_fract_y
  _atom_site_fract_z
  _atom_site_occupancy
  Mn  Mn1       1.0  0.7079897021249624  0.9208100714733118  0.3828731028917217  1.0000
  Mn  Mn2       1.0  0.29200790742396526  0.5791866920835105  0.882875315417408  1.0000
  Mn  Mn3       1.0  0.29202012130718913  0.07918767003028651  0.6171239513292547  1.0000
  Mn  Mn4       1.0  0.7079851671607003  0.42081328665921797  0.1171246652767977  1.0000
  H   H1        1.0  0.6315965978018241  0.8258510221124168  0.6403255948902637  1.0000
  H   H2        1.0  0.36840321350532435  0.6741502142573667  0.14032543700337638  1.0000
  H   H3        1.0  0.3684049952277633  0.17414193830160943  0.3596763367817529  1.0000
  H   H4        1.0  0.6315856018427582  0.3258532736453859  0.8596745436877384  1.0000
  C   C1        1.0  0.8496117960547239  0.4438587431411207  0.41839834433205425  1.0000
  C   C2        1.0  0.1503911469241714  0.056146673357972084  0.9183902970153923  1.0000
  C   C3        1.0  0.1503853936110957  0.556143626109673  0.5816074892660054  1.0000
  C   C4        1.0  0.8495983798080078  0.9438520991733695  0.08160870820042729  1.0000
  C   C5        1.0  0.05844572977095199  0.6072053587203997  0.4495345077191288  1.0000
  C   C6        1.0  0.9415850036246383  0.8927957926527198  0.9495335558928986  1.0000
  C   C7        1.0  0.9415605457097771  0.3927911765415785  0.5504683994241049  1.0000
  C   C8        1.0  0.0584293581597635  0.10721142338420717  0.050466424756820095  1.0000
  O   O1        1.0  0.12502408050660557  0.7378063496168252  0.38797022245810797  1.0000
  O   O2        1.0  0.8749694103817731  0.7621820786134348  0.8879632431959192  1.0000
  O   O3        1.0  0.8749838969145217  0.2621937386129715  0.6120297582169485  1.0000
  O   O4        1.0  0.12503019262267404  0.23781912823807974  0.11203771297284958  1.0000
  O   O5        1.0  0.6639295325805392  0.3743885221095624  0.3210159995851569  1.0000
  O   O6        1.0  0.3360687130967861  0.1256082602952304  0.8210198267142131  1.0000
  O   O7        1.0  0.33607134909321  0.6256091536845149  0.6789849565905399  1.0000
  O   O8        1.0  0.6639357164294566  0.8743906217102262  0.1789821049398768  1.0000
  O   O9        1.0  0.7169345191983822  0.929190203446538  0.596580551081658  1.0000
  O   O10       1.0  0.2830665597196855  0.570811420327601  0.09657915870558037  1.0000
  O   O11       1.0  0.28307629476179846  0.07081580638764959  0.403416503118052  1.0000
  O   O12       1.0  0.716924245710061  0.42918382115493603  0.9034178955455515  1.0000
