data_image0
_chemical_formula_structural       K2H20C30N2O10
_chemical_formula_sum              "K2 H20 C30 N2 O10"
_cell_length_a       6.569903034096442
_cell_length_b       8.7941407663454
_cell_length_c       11.146728034894066
_cell_angle_alpha    100.21252027412426
_cell_angle_beta     89.99946716204259
_cell_angle_gamma    89.99978259062758

_space_group_name_H-M_alt    "P 1"
_space_group_IT_number       1

loop_
  _space_group_symop_operation_xyz
  'x, y, z'

loop_
  _atom_site_type_symbol
  _atom_site_label
  _atom_site_symmetry_multiplicity
  _atom_site_fract_x
  _atom_site_fract_y
  _atom_site_fract_z
  _atom_site_occupancy
  K   K1        1.0  0.39419261025144453  0.4173801911550825  0.8858255134780465  1.0000
  K   K2        1.0  0.8942025927116292  0.5826168270568602  0.11417665171897799  1.0000
  H   H1        1.0  0.992339172348757  0.707386345788379  0.8901227535888127  1.0000
  H   H2        1.0  0.4923389884413752  0.2926113796446401  0.109876270080747  1.0000
  H   H3        1.0  0.41089275188682006  0.2348508695951779  0.5907088332893267  1.0000
  H   H4        1.0  0.9108834612611789  0.7651483522049106  0.40929083787731463  1.0000
  H   H5        1.0  0.40349717119571  0.23205795940206994  0.36418134802493546  1.0000
  H   H6        1.0  0.9034964797783689  0.7679424611202138  0.6358194188872944  1.0000
  H   H7        1.0  0.401506994137229  0.9879967016458624  0.2207656164719083  1.0000
  H   H8        1.0  0.9015124733794977  0.012003714777854696  0.7792342637198644  1.0000
  H   H9        1.0  0.40591297916769525  0.6985965948624084  0.1812909948543009  1.0000
  H   H10       1.0  0.9059254921709724  0.3014072567610953  0.8187084156099758  1.0000
  H   H11       1.0  0.39230698302243644  0.4524227694664518  0.2626681675662113  1.0000
  H   H12       1.0  0.892311908513321  0.547579971359191  0.7373302749178167  1.0000
  H   H13       1.0  0.40278784703817666  0.4584317075360858  0.48791402777724363  1.0000
  H   H14       1.0  0.902784169588273  0.5415686662907575  0.5120831482216772  1.0000
  H   H15       1.0  0.47567013124519525  0.9724485667611517  0.9105264808391028  1.0000
  H   H16       1.0  0.9756742042327962  0.027549240868403  0.0894735430372862  1.0000
  H   H17       1.0  0.2666148147648287  0.863443899535966  0.03938875604920613  1.0000
  H   H18       1.0  0.7666168049226699  0.1365524726222276  0.9606122357357023  1.0000
  H   H19       1.0  0.12580505937035721  0.921615100115446  0.9192339535837349  1.0000
  H   H20       1.0  0.6258059655413817  0.07838186156751452  0.0807678948563293  1.0000
  C   C1        1.0  0.4128854018209653  0.9905741306735649  0.7030693812709289  1.0000
  C   C2        1.0  0.9128680389580881  0.0094262629961435  0.2969322273857742  1.0000
  C   C3        1.0  0.4099427217097827  0.9882005395371822  0.5707502833899909  1.0000
  C   C4        1.0  0.9099308758261773  0.0118021523244281  0.4292498494724343  1.0000
  C   C5        1.0  0.40836836610436944  0.8454966224850936  0.4886463739454712  1.0000
  C   C6        1.0  0.9083575441847956  0.15450377766435963  0.5113543633624219  1.0000
  C   C7        1.0  0.40910659326303295  0.7043665881161161  0.5328987125045899  1.0000
  C   C8        1.0  0.909095746737336  0.29563609482614334  0.4671005266321587  1.0000
  C   C9        1.0  0.41758970031899173  0.7038346245960344  0.6648490725753435  1.0000
  C   C10       1.0  0.9175794045506296  0.2961645815861615  0.3351514566612011  1.0000
  C   C11       1.0  0.4096880398128493  0.1260065984249934  0.5262130233892748  1.0000
  C   C12       1.0  0.9096802230281401  0.8739937837752977  0.4737868070714768  1.0000
  C   C13       1.0  0.40747287126220055  0.12463771189599272  0.3997527514382213  1.0000
  C   C14       1.0  0.9074676245695984  0.875362654737387  0.6002452948723729  1.0000
  C   C15       1.0  0.40644694296706524  0.9866002949889396  0.31827722338190517  1.0000
  C   C16       1.0  0.9064478605536908  0.013401256122016  0.6817227787397258  1.0000
  C   C17       1.0  0.4066692038703792  0.8437100034213644  0.36016454447437946  1.0000
  C   C18       1.0  0.9066685285690712  0.15629153434454682  0.639834557490488  1.0000
  C   C19       1.0  0.40315569407137275  0.6995798570863202  0.27958844294605006  1.0000
  C   C20       1.0  0.9031606257705462  0.3004205276003021  0.7204096295982226  1.0000
  C   C21       1.0  0.3997918635768727  0.5627874589309342  0.3247746971406826  1.0000
  C   C22       1.0  0.8997922412191175  0.4372152505675828  0.6752236998210109  1.0000
  C   C23       1.0  0.4036935069267714  0.5652947938156886  0.45133177605582386  1.0000
  C   C24       1.0  0.9036897997250579  0.43470676883264764  0.5486682428311056  1.0000
  C   C25       1.0  0.4319851386608065  0.851934893524387  0.8754385669986036  1.0000
  C   C26       1.0  0.9319850001135067  0.1480630970081691  0.1245617226593296  1.0000
  C   C27       1.0  0.23165751197748113  0.8332137808193919  0.9411683136884291  1.0000
  C   C28       1.0  0.7316583117482978  0.1667827376956197  0.05883289077171841  1.0000
  C   C29       1.0  0.6140791473584671  0.7553733678452446  0.9071695542638594  1.0000
  C   C30       1.0  0.11407643244431401  0.2446247858794237  0.0928316186847624  1.0000
  N   N1        1.0  0.4142614238570772  0.8475806233149895  0.7430787908927671  1.0000
  N   N2        1.0  0.9142576589688077  0.15241859678789643  0.2569217585723322  1.0000
  O   O1        1.0  0.41549743963960856  0.1127586565313194  0.7783551253800242  1.0000
  O   O2        1.0  0.9154722120501618  0.8872406081131035  0.2216490118684931  1.0000
  O   O3        1.0  0.42925043180909495  0.582794984538694  0.7065591765721423  1.0000
  O   O4        1.0  0.9292523507924031  0.41720299260315136  0.2934393320979396  1.0000
  O   O5        1.0  0.135951956299671  0.6859834780528687  0.9158239610639569  1.0000
  O   O6        1.0  0.6359531276466229  0.31401458408966226  0.0841770788040606  1.0000
  O   O7        1.0  0.5909033055298566  0.6775364762487186  0.9911465466551945  1.0000
  O   O8        1.0  0.09089846991798821  0.3224617372562052  0.00885207086768251  1.0000
  O   O9        1.0  0.7783209479047742  0.770814151664517  0.8498321582034833  1.0000
  O   O10       1.0  0.27831436574793866  0.22918676810462563  0.1501675726490888  1.0000
