data_image0
_chemical_formula_structural       Zn2H12C20I2N2O8
_chemical_formula_sum              "Zn2 H12 C20 I2 N2 O8"
_cell_length_a       9.789618716696369
_cell_length_b       11.282339151731609
_cell_length_c       13.300123058616975
_cell_angle_alpha    95.03216483658046
_cell_angle_beta     105.94679796028146
_cell_angle_gamma    100.13434117282198

_space_group_name_H-M_alt    "P 1"
_space_group_IT_number       1

loop_
  _space_group_symop_operation_xyz
  'x, y, z'

loop_
  _atom_site_type_symbol
  _atom_site_label
  _atom_site_symmetry_multiplicity
  _atom_site_fract_x
  _atom_site_fract_y
  _atom_site_fract_z
  _atom_site_occupancy
  Zn  Zn1       1.0  0.6500361383218021  0.5039050818098332  0.5476623554803836  1.0000
  Zn  Zn2       1.0  0.34836569522921923  0.49655625779522666  0.4598060795772838  1.0000
  H   H1        1.0  0.36983362664295777  0.5832039527767846  0.15020674298457948  1.0000
  H   H2        1.0  0.14111282910881323  0.47750278111137556  0.5859310488515348  1.0000
  H   H3        1.0  0.9319639033813657  0.48125804572738656  0.6422818728690061  1.0000
  H   H4        1.0  0.06631544891268956  0.5193960354566157  0.36542233315753236  1.0000
  H   H5        1.0  0.6289746192820829  0.4160340360030472  0.8571899440418845  1.0000
  H   H6        1.0  0.30939916430529013  0.6590192657697428  0.9758814307098547  1.0000
  H   H7        1.0  0.6897307320920163  0.34047452240200465  0.03189739211688897  1.0000
  H   H8        1.0  0.3711949795282052  0.8861265723117241  0.4754608556569622  1.0000
  H   H9        1.0  0.6268102378132312  0.11472872630217519  0.5353234733132624  1.0000
  H   H10       1.0  0.7043410292830145  0.9137335048551165  0.5497793942282243  1.0000
  H   H11       1.0  0.2937102108222263  0.08701459002958957  0.45851794534460316  1.0000
  H   H12       1.0  0.8574992527297453  0.5232265974966737  0.42181029166565054  1.0000
  C   C1        1.0  0.44145312731073716  0.26530546562141666  0.4926763818142987  1.0000
  C   C2        1.0  0.6218852420256693  0.39567992520915135  0.058314637291310596  1.0000
  C   C3        1.0  0.3894845061583112  0.6024532988581512  0.8483913942899335  1.0000
  C   C4        1.0  0.6096613101945394  0.397183981203291  0.1593427827040443  1.0000
  C   C5        1.0  0.5577878859495016  0.4675568807002577  0.8836967798946134  1.0000
  C   C6        1.0  0.4412701703448433  0.5318881901715853  0.12382030404938148  1.0000
  C   C7        1.0  0.5458186850531419  0.46495494276113175  0.9870182617911923  1.0000
  C   C8        1.0  0.45338124316876366  0.5345240847821983  0.020563596031074403  1.0000
  C   C9        1.0  0.4086486130431978  0.1310198732194436  0.485664931268964  1.0000
  C   C10       1.0  0.5894126323519798  0.8696701067393915  0.5233985928867284  1.0000
  C   C11       1.0  0.5134879423515599  0.06560636587609989  0.509157714293913  1.0000
  C   C12       1.0  0.5568390627013712  0.7353103898184086  0.515554494806004  1.0000
  C   C13       1.0  0.48451579384351356  0.935154802367748  0.5010211904472611  1.0000
  C   C14       1.0  0.07433322279354117  0.4942325702392195  0.5097159934585562  1.0000
  C   C15       1.0  0.924217616128132  0.5065291666969143  0.49806613352431833  1.0000
  C   C16       1.0  0.49564175195225596  0.5224640959795791  0.7034715827512342  1.0000
  C   C17       1.0  0.5030108160391861  0.4773153101256467  0.3041097222857587  1.0000
  C   C18       1.0  0.5183239567281391  0.466277475867848  0.19417283940404673  1.0000
  C   C19       1.0  0.48063606223599453  0.5332043630491227  0.8134877257217781  1.0000
  C   C20       1.0  0.3773096583123206  0.6039455192130986  0.9494165390995093  1.0000
  I   I1        1.0  0.7235207362021326  0.2837055680818564  0.25403189695392564  1.0000
  I   I2        1.0  0.2760881892234792  0.7160932090348522  0.7535747428371664  1.0000
  N   N1        1.0  0.13323419911609588  0.5034458236121181  0.435021358772147  1.0000
  N   N2        1.0  0.8651444226707311  0.4972083000724295  0.5726668230207395  1.0000
  O   O1        1.0  0.5738884317911612  0.32132597484301323  0.5296297611559169  1.0000
  O   O2        1.0  0.4241746994356035  0.6793816841570502  0.4808368105972676  1.0000
  O   O3        1.0  0.3322523261132204  0.3145526269610173  0.4602849696029594  1.0000
  O   O4        1.0  0.6664398847777732  0.6857924238847061  0.5449993503009267  1.0000
  O   O5        1.0  0.6223505955995988  0.522099491242507  0.6960867441767462  1.0000
  O   O6        1.0  0.37701515918416817  0.4811146287731915  0.3115018514421379  1.0000
  O   O7        1.0  0.3804061656622295  0.5109463488167592  0.627432786851088  1.0000
  O   O8        1.0  0.617457234876639  0.4857649763295483  0.3801981689346121  1.0000
