data_image0
_chemical_formula_structural       Zn4H24C40N20Cl4
_chemical_formula_sum              "Zn4 H24 C40 N20 Cl4"
_cell_length_a       7.768367415757261
_cell_length_b       8.756932040006635
_cell_length_c       15.789187407842384
_cell_angle_alpha    90.0000232833291
_cell_angle_beta     100.18086330072916
_cell_angle_gamma    89.9998586324295

_space_group_name_H-M_alt    "P 1"
_space_group_IT_number       1

loop_
  _space_group_symop_operation_xyz
  'x, y, z'

loop_
  _atom_site_type_symbol
  _atom_site_label
  _atom_site_symmetry_multiplicity
  _atom_site_fract_x
  _atom_site_fract_y
  _atom_site_fract_z
  _atom_site_occupancy
  Zn  Zn1       1.0  0.270610655916542  0.8259568515418961  0.17869641863525487  1.0000
  Zn  Zn2       1.0  0.7293882961612111  0.3259559499312841  0.32130258845791804  1.0000
  Zn  Zn3       1.0  0.7293880786310538  0.1740433544675426  0.821303159239072  1.0000
  Zn  Zn4       1.0  0.27061044753720864  0.6740442560784032  0.678697623541524  1.0000
  H   H1        1.0  0.2117661462528488  0.2644603246704236  0.9054919154422123  1.0000
  H   H2        1.0  0.7882334357768032  0.7644634500431521  0.5945089735656027  1.0000
  H   H3        1.0  0.7882326157520012  0.7355364554823891  0.09450956480751667  1.0000
  H   H4        1.0  0.21176664320338293  0.2355390398707584  0.405493250113338  1.0000
  H   H5        1.0  0.3632430112521092  0.9011382672060859  0.015717949707735098  1.0000
  H   H6        1.0  0.6367518078156351  0.40113883925701527  0.4842807269143633  1.0000
  H   H7        1.0  0.6367492115824476  0.09886422271593888  0.984282984020922  1.0000
  H   H8        1.0  0.3632469267303621  0.5988625087048761  0.5157188509599422  1.0000
  H   H9        1.0  0.0810246941880379  0.2539644891984024  0.1596314070760627  1.0000
  H   H10       1.0  0.9189705441595849  0.7539686634429612  0.3403679086794895  1.0000
  H   H11       1.0  0.9189740586659881  0.7460322909541688  0.8403694390485511  1.0000
  H   H12       1.0  0.0810255747198951  0.24603382647416794  0.659631450586403  1.0000
  H   H13       1.0  0.15308144498089152  0.5262995223896849  0.17992013387038241  1.0000
  H   H14       1.0  0.8469170251726226  0.026302929748190696  0.3200781399909189  1.0000
  H   H15       1.0  0.8469212313673468  0.47369954166361344  0.8200810401667838  1.0000
  H   H16       1.0  0.15308038323926354  0.9736984182146168  0.6799200603289676  1.0000
  H   H17       1.0  0.322940012182073  0.503997269370025  0.8515513125433429  1.0000
  H   H18       1.0  0.6770668257010187  0.003999772187135898  0.6484494977240516  1.0000
  H   H19       1.0  0.6770705386086747  0.49600522053299273  0.14845241969428  1.0000
  H   H20       1.0  0.32293058271245195  0.9960004338232193  0.3515487025958492  1.0000
  H   H21       1.0  0.10812562879003448  0.1224229027072923  0.022576128567798996  1.0000
  H   H22       1.0  0.8918751983204344  0.6224181088131072  0.4774229947560116  1.0000
  H   H23       1.0  0.8918704809402059  0.8775784452571427  0.9774225965729997  1.0000
  H   H24       1.0  0.1081274597309232  0.37757752938235706  0.5225769110309813  1.0000
  C   C1        1.0  0.203494288331548  0.32075061979757885  0.9661909363055231  1.0000
  C   C2        1.0  0.7965155263011924  0.8207422596417685  0.5338057522195498  1.0000
  C   C3        1.0  0.7965109670735514  0.6792518701093255  0.03380791983951777  1.0000
  C   C4        1.0  0.20349231732908632  0.1792510946420335  0.4661914201586939  1.0000
  C   C5        1.0  0.32702433037785994  0.7816797983165027  0.003657285247584199  1.0000
  C   C6        1.0  0.6729734555443158  0.2816882940687151  0.4963428822982294  1.0000
  C   C7        1.0  0.6729744316285747  0.2183158398838571  0.996344195002159  1.0000
  C   C8        1.0  0.3270252789985051  0.7183153377980743  0.5036566955760335  1.0000
  C   C9        1.0  0.1288605758525136  0.31678207903298267  0.10882217195715779  1.0000
  C   C10       1.0  0.8711396730275001  0.8167772626569415  0.3911744082520414  1.0000
  C   C11       1.0  0.8711394848323835  0.6832158430706484  0.8911787834716307  1.0000
  C   C12       1.0  0.128860314455558  0.18321723358742045  0.6088214741758904  1.0000
  C   C13       1.0  0.34344255558083603  0.715578225220703  0.9235045259736978  1.0000
  C   C14       1.0  0.6565623848532951  0.21557843240878327  0.5764961677893226  1.0000
  C   C15       1.0  0.6565574959500539  0.2844219807875915  0.07649579532994008  1.0000
  C   C16       1.0  0.3434389836624732  0.7844206316459078  0.4235048969436477  1.0000
  C   C17       1.0  0.2479594850507283  0.4774378707630831  0.9764536142803522  1.0000
  C   C18       1.0  0.7520407929933128  0.9774444454751927  0.5235461085336226  1.0000
  C   C19       1.0  0.7520405756309855  0.5225623352454462  0.0235473411484008  1.0000
  C   C20       1.0  0.2479579598495647  0.0225603283445324  0.47645473759085627  1.0000
  C   C21       1.0  0.17109990770359934  0.4695056161273001  0.1207133966272238  1.0000
  C   C22       1.0  0.8288960469586331  0.9695191543034909  0.3792866552224936  1.0000
  C   C23       1.0  0.8289053934635787  0.5304911640185495  0.8792886301434847  1.0000
  C   C24       1.0  0.1710961484059439  0.030495897094766584  0.620712376130605  1.0000
  C   C25       1.0  0.2321771920877893  0.5525151889868383  0.0555061743616676  1.0000
  C   C26       1.0  0.7678264271930858  0.052515442090040686  0.444491901699223  1.0000
  C   C27       1.0  0.7678267829420876  0.4474838750648259  0.9444944748545794  1.0000
  C   C28       1.0  0.2321749047193791  0.9474836219636842  0.5555066265332869  1.0000
  C   C29       1.0  0.3054553606331254  0.5621443886168505  0.9105461531166129  1.0000
  C   C30       1.0  0.694547382558163  0.06214909048077999  0.5894536931342671  1.0000
  C   C31       1.0  0.6945499222244466  0.4378581012907714  0.08945460540377331  1.0000
  C   C32       1.0  0.30545266897112816  0.9378522574799603  0.41054662816935655  1.0000
  C   C33       1.0  0.14475466601525971  0.24228562096378425  0.0312104084720133  1.0000
  C   C34       1.0  0.8552392878914361  0.7422923201656031  0.4687881642516275  1.0000
  C   C35       1.0  0.8552440410846245  0.7577111591875931  0.9687872670270323  1.0000
  C   C36       1.0  0.1447568767405798  0.25771131170517236  0.5312143656398192  1.0000
  C   C37       1.0  0.41398633865659923  0.8140189931911831  0.8634631027809547  1.0000
  C   C38       1.0  0.5860157117793818  0.31402282834634565  0.636537369023614  1.0000
  C   C39       1.0  0.586015011557521  0.18598007086302457  0.1365366937017782  1.0000
  C   C40       1.0  0.41398305936992597  0.6859785196165119  0.363464745351152  1.0000
  N   N1        1.0  0.2758478035317395  0.70478308543732  0.06728077707472829  1.0000
  N   N2        1.0  0.7241501783876033  0.20478570899123835  0.43271812483779826  1.0000
  N   N3        1.0  0.724148351959002  0.2952136947185193  0.9327211186917168  1.0000
  N   N4        1.0  0.27584982738756025  0.7952156389683079  0.5672790258402499  1.0000
  N   N5        1.0  0.5102760321592612  0.9370368681444883  0.8912018529176393  1.0000
  N   N6        1.0  0.4897269741416751  0.43703975075672463  0.608798089879656  1.0000
  N   N7        1.0  0.4897253363549225  0.06296333786264798  0.10879921181530247  1.0000
  N   N8        1.0  0.5102743760708536  0.5629604552499359  0.3912017066030629  1.0000
  N   N9        1.0  0.4058694134653463  0.7982234818467473  0.7772969070308307  1.0000
  N   N10       1.0  0.594133997976506  0.2982239412477199  0.7227043087406385  1.0000
  N   N11       1.0  0.5941306197654798  0.20177558220861155  0.2227021460225984  1.0000
  N   N12       1.0  0.40586997705337075  0.7017751228039442  0.2772963404756084  1.0000
  N   N13       1.0  0.5010263458801418  0.9120520458357074  0.7521548348124228  1.0000
  N   N14       1.0  0.49897412353259796  0.41205501774917497  0.7478455243518454  1.0000
  N   N15       1.0  0.4989723886738203  0.08794359236393488  0.24784474306198231  1.0000
  N   N16       1.0  0.5010272175243244  0.5879486141146016  0.25215363800570145  1.0000
  N   N17       1.0  0.5610614477151686  0.9934046997057845  0.8211119971692755  1.0000
  N   N18       1.0  0.4389400936725493  0.4934066070409313  0.6788878344056144  1.0000
  N   N19       1.0  0.4389385946696649  0.006592080444917799  0.17888769000931146  1.0000
  N   N20       1.0  0.5610612382367393  0.5065947409176985  0.3211106938268529  1.0000
  Cl  Cl1       1.0  0.015308702026132399  0.9259784680288874  0.19185829493031997  1.0000
  Cl  Cl2       1.0  0.9846912791544965  0.42597471196828696  0.3081408180633076  1.0000
  Cl  Cl3       1.0  0.9846900508294779  0.07401717017123838  0.8081425511943152  1.0000
  Cl  Cl4       1.0  0.015311369750811798  0.5740175003695922  0.691858453598627  1.0000
