data_image0
_chemical_formula_structural       MnH20C26S2N8O6F6
_chemical_formula_sum              "Mn1 H20 C26 S2 N8 O6 F6"
_cell_length_a       9.868672443716596
_cell_length_b       9.483944244061552
_cell_length_c       12.201707110293068
_cell_angle_alpha    109.88454156864317
_cell_angle_beta     104.69089342443245
_cell_angle_gamma    91.79977521287599

_space_group_name_H-M_alt    "P 1"
_space_group_IT_number       1

loop_
  _space_group_symop_operation_xyz
  'x, y, z'

loop_
  _atom_site_type_symbol
  _atom_site_label
  _atom_site_symmetry_multiplicity
  _atom_site_fract_x
  _atom_site_fract_y
  _atom_site_fract_z
  _atom_site_occupancy
  Mn  Mn1       1.0  0.9999993595425849  0.49999276982431695  0.4999952658459749  1.0000
  H   H1        1.0  0.7244066389196461  0.35642339341730184  0.545832854668504  1.0000
  H   H2        1.0  0.27560872243401496  0.643583413171669  0.4541766324491194  1.0000
  H   H3        1.0  0.033688645548267004  0.14396925307521974  0.3884033143916029  1.0000
  H   H4        1.0  0.9663132111820616  0.8560230612470362  0.6115930222056181  1.0000
  H   H5        1.0  0.8355034831217908  0.9230125759769406  0.3798694063983775  1.0000
  H   H6        1.0  0.1644961902462256  0.07698654763830602  0.6201397709926156  1.0000
  H   H7        1.0  0.48672076295799366  0.2037288916733289  0.41362263027043883  1.0000
  H   H8        1.0  0.5132885287235993  0.7962870624072879  0.5863962520463348  1.0000
  H   H9        1.0  0.7270230066574895  0.8980491914287115  0.5515115775633462  1.0000
  H   H10       1.0  0.2729876383677379  0.10196900467430231  0.4485089950565637  1.0000
  H   H11       1.0  0.8572842959214954  0.49105407772790954  0.2230440105084171  1.0000
  H   H12       1.0  0.14270027513494202  0.5089034008844353  0.776937097792491  1.0000
  H   H13       1.0  0.6951230508835877  0.5927936380174048  0.5265507001135179  1.0000
  H   H14       1.0  0.3048864391950658  0.4072087573787683  0.47344576817133094  1.0000
  H   H15       1.0  0.48116875459022174  0.5845013907045882  0.32739875913005545  1.0000
  H   H16       1.0  0.5188337077671079  0.41549544991950443  0.6725972645423683  1.0000
  H   H17       1.0  0.36959844926359164  0.4577280837515191  0.13809304935438158  1.0000
  H   H18       1.0  0.6303910109996878  0.5422655730898427  0.8618994885098276  1.0000
  H   H19       1.0  0.7608181744394783  0.5725776625303708  0.0704622385557627  1.0000
  H   H20       1.0  0.23917041421375268  0.4274250759187908  0.9295317170296471  1.0000
  C   C1        1.0  0.7817731252129647  0.2716950522949446  0.49917650315562423  1.0000
  C   C2        1.0  0.2182378995098802  0.7283106949263926  0.5008310024399522  1.0000
  C   C3        1.0  0.9410128453580311  0.1556446138373104  0.42113073024184905  1.0000
  C   C4        1.0  0.05898753153578442  0.8443522576841858  0.5788665174153922  1.0000
  C   C5        1.0  0.8435519343959965  0.045210089954487415  0.4155621569636878  1.0000
  C   C6        1.0  0.15644833160171603  0.9547935694289791  0.5844426095725979  1.0000
  C   C7        1.0  0.6198097273274711  0.05724904895168951  0.4809911636912076  1.0000
  C   C8        1.0  0.3801994064487175  0.9427657782866633  0.51902574789181  1.0000
  C   C9        1.0  0.4925739641041176  0.11595384932914501  0.45300153582689984  1.0000
  C   C10       1.0  0.507436528214633  0.8840632161450444  0.547018705231217  1.0000
  C   C11       1.0  0.6272104464773633  0.9412330337217015  0.5277460955767665  1.0000
  C   C12       1.0  0.3727988478036863  0.05878291846564573  0.4722736063259917  1.0000
  C   C13       1.0  0.7869779829364275  0.5198859251731632  0.28048829832280125  1.0000
  C   C14       1.0  0.21301408175915534  0.4800804944178908  0.7194967080338588  1.0000
  C   C15       1.0  0.6977425844993732  0.570771999925583  0.4341089218242332  1.0000
  C   C16       1.0  0.3022640565833754  0.4292247732238792  0.5658871126364887  1.0000
  C   C17       1.0  0.5906821730406976  0.5677238383801112  0.3364556555033219  1.0000
  C   C18       1.0  0.4093178906417733  0.4322707775635735  0.6635384702723998  1.0000
  C   C19       1.0  0.5736000720483577  0.5178738252629885  0.11846972717586383  1.0000
  C   C20       1.0  0.4263866735102654  0.4821074044302094  0.8815222342589948  1.0000
  C   C21       1.0  0.42686595191388926  0.47784245355379806  0.07823002358630049  1.0000
  C   C22       1.0  0.5731311152651059  0.5221454057278052  0.9217649759754566  1.0000
  C   C23       1.0  0.6467954999594313  0.5398990031936038  0.04003467079363804  1.0000
  C   C24       1.0  0.353194384411303  0.46009012136359917  0.9599534700730461  1.0000
  C   C25       1.0  0.1225572561579611  0.18866225131113623  0.15880077513673296  1.0000
  C   C26       1.0  0.8774344869041499  0.811348370642378  0.8411942773963974  1.0000
  S   S1        1.0  0.1239340022420379  0.39342533183371126  0.24526434804561606  1.0000
  S   S2        1.0  0.8760641811106211  0.6065863053370962  0.7547371991266093  1.0000
  N   N1        1.0  0.9021433350001897  0.29691769006969093  0.47414990172754307  1.0000
  N   N2        1.0  0.09786361669443276  0.703081340550867  0.5258484350287206  1.0000
  N   N3        1.0  0.7425505425147705  0.12017321604967897  0.46507006078185514  1.0000
  N   N4        1.0  0.25745959738171825  0.8798336734626276  0.5349400275398822  1.0000
  N   N5        1.0  0.8201228160778699  0.5401988911493518  0.39844665703468973  1.0000
  N   N6        1.0  0.17987436719615602  0.45978217648372793  0.6015424628199784  1.0000
  N   N7        1.0  0.6476921642251412  0.5355212892938184  0.23940624391998713  1.0000
  N   N8        1.0  0.3523006614033903  0.4644507853346199  0.7605796006596395  1.0000
  O   O1        1.0  0.06121858096872759  0.3845489058133751  0.3413575376612884  1.0000
  O   O2        1.0  0.9387858401402412  0.6154467543517301  0.6586451263243306  1.0000
  O   O3        1.0  0.03819460079987642  0.4507877711320205  0.15862773885098147  1.0000
  O   O4        1.0  0.961808429511258  0.5492362282105818  0.8413879133134332  1.0000
  O   O5        1.0  0.27419658871183833  0.4508507867791708  0.29099675210107295  1.0000
  O   O6        1.0  0.7258072610011296  0.5491562200379364  0.7090063535573777  1.0000
  F   F1        1.0  0.9903572067919412  0.11385649973914272  0.11786736945067845  1.0000
  F   F2        1.0  0.009630510470238145  0.8861632691010473  0.8821227409210766  1.0000
  F   F3        1.0  0.2054393768567735  0.12349063735638312  0.23089528867330966  1.0000
  F   F4        1.0  0.794544248742959  0.8765065305695219  0.7690904416270005  1.0000
  F   F5        1.0  0.1743538797494466  0.1726785856597601  0.06319010096549961  1.0000
  F   F6        1.0  0.8256401250968038  0.8273410677689058  0.9368061724835642  1.0000
