data_image0
_chemical_formula_structural       Zn4H40C54N14O16F6
_chemical_formula_sum              "Zn4 H40 C54 N14 O16 F6"
_cell_length_a       9.796211769060994
_cell_length_b       11.102352619820913
_cell_length_c       22.214797215754807
_cell_angle_alpha    89.26513443363217
_cell_angle_beta     89.68027536997394
_cell_angle_gamma    91.74697995083433

_space_group_name_H-M_alt    "P 1"
_space_group_IT_number       1

loop_
  _space_group_symop_operation_xyz
  'x, y, z'

loop_
  _atom_site_type_symbol
  _atom_site_label
  _atom_site_symmetry_multiplicity
  _atom_site_fract_x
  _atom_site_fract_y
  _atom_site_fract_z
  _atom_site_occupancy
  Zn  Zn1       1.0  0.6462776373984482  0.5069816404695898  0.49598995111892213  1.0000
  Zn  Zn2       1.0  0.35624338333118294  0.4982313952156048  0.5029080757787129  1.0000
  Zn  Zn3       1.0  0.3558364976197411  0.5061311219898669  0.9928118537334427  1.0000
  Zn  Zn4       1.0  0.6445658681592262  0.516810412466711  0.9975247068599843  1.0000
  H   H1        1.0  0.12302410088091162  0.5981486938340835  0.6341525140611497  1.0000
  H   H2        1.0  0.14141015400750945  0.72452581056595  0.583963616947031  1.0000
  H   H3        1.0  0.884418224918143  0.7368695405882234  0.5790125965187728  1.0000
  H   H4        1.0  0.8669151271954975  0.6089770975006487  0.6284911951257826  1.0000
  H   H5        1.0  0.17984489801526854  0.8727042860801434  0.4620084752663942  1.0000
  H   H6        1.0  0.17877532730099693  0.8913038699659526  0.541731274277673  1.0000
  H   H7        1.0  0.1766906169032225  0.11550565152283099  0.5274601401399011  1.0000
  H   H8        1.0  0.18722981951584222  0.0961545953504768  0.4477956086861852  1.0000
  H   H9        1.0  0.8056824910801197  0.44571835467719717  0.1849967456156065  1.0000
  H   H10       1.0  0.8102352618865468  0.6048221588086022  0.19376083241156286  1.0000
  H   H11       1.0  0.8147529813287946  0.5738895868518412  0.30664787500397495  1.0000
  H   H12       1.0  0.797595629090097  0.4148708980568331  0.29541531899945994  1.0000
  H   H13       1.0  0.8644286799586357  0.6172919270322196  0.8673110282699527  1.0000
  H   H14       1.0  0.8878729120806527  0.7464688340119352  0.9138253745170813  1.0000
  H   H15       1.0  0.14287135884904964  0.7290159846499689  0.9051970166533394  1.0000
  H   H16       1.0  0.1196034457149366  0.5997558034237541  0.8589238620655806  1.0000
  H   H17       1.0  0.8080838654340994  0.892129375783327  0.0333643567876294  1.0000
  H   H18       1.0  0.8153274830292148  0.9159024536459127  0.9536784197229551  1.0000
  H   H19       1.0  0.8173112699532293  0.1398696740909244  0.9682428108529423  1.0000
  H   H20       1.0  0.8056690558859999  0.11511309022437642  0.0479907179968677  1.0000
  H   H21       1.0  0.7656764792283752  0.4033730555144502  0.40073318173854494  1.0000
  H   H22       1.0  0.9219052436169336  0.3610572632422659  0.3742805810659889  1.0000
  H   H23       1.0  0.23223300849130624  0.3172267931235595  0.4401819587108308  1.0000
  H   H24       1.0  0.07537125469825413  0.270915639934863  0.413257915014249  1.0000
  H   H25       1.0  0.7473366229893159  0.21448043014620308  0.5090623374256964  1.0000
  H   H26       1.0  0.8189968739857463  0.082022352634965  0.5308135830799189  1.0000
  H   H27       1.0  0.7430630043149619  0.7963493449584433  0.4892723583400027  1.0000
  H   H28       1.0  0.8235724045327546  0.9341969982687461  0.4762151261648953  1.0000
  H   H29       1.0  0.24751722574417567  0.5439934883639097  0.353665401823406  1.0000
  H   H30       1.0  0.17620263299196645  0.5982592284785042  0.2886100317059501  1.0000
  H   H31       1.0  0.2434754711633857  0.5459406225335499  0.1423273771207079  1.0000
  H   H32       1.0  0.15902532390892082  0.5070520745324103  0.20892707438314773  1.0000
  H   H33       1.0  0.2334014901803414  0.3399478951274375  0.068373870976032  1.0000
  H   H34       1.0  0.082048825687508  0.32960457817254246  0.11118221897473293  1.0000
  H   H35       1.0  0.7537362997613783  0.39043065847875624  0.0863150636181444  1.0000
  H   H36       1.0  0.8774512359625817  0.28544947097555  0.0844746507303284  1.0000
  H   H37       1.0  0.24625945528975995  0.2133861818201268  0.9878174343135059  1.0000
  H   H38       1.0  0.17662534285030773  0.08191355876280682  0.9602354571107555  1.0000
  H   H39       1.0  0.24756911515883223  0.7931067322216523  0.9867004837881765  1.0000
  H   H40       1.0  0.1672944901621491  0.9215005822437377  0.0089037545248658  1.0000
  C   C1        1.0  0.49397735136816595  0.7357998648722344  0.5012231968911962  1.0000
  C   C2        1.0  0.5181655269782157  0.4846964047852538  0.6153524773601617  1.0000
  C   C3        1.0  0.49951231116197903  0.26487601739653843  0.4944632498960218  1.0000
  C   C4        1.0  0.49382289351512304  0.5087772175657649  0.379117540079335  1.0000
  C   C5        1.0  0.4972637479119087  0.7451686297940301  0.9866065726070445  1.0000
  C   C6        1.0  0.5139401467025665  0.48192352402286087  0.8799133802544148  1.0000
  C   C7        1.0  0.4973013280137765  0.27290427088140484  0.0045046013346166005  1.0000
  C   C8        1.0  0.49178595925780416  0.5279085670749951  0.1144440255482237  1.0000
  C   C9        1.0  0.07176168975860969  0.5561762264460697  0.5396074169140093  1.0000
  C   C10       1.0  0.927432039006469  0.43719966801420895  0.4563419729577518  1.0000
  C   C11       1.0  0.9325832383086095  0.5628636668118361  0.5363917740900419  1.0000
  C   C12       1.0  0.07317209182966171  0.4209021746787157  0.4637427212976064  1.0000
  C   C13       1.0  0.084429547732384  0.6395029957968035  0.592694688724805  1.0000
  C   C14       1.0  0.9226577319601503  0.646881308023012  0.5893174030742047  1.0000
  C   C15       1.0  0.499231324182425  0.8693435559986683  0.5009983095724948  1.0000
  C   C16       1.0  0.5024002677378975  0.1317751039175121  0.49554833182719454  1.0000
  C   C17       1.0  0.37974996958283924  0.9360613350664052  0.4996690718069773  1.0000
  C   C18       1.0  0.6252543725361762  0.06756818325526841  0.5001627317324022  1.0000
  C   C19       1.0  0.3812870301126382  0.06042763160761669  0.49468458849632674  1.0000
  C   C20       1.0  0.6237826284310515  0.9380780497471191  0.49940208773364964  1.0000
  C   C21       1.0  0.22529557269776035  0.9241571396912677  0.4992539099831106  1.0000
  C   C22       1.0  0.22697646061762106  0.0658222013194845  0.4914768855159366  1.0000
  C   C23       1.0  0.517711927642651  0.4691802083224417  0.812232656293844  1.0000
  C   C24       1.0  0.5971622352671346  0.3841073583939335  0.7807612836642335  1.0000
  C   C25       1.0  0.4429166883045639  0.5490448875630208  0.7790308358241802  1.0000
  C   C26       1.0  0.6727669222903431  0.29512788659234707  0.811224029778515  1.0000
  C   C27       1.0  0.7526252997216717  0.2154583269369609  0.7808023780289732  1.0000
  C   C28       1.0  0.5211928529445018  0.4714717806605576  0.6832463128222983  1.0000
  C   C29       1.0  0.44435706093125305  0.5499516840775553  0.7157085504059282  1.0000
  C   C30       1.0  0.5996495000919708  0.3857526072970002  0.7155454952878842  1.0000
  C   C31       1.0  0.678981790945251  0.29900173359358456  0.6861601619026843  1.0000
  C   C32       1.0  0.755998339815129  0.2176585349900719  0.7175346403974177  1.0000
  C   C33       1.0  0.4877793892712888  0.5306742543314584  0.1811120288412056  1.0000
  C   C34       1.0  0.48768036755706856  0.51470944387421  0.3124028416660281  1.0000
  C   C35       1.0  0.6076674355317309  0.5210139778905187  0.21509070777742068  1.0000
  C   C36       1.0  0.36503717165244615  0.5306389382299982  0.2798819130620984  1.0000
  C   C37       1.0  0.6071796614812897  0.5108182556791405  0.2772118739743377  1.0000
  C   C38       1.0  0.36479784193585374  0.5361714099740807  0.2150616477866123  1.0000
  C   C39       1.0  0.7620213027964127  0.5197800293521837  0.2102320479078514  1.0000
  C   C40       1.0  0.7611828103932013  0.50325755644581  0.2808190727633075  1.0000
  C   C41       1.0  0.9322652247691466  0.5728266816502907  0.9592817880632297  1.0000
  C   C42       1.0  0.070107704611523  0.4307439771269871  0.0339260960768257  1.0000
  C   C43       1.0  0.07113971220975661  0.5628489606190783  0.9548891025290658  1.0000
  C   C44       1.0  0.9226168908397271  0.4395003888578939  0.03768738161529231  1.0000
  C   C45       1.0  0.9228801323303273  0.6553837589431453  0.9049175001034299  1.0000
  C   C46       1.0  0.0840702303171028  0.6441838097199479  0.8997339470230586  1.0000
  C   C47       1.0  0.4924757551304496  0.8784238491132471  0.9882744787307729  1.0000
  C   C48       1.0  0.4922612523895823  0.13987933645385198  0.9999643719743149  1.0000
  C   C49       1.0  0.6124593785071683  0.9499132300378719  0.9934938300157086  1.0000
  C   C50       1.0  0.3689304280330674  0.0710835536090428  0.9926160935065981  1.0000
  C   C51       1.0  0.6122961086957588  0.07367257733857709  0.9997990445287357  1.0000
  C   C52       1.0  0.36890447590867137  0.9419055507249539  0.9884767903866135  1.0000
  C   C53       1.0  0.7666431407479379  0.9443869176253301  0.9956743644043727  1.0000
  C   C54       1.0  0.7664647051266729  0.0855980192918935  0.004018323273570001  1.0000
  N   N1        1.0  0.14659832843408083  0.4858421118361989  0.5037562094947604  1.0000
  N   N2        1.0  0.856102289049197  0.5057154448732462  0.494312397476385  1.0000
  N   N3        1.0  0.8540340972517342  0.5119482615808478  0.00036871036003560025  1.0000
  N   N4        1.0  0.14515830249878553  0.4941140300904365  0.9923792293257706  1.0000
  N   N5        1.0  0.8632510350893414  0.3778295020576651  0.41083673015009486  1.0000
  N   N6        1.0  0.135385048465281  0.34077548923566786  0.4276229672987241  1.0000
  N   N7        1.0  0.7535114007711243  0.12388615277878047  0.5025481283095132  1.0000
  N   N8        1.0  0.7506835768665638  0.8857504447584006  0.4996701906771719  1.0000
  N   N9        1.0  0.23848435960234585  0.5372507921340814  0.3079481413653014  1.0000
  N   N10       1.0  0.23913495203708382  0.5511314152405902  0.1882110924831437  1.0000
  N   N11       1.0  0.1314105987426544  0.35509371433953874  0.0728047719028453  1.0000
  N   N12       1.0  0.8559299665319884  0.3745495890784483  0.08248304789565711  1.0000
  N   N13       1.0  0.24104197904528496  0.1217147845718145  0.990371961974475  1.0000
  N   N14       1.0  0.24157970366449888  0.8846671564200009  0.983429381495519  1.0000
  O   O1        1.0  0.604804263872282  0.6822420346750278  0.4880428313985448  1.0000
  O   O2        1.0  0.3808003392799648  0.6811542329374731  0.5135572474920025  1.0000
  O   O3        1.0  0.403633814702701  0.4608904061415373  0.5911992795016658  1.0000
  O   O4        1.0  0.627386835705977  0.5214318245189702  0.5896290241356114  1.0000
  O   O5        1.0  0.38476183152619836  0.31445199671374974  0.48576235893897046  1.0000
  O   O6        1.0  0.611066623487588  0.3254453331628043  0.5030811272051707  1.0000
  O   O7        1.0  0.6098074071681624  0.4879259131094216  0.4028884911614625  1.0000
  O   O8        1.0  0.3853501155157276  0.5257414420268915  0.4099802698180143  1.0000
  O   O9        1.0  0.3858822450186565  0.6846281392846336  0.9757064349721106  1.0000
  O   O10       1.0  0.6118392979581557  0.697802441529916  0.9967705816619272  1.0000
  O   O11       1.0  0.6239393580674033  0.5172077266845534  0.9046043965295639  1.0000
  O   O12       1.0  0.39904092173583194  0.46022293732946196  0.9049652131791532  1.0000
  O   O13       1.0  0.6118083608593352  0.3283019841063605  0.9976841969719246  1.0000
  O   O14       1.0  0.3843602111520569  0.3268952507246111  0.014819565240813402  1.0000
  O   O15       1.0  0.381658398866314  0.5439992384092491  0.08469450583093162  1.0000
  O   O16       1.0  0.6069621491936132  0.5074190634742521  0.0895927379208956  1.0000
  F   F1        1.0  0.36991516345439385  0.6341291296055473  0.6873708665011478  1.0000
  F   F2        1.0  0.3679660804784249  0.632986657367546  0.8066086909865788  1.0000
  F   F3        1.0  0.6799034888543929  0.29115953133888434  0.6255224282483383  1.0000
  F   F4        1.0  0.8319721364430775  0.1376723888329892  0.6880780927786745  1.0000
  F   F5        1.0  0.8250838425120934  0.1330833065769284  0.811030986682475  1.0000
  F   F6        1.0  0.6667285616164023  0.2834237106728068  0.8717831731673514  1.0000
