data_image0
_chemical_formula_structural       Na4H16C16Br4N8O12
_chemical_formula_sum              "Na4 H16 C16 Br4 N8 O12"
_cell_length_a       7.415572780688412
_cell_length_b       7.9239486753276225
_cell_length_c       13.89777928571108
_cell_angle_alpha    101.46811197064862
_cell_angle_beta     90.02805590518582
_cell_angle_gamma    117.89548373507998

_space_group_name_H-M_alt    "P 1"
_space_group_IT_number       1

loop_
  _space_group_symop_operation_xyz
  'x, y, z'

loop_
  _atom_site_type_symbol
  _atom_site_label
  _atom_site_symmetry_multiplicity
  _atom_site_fract_x
  _atom_site_fract_y
  _atom_site_fract_z
  _atom_site_occupancy
  Na  Na1       1.0  0.6211219410034943  9.081850579660132e-05  0.2499704759201222  1.0000
  Na  Na2       1.0  0.37886339356079196  0.9999048538284542  0.7500252276677202  1.0000
  Na  Na3       1.0  0.8605942810311259  0.9999399933982357  0.750044041672169  1.0000
  Na  Na4       1.0  0.13938769683300475  7.866041479330084e-05  0.24992252589690622  1.0000
  H   H1        1.0  0.6439748628265178  0.42157370966681634  0.7250920975737429  1.0000
  H   H2        1.0  0.2221867093231323  0.5782154020601168  0.7747921176096071  1.0000
  H   H3        1.0  0.35600620670631133  0.578432306117378  0.27491049835693815  1.0000
  H   H4        1.0  0.7778257634851967  0.42178329725031455  0.22521039817770117  1.0000
  H   H5        1.0  0.9038865767955713  0.522495538184337  0.7065122702656623  1.0000
  H   H6        1.0  0.38136797103371817  0.47755617248087395  0.7935981264687301  1.0000
  H   H7        1.0  0.0961003832892188  0.477522254912415  0.2934952182192204  1.0000
  H   H8        1.0  0.6186519884593479  0.5224440136935441  0.2064059927907778  1.0000
  H   H9        1.0  0.7500174696242254  0.0896637247363401  0.4810600818769544  1.0000
  H   H10       1.0  0.6603024873403381  0.9103352933067013  0.018981580360986093  1.0000
  H   H11       1.0  0.24998617703820247  0.9103496826839499  0.5189476465217098  1.0000
  H   H12       1.0  0.33967565434755187  0.08964597831666052  0.9810298094557837  1.0000
  H   H13       1.0  0.7506562010018739  0.6007454940412555  0.4591086241872376  1.0000
  H   H14       1.0  0.1498787618954153  0.3991949163110176  0.0408388476881996  1.0000
  H   H15       1.0  0.24937538873850676  0.3992752520586365  0.5409006337811704  1.0000
  H   H16       1.0  0.8500981381205576  0.6007757995876515  0.9591512345668818  1.0000
  C   C1        1.0  0.7563606583219525  0.34176445799005245  0.4580816364822269  1.0000
  C   C2        1.0  0.41452957306569954  0.6582835256220175  0.041946606499862996  1.0000
  C   C3        1.0  0.2436407674193075  0.6582445103933734  0.5419227256686554  1.0000
  C   C4        1.0  0.5854159834102363  0.3417107972299434  0.9580568586855804  1.0000
  C   C5        1.0  0.7284226274815282  0.5602242236889124  0.6027084502684233  1.0000
  C   C6        1.0  0.16797162747850788  0.43979207862475533  0.8972723741912816  1.0000
  C   C7        1.0  0.2715951426748474  0.4397877608819271  0.39730200190687986  1.0000
  C   C8        1.0  0.8320158075759988  0.560223983729898  0.1027169352414532  1.0000
  C   C9        1.0  0.7468992518072638  0.4371518338331697  0.667236460343098  1.0000
  C   C10       1.0  0.3095227529513878  0.5627747504972902  0.8327521305017528  1.0000
  C   C11       1.0  0.25308979179921914  0.5628512510415219  0.3327658146239543  1.0000
  C   C12       1.0  0.6904886167432946  0.43722983209747196  0.16725247065642887  1.0000
  C   C13       1.0  0.7178825156782764  0.2401955691060634  0.6155743566881783  1.0000
  C   C14       1.0  0.47747621278973174  0.7597728962268916  0.8844372602889621  1.0000
  C   C15       1.0  0.2820898188297747  0.7598118590080887  0.38442479546635877  1.0000
  C   C16       1.0  0.5225019649540171  0.24022733168889226  0.11556973624910681  1.0000
  Br  Br1       1.0  0.9485172386535864  0.157739084724227  0.1243765743941552  1.0000
  Br  Br2       1.0  0.7904888276677722  0.8423425477920715  0.3754831763795323  1.0000
  Br  Br3       1.0  0.05153632670999278  0.8421800103280004  0.8755855401020298  1.0000
  Br  Br4       1.0  0.20949173538880217  0.15768402771563925  0.6245245566283869  1.0000
  N   N1        1.0  0.7444211692408019  0.2155488087759565  0.5169463229332294  1.0000
  N   N2        1.0  0.5287406674600416  0.7844532457250677  0.9830828999044243  1.0000
  N   N3        1.0  0.25561059834837596  0.7844776933197153  0.4830563718911378  1.0000
  N   N4        1.0  0.47125107998513727  0.2155471415538699  0.016934909316866305  1.0000
  N   N5        1.0  0.747348570650658  0.5084759052049108  0.5037166146130048  1.0000
  N   N6        1.0  0.23886550488433037  0.49144206654635514  0.9962538044266369  1.0000
  N   N7        1.0  0.252687055678514  0.4915637123807314  0.4962824848231194  1.0000
  N   N8        1.0  0.7611075623459128  0.508531760686381  0.0037488516555796983  1.0000
  O   O1        1.0  0.7736581506825003  0.3055844887089592  0.3689606008991717  1.0000
  O   O2        1.0  0.4680247563671927  0.6944603081705979  0.13107883856737604  1.0000
  O   O3        1.0  0.22642146821554818  0.6944567967037897  0.6310523592237516  1.0000
  O   O4        1.0  0.5319762605312163  0.3054723364083855  0.8689092226381803  1.0000
  O   O5        1.0  0.7034034201653085  0.7031180462643789  0.6346115882983271  1.0000
  O   O6        1.0  8.057043345380907e-05  0.29687131120184757  0.8653212654772632  1.0000
  O   O7        1.0  0.2965829927950949  0.2968878741263197  0.36538452183538794  1.0000
  O   O8        1.0  0.9999430067818692  0.7031037596001894  0.13466642321088781  1.0000
  O   O9        1.0  0.6774356842964265  0.1062403441912636  0.6585972304736742  1.0000
  O   O10       1.0  0.5708605612428671  0.8938203205334148  0.8414624776567265  1.0000
  O   O11       1.0  0.32252772044745365  0.8937627084293212  0.34140287887471027  1.0000
  O   O12       1.0  0.42917051287966496  0.106169723879006  0.158548443935409  1.0000
