data_image0
_chemical_formula_structural       Cd5H32C34N18O12
_chemical_formula_sum              "Cd5 H32 C34 N18 O12"
_cell_length_a       8.692202461868261
_cell_length_b       9.15955470745455
_cell_length_c       16.001554221787487
_cell_angle_alpha    73.57704562026173
_cell_angle_beta     87.48586757390434
_cell_angle_gamma    70.25077761183722

_space_group_name_H-M_alt    "P 1"
_space_group_IT_number       1

loop_
  _space_group_symop_operation_xyz
  'x, y, z'

loop_
  _atom_site_type_symbol
  _atom_site_label
  _atom_site_symmetry_multiplicity
  _atom_site_fract_x
  _atom_site_fract_y
  _atom_site_fract_z
  _atom_site_occupancy
  Cd  Cd1       1.0  0.8261185786018357  0.33280477189893537  0.1692649748612993  1.0000
  Cd  Cd2       1.0  0.17388269399395276  0.6671937032473566  0.8307321257589564  1.0000
  Cd  Cd3       1.0  0.5000052301653852  0.4999995895735125  0.9999990055301922  1.0000
  Cd  Cd4       1.0  0.6146987826753261  0.08944655566527623  0.14711223292918865  1.0000
  Cd  Cd5       1.0  0.38531125758392176  0.9105531994491759  0.8528807045747512  1.0000
  H   H1        1.0  0.2526004212404373  0.9031987222512118  0.322974405005148  1.0000
  H   H2        1.0  0.747396963864439  0.09678754699501013  0.6770296846811021  1.0000
  H   H3        1.0  0.47514242421671316  0.6524671885166883  0.3990390230270577  1.0000
  H   H4        1.0  0.5248554103501561  0.34751435693092253  0.600961413683244  1.0000
  H   H5        1.0  0.27825727889152313  0.3782343567624624  0.28114781023928254  1.0000
  H   H6        1.0  0.7217329022072718  0.6217594604816626  0.71884465958059  1.0000
  H   H7        1.0  0.05469694435533504  0.6272423584429492  0.2091367705599865  1.0000
  H   H8        1.0  0.9452968727269065  0.37276107047436113  0.7908559938409212  1.0000
  H   H9        1.0  0.4042518793128662  0.19306104258390636  0.4173729209163568  1.0000
  H   H10       1.0  0.5957512992964167  0.8069217122250765  0.5826265723814501  1.0000
  H   H11       1.0  0.6306263995050115  0.10992928664291673  0.5295550662167441  1.0000
  H   H12       1.0  0.36936526636267075  0.8900703608773598  0.4704445875315528  1.0000
  H   H13       1.0  0.7749234382224727  0.11503153309703154  0.4464881958653351  1.0000
  H   H14       1.0  0.22507896406334268  0.8849704201763445  0.5535139623719089  1.0000
  H   H15       1.0  0.679240360626828  0.966697155001903  0.4681789860154524  1.0000
  H   H16       1.0  0.32077161095430984  0.033290248294612516  0.5318258207806392  1.0000
  H   H17       1.0  0.13029780293863513  0.13212224469707223  0.335024023302914  1.0000
  H   H18       1.0  0.8696836939521615  0.8678869902855839  0.6649787665527  1.0000
  H   H19       1.0  0.7385416786854789  0.5509905603088614  0.3386737214547891  1.0000
  H   H20       1.0  0.2614528600533602  0.44902097370300714  0.6613315175224415  1.0000
  H   H21       1.0  0.930146163543334  0.37730145780798824  0.5619488971852249  1.0000
  H   H22       1.0  0.06985419631894264  0.6227064972125619  0.438054254725813  1.0000
  H   H23       1.0  0.8113247395841724  0.56739636171519  0.49023409752309277  1.0000
  H   H24       1.0  0.18866649813414668  0.43262485255706923  0.509769720145499  1.0000
  H   H25       1.0  0.804325665013948  0.7095554457195877  0.19443367349202126  1.0000
  H   H26       1.0  0.19567271918889154  0.29045149965455164  0.8055621834831753  1.0000
  H   H27       1.0  0.35200161850588757  0.9061247124271647  0.052288306090801456  1.0000
  H   H28       1.0  0.6480034995539085  0.09386917408139084  0.9476994125274203  1.0000
  H   H29       1.0  0.0741681081588438  0.6013269679985458  0.051554072642389294  1.0000
  H   H30       1.0  0.9258445557747238  0.39867864630716104  0.9484447664451636  1.0000
  H   H31       1.0  0.2049094140939189  0.09888273619227314  0.1649393110446269  1.0000
  H   H32       1.0  0.7951039714962461  0.901130983207999  0.8350720026192491  1.0000
  C   C1        1.0  0.13341309728572517  0.7828113610211818  0.2627136760639246  1.0000
  C   C2        1.0  0.8665806662435783  0.21718215564374801  0.7372900026550796  1.0000
  C   C3        1.0  0.25631122556232794  0.7880481313737422  0.3149247719030441  1.0000
  C   C4        1.0  0.7436802325370734  0.2119453920150677  0.6850789621833044  1.0000
  C   C5        1.0  0.38274059924513176  0.6481543490210131  0.3567239030994926  1.0000
  C   C6        1.0  0.617252103641718  0.3518355281316304  0.6432809913081599  1.0000
  C   C7        1.0  0.3905736804246587  0.4978280968434349  0.3470478917124851  1.0000
  C   C8        1.0  0.6094196935019908  0.5021631483650213  0.6529505240422822  1.0000
  C   C9        1.0  0.27181726396178607  0.49146377410360054  0.29269668213969874  1.0000
  C   C10       1.0  0.7281748444631334  0.5085311657565869  0.7072986913020785  1.0000
  C   C11       1.0  0.1454100948228429  0.6328291674803453  0.2517261507150437  1.0000
  C   C12       1.0  0.8545785393370835  0.3671692478161576  0.7482750184089609  1.0000
  C   C13       1.0  0.9912577924833168  0.9326793458573878  0.22163095637042565  1.0000
  C   C14       1.0  0.00875147085411499  0.06732271635251413  0.7783660171202911  1.0000
  C   C15       1.0  0.5229780058560038  0.2058796634013761  0.3972632885364717  1.0000
  C   C16       1.0  0.47702317406892514  0.7941055632502131  0.602733995126151  1.0000
  C   C17       1.0  0.6599753663495066  0.09258550005407783  0.46486491262740504  1.0000
  C   C18       1.0  0.3400295623456556  0.9074056469809052  0.5351357356129114  1.0000
  C   C19       1.0  0.5577849283833132  0.16574516248574164  0.30965120501558374  1.0000
  C   C20       1.0  0.44222027193523405  0.8342316389916322  0.6903454126167432  1.0000
  C   C21       1.0  0.049594958956184605  0.23317057616577597  0.3556675950607938  1.0000
  C   C22       1.0  0.9503891846338418  0.766841036519111  0.6443360110777759  1.0000
  C   C23       1.0  0.8494740925916273  0.4460487267382123  0.3547812244106581  1.0000
  C   C24       1.0  0.1505164418737407  0.5539677670973763  0.6452189679656541  1.0000
  C   C25       1.0  0.9289468481141155  0.46818292488056573  0.4999015815458421  1.0000
  C   C26       1.0  0.07104537138530276  0.5318286481322262  0.5001024581376042  1.0000
  C   C27       1.0  0.6957639048205592  0.720716724373489  0.1589752889197058  1.0000
  C   C28       1.0  0.3042318603020887  0.279287778744326  0.8410222610947855  1.0000
  C   C29       1.0  0.46691949329459675  0.8223857964514071  0.08635121147097638  1.0000
  C   C30       1.0  0.5330866485732101  0.17761524333549525  0.9136391220981324  1.0000
  C   C31       1.0  0.14162185109442746  0.47287207585463903  0.07607704256275127  1.0000
  C   C32       1.0  0.8583916012598394  0.5271346321520272  0.9239259824914966  1.0000
  C   C33       1.0  0.20969204850613468  0.21787683518869735  0.13196690351615809  1.0000
  C   C34       1.0  0.790319501830403  0.7821321187212791  0.8680426945307927  1.0000
  N   N1        1.0  0.9427077803001749  0.3951643810237897  0.42939072480530877  1.0000
  N   N2        1.0  0.05728551365120175  0.604850799224245  0.5706133538506251  1.0000
  N   N3        1.0  0.07188271759375195  0.2591171214449518  0.4310155351440699  1.0000
  N   N4        1.0  0.9281069334694222  0.7408884632684193  0.5689876216002645  1.0000
  N   N5        1.0  0.9142443077715328  0.3452747330701983  0.30657201771210646  1.0000
  N   N6        1.0  0.08574147251923843  0.6547320717615365  0.693431044419654  1.0000
  N   N7        1.0  0.6672307449563206  0.5998730716228807  0.13981873083828594  1.0000
  N   N8        1.0  0.3327663063823251  0.400127688427638  0.8601837434808886  1.0000
  N   N9        1.0  0.5205833977660672  0.6642602711210943  0.09323261804637888  1.0000
  N   N10       1.0  0.47942279243505226  0.3357406556961566  0.9067621068366732  1.0000
  N   N11       1.0  0.5736185534376829  0.8636288582690955  0.12685602591864859  1.0000
  N   N12       1.0  0.4263817673066795  0.13637576050912506  0.8731363947166528  1.0000
  N   N13       1.0  0.3029248513960922  0.4088831201594517  0.07017627233594939  1.0000
  N   N14       1.0  0.6970816363351702  0.5911237209884989  0.9298225275063671  1.0000
  N   N15       1.0  0.34616248408268285  0.2467660551563285  0.10517195566459488  1.0000
  N   N16       1.0  0.6538489972062677  0.753243060138857  0.8948313690767263  1.0000
  N   N17       1.0  0.07769687944234958  0.3559102219754707  0.11517432657022647  1.0000
  N   N18       1.0  0.9223134192019768  0.6441023943091936  0.8848334838248632  1.0000
  O   O1        1.0  0.9883580482651836  0.06361032105778013  0.2353682242789645  1.0000
  O   O2        1.0  0.011655143393369349  0.9363869588521329  0.7646268951764837  1.0000
  O   O3        1.0  0.882867518973569  0.9170914260462838  0.1769028831111399  1.0000
  O   O4        1.0  0.1171449286018316  0.08291812162701724  0.8230834760212957  1.0000
  O   O5        1.0  0.5160032083756504  0.3677239368887657  0.393351143046189  1.0000
  O   O6        1.0  0.48398971149487807  0.632268615183371  0.6066433310616189  1.0000
  O   O7        1.0  0.5368759683441341  0.0384190680868883  0.3036970018506508  1.0000
  O   O8        1.0  0.4631266819418086  0.9615551297489517  0.6963075821266074  1.0000
  O   O9        1.0  0.6049318828151229  0.2612841097933938  0.24886070095479337  1.0000
  O   O10       1.0  0.3950795489437977  0.7386913357335703  0.7511409745672708  1.0000
  O   O11       1.0  0.6927106800605429  0.2919656707220428  0.06678835098195177  1.0000
  O   O12       1.0  0.30728787907190724  0.7080374381156178  0.9332162219649759  1.0000
