data_image0
_chemical_formula_structural       Zn8H12C24O32
_chemical_formula_sum              "Zn8 H12 C24 O32"
_cell_length_a       13.038079728632528
_cell_length_b       15.009625375569218
_cell_length_c       16.423517514321016
_cell_angle_alpha    66.70939011633934
_cell_angle_beta     63.62347311121657
_cell_angle_gamma    61.185210260377104

_space_group_name_H-M_alt    "P 1"
_space_group_IT_number       1

loop_
  _space_group_symop_operation_xyz
  'x, y, z'

loop_
  _atom_site_type_symbol
  _atom_site_label
  _atom_site_symmetry_multiplicity
  _atom_site_fract_x
  _atom_site_fract_y
  _atom_site_fract_z
  _atom_site_occupancy
  Zn  Zn1       1.0  0.1102473903970774  0.9646571666246899  0.9115539935864021  1.0000
  Zn  Zn2       1.0  0.863627522637884  0.9506339543158762  0.929411222503546  1.0000
  Zn  Zn3       1.0  0.8637953772533608  0.17153312105973842  0.9156980988148644  1.0000
  Zn  Zn4       1.0  0.8863978726168823  0.9896235581745004  0.10018725747059422  1.0000
  Zn  Zn5       1.0  0.24357581760295935  0.5827534633553951  0.4992906721942419  1.0000
  Zn  Zn6       1.0  0.48144417317298144  0.5755925569496299  0.5208922007939378  1.0000
  Zn  Zn7       1.0  0.4993488537741299  0.5554550549697197  0.3293463515895639  1.0000
  Zn  Zn8       1.0  0.481897999068913  0.366973422155958  0.5084395201394543  1.0000
  H   H1        1.0  0.29118813348371475  0.7337814753053351  0.7394738888883409  1.0000
  H   H2        1.0  0.04414978209321418  0.7587090835253463  0.7266775749159037  1.0000
  H   H3        1.0  0.2856367035121252  0.1875274352527683  0.7030428757190775  1.0000
  H   H4        1.0  0.04257912044548823  0.3609753371850529  0.6588589529670797  1.0000
  H   H5        1.0  0.3251404860591618  0.7715162185298042  0.11332834917641325  1.0000
  H   H6        1.0  0.0899285834565261  0.8398437071294326  0.2840720653073702  1.0000
  H   H7        1.0  0.6316766145674394  0.157790284260436  0.739806154419746  1.0000
  H   H8        1.0  0.6533836979098169  0.35867960128420856  0.7385896394545169  1.0000
  H   H9        1.0  0.7294994682442919  0.7113768728899573  0.15102022387902267  1.0000
  H   H10       1.0  0.7011326348140939  0.7773466866304232  0.3219672735133515  1.0000
  H   H11       1.0  0.6740283557681791  0.1801186712063227  0.2959604400924079  1.0000
  H   H12       1.0  0.6628332049773605  0.37309838570732257  0.12258640353713446  1.0000
  C   C1        1.0  0.11197676795958232  0.8291722246272003  0.8227182060537784  1.0000
  C   C2        1.0  0.1935379416641253  0.7454229930396608  0.7683421230705462  1.0000
  C   C3        1.0  0.1419611675195894  0.7189327224083969  0.7205958278949892  1.0000
  C   C4        1.0  0.22603591638278417  0.6747364193911666  0.6352658646010454  1.0000
  C   C5        1.0  0.10760200806504372  0.1693039622107975  0.7910154049917111  1.0000
  C   C6        1.0  0.19115473617499384  0.21487048062277136  0.7034417700041048  1.0000
  C   C7        1.0  0.14166503318804766  0.31588705254110744  0.6403942076474891  1.0000
  C   C8        1.0  0.22421041917029777  0.3773637892008709  0.5819762698919178  1.0000
  C   C9        1.0  0.1458148039152006  0.8859984857312001  0.09287406886502231  1.0000
  C   C10       1.0  0.23660187732430418  0.8265368471787155  0.14682055071872213  1.0000
  C   C11       1.0  0.1894115062058574  0.8087696550781089  0.2501232037554714  1.0000
  C   C12       1.0  0.2617943243850788  0.7132103723777803  0.30792843012349647  1.0000
  C   C13       1.0  0.7183090639314997  0.15082094882940567  0.8329086716312516  1.0000
  C   C14       1.0  0.6360812395763489  0.20667158231223942  0.7718741785702503  1.0000
  C   C15       1.0  0.6119463500179451  0.3189157289085287  0.7262902808686816  1.0000
  C   C16       1.0  0.5787124565488851  0.36767115803881006  0.6371689292435789  1.0000
  C   C17       1.0  0.788726635503586  0.8379010678443065  0.1255925069495163  1.0000
  C   C18       1.0  0.7569677947419889  0.7426658767953213  0.1844159184149562  1.0000
  C   C19       1.0  0.7116166877636446  0.7225881588094722  0.2879420910975127  1.0000
  C   C20       1.0  0.629914216926416  0.6597835796738137  0.3421944835696706  1.0000
  C   C21       1.0  0.5943242211335688  0.3399432599498837  0.31726024475524645  1.0000
  C   C22       1.0  0.6347943511481233  0.2621977770489822  0.26222428823824356  1.0000
  C   C23       1.0  0.6663673110803997  0.2935917492518669  0.15913224105756296  1.0000
  C   C24       1.0  0.7504988151156766  0.21150709323799788  0.10261895240297741  1.0000
  O   O1        1.0  0.9294714062312508  0.0193109309757133  0.9639640378133835  1.0000
  O   O2        1.0  0.9981268737362683  0.843660604128317  0.8603212604441522  1.0000
  O   O3        1.0  0.16783182955003886  0.8777648474235917  0.8251998859745697  1.0000
  O   O4        1.0  0.16783263369495668  0.6515865883138332  0.8058752514051547  1.0000
  O   O5        1.0  0.34140467054096746  0.645195142491275  0.6179738819820245  1.0000
  O   O6        1.0  0.1721123388864996  0.669994684091769  0.5896523249184681  1.0000
  O   O7        1.0  0.9915671106432882  0.2169706891337171  0.8077672966648989  1.0000
  O   O8        1.0  0.16401514550187102  0.0835682543880836  0.8392120149598055  1.0000
  O   O9        1.0  0.18102302996278036  0.21845626337607632  0.6182965906490737  1.0000
  O   O10       1.0  0.3394897346316768  0.325301475304336  0.5574457312494798  1.0000
  O   O11       1.0  0.16886627710159272  0.4764324299467829  0.5644761679673848  1.0000
  O   O12       1.0  0.03599758730820904  0.9390189041102348  0.1346510794060194  1.0000
  O   O13       1.0  0.19001601248132258  0.8771520883505416  0.00867540617818462  1.0000
  O   O14       1.0  0.24341198717483775  0.8860525542728795  0.1931997392255838  1.0000
  O   O15       1.0  0.3785699322438277  0.6775098864478792  0.2727406309801522  1.0000
  O   O16       1.0  0.19628601347652352  0.6775052844759415  0.38761853685794284  1.0000
  O   O17       1.0  0.7345216279193565  0.20669499919502957  0.8639635963339743  1.0000
  O   O18       1.0  0.7632836161894119  0.0513783834753525  0.8473599995024655  1.0000
  O   O19       1.0  0.5204686551565061  0.2860380468579748  0.8070759284735939  1.0000
  O   O20       1.0  0.5442340420675295  0.3175537531843133  0.6137700837420254  1.0000
  O   O21       1.0  0.5863755865646  0.4569159131398377  0.5944714312775546  1.0000
  O   O22       1.0  0.8243514246809696  0.875268953457116  0.16102890572361872  1.0000
  O   O23       1.0  0.7777046430556284  0.8706384222385211  0.04444725462384715  1.0000
  O   O24       1.0  0.8361598249812657  0.6655010634012797  0.23911108377556906  1.0000
  O   O25       1.0  0.6305499558615892  0.6041536243533941  0.30027802366048933  1.0000
  O   O26       1.0  0.5681261246636639  0.6681005579642731  0.4265088302080569  1.0000
  O   O27       1.0  0.5618978884946061  0.4362628085752078  0.27583607090971174  1.0000
  O   O28       1.0  0.5940220016846  0.3007825542913309  0.40175097306167346  1.0000
  O   O29       1.0  0.5488843763838743  0.2849532162583728  0.2174835356542673  1.0000
  O   O30       1.0  0.7695986582826251  0.116614330758857  0.14663570658776576  1.0000
  O   O31       1.0  0.7924192358985636  0.24646664051887512  0.014987117065786001  1.0000
  O   O32       1.0  0.42455960586448777  0.519956557901125  0.46565347428337833  1.0000
