data_image0
_chemical_formula_structural       Cu2H36Au2C20N8Cl2O8
_chemical_formula_sum              "Cu2 H36 Au2 C20 N8 Cl2 O8"
_cell_length_a       7.14606912757688
_cell_length_b       9.385864166833974
_cell_length_c       12.810073727051895
_cell_angle_alpha    90.00001470244925
_cell_angle_beta     90.00028387954173
_cell_angle_gamma    112.37239101131742

_space_group_name_H-M_alt    "P 1"
_space_group_IT_number       1

loop_
  _space_group_symop_operation_xyz
  'x, y, z'

loop_
  _atom_site_type_symbol
  _atom_site_label
  _atom_site_symmetry_multiplicity
  _atom_site_fract_x
  _atom_site_fract_y
  _atom_site_fract_z
  _atom_site_occupancy
  Cu  Cu1       1.0  0.22661377925354748  0.4531520234012448  0.7500132069203715  1.0000
  Cu  Cu2       1.0  0.773386452595645  0.5468493043992454  0.2500121322785063  1.0000
  H   H1        1.0  0.14864504614522667  0.6341377217624856  0.8652778785835409  1.0000
  H   H2        1.0  0.5142400390901402  0.36589771401239085  0.1347118874789146  1.0000
  H   H3        1.0  0.48576336651158436  0.6341009080765121  0.6347129053917939  1.0000
  H   H4        1.0  0.8513570329287179  0.365865159308889  0.3652785303787454  1.0000
  H   H5        1.0  0.5768727849615801  0.7721713808984275  0.8041601531591668  1.0000
  H   H6        1.0  0.8043949707961175  0.22780030137174384  0.1958001154016245  1.0000
  H   H7        1.0  0.19560548648286172  0.7721996855744138  0.6957988376890683  1.0000
  H   H8        1.0  0.4231288673415393  0.2278289831313671  0.3041580834567483  1.0000
  H   H9        1.0  0.49087571238447947  0.918687821897457  0.9432904029244327  1.0000
  H   H10       1.0  0.571812284584233  0.081269032202556  0.0566889614303889  1.0000
  H   H11       1.0  0.42818655702726743  0.918724709786865  0.5566867685945169  1.0000
  H   H12       1.0  0.5091320011387026  0.08131648268735599  0.4432932110869956  1.0000
  H   H13       1.0  0.2778091928775838  0.9175302688167336  0.8719618828667066  1.0000
  H   H14       1.0  0.3599365076274808  0.0823434499719866  0.1280856170644071  1.0000
  H   H15       1.0  0.6400662488427715  0.9176539968981247  0.6280839827737523  1.0000
  H   H16       1.0  0.7221977340024781  0.08247378754694518  0.3719629113003151  1.0000
  H   H17       1.0  0.5655512423828668  0.1681985251393812  0.8467273510916798  1.0000
  H   H18       1.0  0.3974405442271945  0.8317762387100132  0.1532963780317829  1.0000
  H   H19       1.0  0.6025596915605291  0.16822129596945964  0.6532921353678347  1.0000
  H   H20       1.0  0.4344534308307005  0.8318042913016368  0.3467316913695342  1.0000
  H   H21       1.0  0.7248839670254911  0.07342530584614339  0.8073023286421729  1.0000
  H   H22       1.0  0.6515217611987795  0.9267354756669378  0.19268369450429654  1.0000
  H   H23       1.0  0.3484789089608214  0.073262196076314  0.6926787605222628  1.0000
  H   H24       1.0  0.27511829599962573  0.9265762212825306  0.3073054892617932  1.0000
  H   H25       1.0  0.26361762684062034  0.4939866416737857  0.9914334164719989  1.0000
  H   H26       1.0  0.7692404957709797  0.5060356111348128  0.008522489486019  1.0000
  H   H27       1.0  0.23076234148047806  0.4939614196265865  0.5085228035542144  1.0000
  H   H28       1.0  0.7363872428605519  0.5060166783666772  0.49143301575232096  1.0000
  H   H29       1.0  0.37452292355243355  0.6956152681936628  0.0147413142645902  1.0000
  H   H30       1.0  0.6786437206648799  0.3044086918007948  0.98520681211712  1.0000
  H   H31       1.0  0.321357624124289  0.6955876936396378  0.4852061398642817  1.0000
  H   H32       1.0  0.6254758657295556  0.3043875451897264  0.5147410656601679  1.0000
  H   H33       1.0  0.5160357377526951  0.6010562675447203  0.9493801391599348  1.0000
  H   H34       1.0  0.9146828133955084  0.39903263438829845  0.0505591174601676  1.0000
  H   H35       1.0  0.08531711268499016  0.6009633905771352  0.5505551686944017  1.0000
  H   H36       1.0  0.48397097232466296  0.39895151477178814  0.4493782681674219  1.0000
  Au  Au1       1.0  0.011067587874585335  0.9999581013905896  0.5000737509723834  1.0000
  Au  Au2       1.0  0.9889116960227894  4.235717722880002e-05  7.4683782266e-05  1.0000
  C   C1        1.0  0.10425616977691732  0.1846035940433524  0.5890490707749194  1.0000
  C   C2        1.0  0.9199047591245135  0.8153232845165165  0.4110863698992445  1.0000
  C   C3        1.0  0.08007263683678192  0.1846797567056555  0.9110869980747297  1.0000
  C   C4        1.0  0.8957378415912345  0.815399478089418  0.08904837885916092  1.0000
  C   C5        1.0  0.4240079575461237  0.7750171352801798  0.8058914017339234  1.0000
  C   C6        1.0  0.6486862950087158  0.22496362017555777  0.1940653373849841  1.0000
  C   C7        1.0  0.3513163657966203  0.7750352084955239  0.6940636903241852  1.0000
  C   C8        1.0  0.5759917384787627  0.22498208266627273  0.3058928570854107  1.0000
  C   C9        1.0  0.43283428510799393  0.9197079109231299  0.8640964029057726  1.0000
  C   C10       1.0  0.5128275414428175  0.0802385581440745  0.135903103657796  1.0000
  C   C11       1.0  0.48717530123890646  0.91975891592962  0.6359010666184234  1.0000
  C   C12       1.0  0.5671714029549264  0.08029381376078251  0.36409858327430566  1.0000
  C   C13       1.0  0.5671215380550834  0.06538086812530959  0.8063247638982461  1.0000
  C   C14       1.0  0.5017256484208802  0.934641478748425  0.1936905178247841  1.0000
  C   C15       1.0  0.4982750328487597  0.06535619650053802  0.6936867577680204  1.0000
  C   C16       1.0  0.43288071419575436  0.9346206556035954  0.3063291230187772  1.0000
  C   C17       1.0  0.365302157318098  0.6039607342362531  0.9592690329061497  1.0000
  C   C18       1.0  0.7610076123774406  0.3960760533288906  0.0406838737409458  1.0000
  C   C19       1.0  0.2389941801970395  0.6039210893889332  0.5406818921975685  1.0000
  C   C20       1.0  0.6347001350024684  0.39604362611152066  0.4592683394232893  1.0000
  N   N1        1.0  0.1612081157311566  0.2936274567502579  0.6425445566525739  1.0000
  N   N2        1.0  0.8677930781695268  0.7063326924241056  0.3575581037113835  1.0000
  N   N3        1.0  0.13219599283408462  0.2936667056426359  0.8575565517965273  1.0000
  N   N4        1.0  0.8387922488005017  0.7063677361774195  0.1425491546194948  1.0000
  N   N5        1.0  0.2900196535039896  0.629800230476583  0.8567699167689539  1.0000
  N   N6        1.0  0.6599356181103249  0.3702025687189732  0.1431921249521295  1.0000
  N   N7        1.0  0.3400642589931593  0.62979723515582  0.6431911963839028  1.0000
  N   N8        1.0  0.7099831550493364  0.3702014687906754  0.3567701966875632  1.0000
  Cl  Cl1       1.0  0.775492172293923  0.5510255844660321  0.7499881806638412  1.0000
  Cl  Cl2       1.0  0.2245094586686776  0.4489757432186039  0.2499942235771186  1.0000
  O   O1        1.0  0.8814679100169444  0.4536177726679186  0.7154709437791027  1.0000
  O   O2        1.0  0.42795647482365246  0.5463041743030744  0.2844837655904584  1.0000
  O   O3        1.0  0.5720405151584984  0.4536984257282981  0.7844810675385503  1.0000
  O   O4        1.0  0.11852716681918453  0.5463822829027265  0.21547360642917818  1.0000
  O   O5        1.0  0.8856482771698709  0.6493938047172136  0.8368387347926003  1.0000
  O   O6        1.0  0.23614260308979607  0.3504772030461893  0.16318286181275  1.0000
  O   O7        1.0  0.7638541197434066  0.6495215183239154  0.6631830553194007  1.0000
  O   O8        1.0  0.11435488762060689  0.350608977347555  0.33683978138706294  1.0000
