data_image0
_chemical_formula_structural       Tl4H16C24S4N4O20
_chemical_formula_sum              "Tl4 H16 C24 S4 N4 O20"
_cell_length_a       7.740110094081629
_cell_length_b       8.244015961028222
_cell_length_c       14.59631787793322
_cell_angle_alpha    90.0001762246595
_cell_angle_beta     106.3771964860729
_cell_angle_gamma    89.99970814437384

_space_group_name_H-M_alt    "P 1"
_space_group_IT_number       1

loop_
  _space_group_symop_operation_xyz
  'x, y, z'

loop_
  _atom_site_type_symbol
  _atom_site_label
  _atom_site_symmetry_multiplicity
  _atom_site_fract_x
  _atom_site_fract_y
  _atom_site_fract_z
  _atom_site_occupancy
  Tl  Tl1       1.0  0.9064173038103436  0.35617664251666536  0.5858587926289474  1.0000
  Tl  Tl2       1.0  0.5935776024759535  0.8561856379271549  0.4141366801264397  1.0000
  Tl  Tl3       1.0  0.0935822623444267  0.6438194813392143  0.4141410955680271  1.0000
  Tl  Tl4       1.0  0.40642171001955063  0.14381533792543888  0.5858604327709926  1.0000
  H   H1        1.0  0.6147642527209174  0.608607827471623  0.20626568891142943  1.0000
  H   H2        1.0  0.8852373023404496  0.10859408217514503  0.7937309336264986  1.0000
  H   H3        1.0  0.38522999637358885  0.39139436140246897  0.7937342176898879  1.0000
  H   H4        1.0  0.11476457356295101  0.8914056806671129  0.2062651293314204  1.0000
  H   H5        1.0  0.5524333260165194  0.11256356141252873  0.2855058377458661  1.0000
  H   H6        1.0  0.9475698719647524  0.6125507540766437  0.7144944262820873  1.0000
  H   H7        1.0  0.4475694376471041  0.8874386274579893  0.714499938769073  1.0000
  H   H8        1.0  0.052434820991066985  0.3874490087638024  0.2855033620385683  1.0000
  H   H9        1.0  0.6707009690923016  0.5133854593935825  0.05642123157597469  1.0000
  H   H10       1.0  0.829301112790816  0.013376498726763905  0.9435760003799485  1.0000
  H   H11       1.0  0.3292959702426971  0.4866118774707646  0.9435790127350785  1.0000
  H   H12       1.0  0.17069679117847159  0.9866244771267395  0.056420249836108397  1.0000
  H   H13       1.0  0.6762251493967997  0.21834103409452155  0.021445373062711316  1.0000
  H   H14       1.0  0.8237692094524292  0.7183315811770614  0.9785511962954841  1.0000
  H   H15       1.0  0.32377326187923217  0.7816550897697429  0.9785564277545973  1.0000
  H   H16       1.0  0.1762287579316819  0.2816681816772616  0.02144574774546729  1.0000
  C   C1        1.0  0.5842062285457531  0.3647754288666506  0.2562712591592984  1.0000
  C   C2        1.0  0.9157967700368559  0.8647653724035539  0.7437259281710807  1.0000
  C   C3        1.0  0.4157894924868302  0.6352267600084005  0.7437302039488144  1.0000
  C   C4        1.0  0.0842051058724564  0.13523196443660623  0.2562701347857654  1.0000
  C   C5        1.0  0.6152776208310301  0.47888945143315464  0.19161274179236903  1.0000
  C   C6        1.0  0.8847191883010695  0.978872645009709  0.8083810959655509  1.0000
  C   C7        1.0  0.3847180367926413  0.5211115244389861  0.8083880274897765  1.0000
  C   C8        1.0  0.1152813424938941  0.021124691833229303  0.1916147981353546  1.0000
  C   C9        1.0  0.5797746691800614  0.2002354277273497  0.23611966248799385  1.0000
  C   C10       1.0  0.9202265033749131  0.7002181892393864  0.7638777350968055  1.0000
  C   C11       1.0  0.42022521402813595  0.7997631221399717  0.763883694837176  1.0000
  C   C12       1.0  0.0797783164075909  0.29978036060374796  0.23612144087416448  1.0000
  C   C13       1.0  0.646551019002395  0.4254867576542979  0.10701666612571609  1.0000
  C   C14       1.0  0.8534386768513754  0.9254778745594057  0.8929837432410891  1.0000
  C   C15       1.0  0.3534447654538652  0.5745105792184336  0.8929854908056639  1.0000
  C   C16       1.0  0.1465620441673821  0.07452431429332765  0.10701423233824409  1.0000
  C   C17       1.0  0.6139246957775767  0.15023276950731207  0.15173312432864344  1.0000
  C   C18       1.0  0.8860707554811358  0.6502222541031558  0.8482717105598141  1.0000
  C   C19       1.0  0.3860726874375331  0.8497657803711651  0.8482719767609125  1.0000
  C   C20       1.0  0.11393265576925421  0.3497787217429791  0.1517266027308608  1.0000
  C   C21       1.0  0.6488837194701206  0.2603026358071716  0.0866195645192391  1.0000
  C   C22       1.0  0.851114280289721  0.7602853919481807  0.9133754671237709  1.0000
  C   C23       1.0  0.3511108466837171  0.7396995530762639  0.9133838112092008  1.0000
  C   C24       1.0  0.14888503220578295  0.23971558390441328  0.0866216457736542  1.0000
  S   S1        1.0  0.5530821232851009  0.43119612564329685  0.36697228108454266  1.0000
  S   S2        1.0  0.9469248410619785  0.931175568383701  0.633028246989106  1.0000
  S   S3        1.0  0.446920450142926  0.5688060632216152  0.6330314139541215  1.0000
  S   S4        1.0  0.053078570203176384  0.06881934245719633  0.3669700662988831  1.0000
  N   N1        1.0  0.613010013941704  0.9761784715591519  0.13227615101274637  1.0000
  N   N2        1.0  0.8869973790664787  0.4761602971704806  0.8677169537126942  1.0000
  N   N3        1.0  0.3869873058556408  0.023822504319554103  0.8677282562524624  1.0000
  N   N4        1.0  0.11300334196113943  0.5238382526791129  0.1322810218650261  1.0000
  O   O1        1.0  0.5367142336769745  0.28493629526692393  0.4208916061858616  1.0000
  O   O2        1.0  0.9633017667821165  0.7849274740422135  0.5791125806788031  1.0000
  O   O3        1.0  0.46328424100205723  0.7150634676023488  0.5791108884584801  1.0000
  O   O4        1.0  0.03671099686565779  0.21506986277947968  0.4208862207764312  1.0000
  O   O5        1.0  0.3925314958077593  0.535704971759529  0.3411561759806361  1.0000
  O   O6        1.0  0.10747184785765278  0.03569421569935121  0.6588471691380349  1.0000
  O   O7        1.0  0.607469669085205  0.464300856109432  0.658846656378273  1.0000
  O   O8        1.0  0.8925289365818261  0.9643043341521109  0.3411515002651128  1.0000
  O   O9        1.0  0.7180805661615324  0.526401883797462  0.4125223003839906  1.0000
  O   O10       1.0  0.7819265792062782  0.026383798787193807  0.5874728432283263  1.0000
  O   O11       1.0  0.2819230987363285  0.47359909205615497  0.5874787882083865  1.0000
  O   O12       1.0  0.21807676864406034  0.9736123250528841  0.4125247762347755  1.0000
  O   O13       1.0  0.6830249574371978  0.9282354674104029  0.07033201198805017  1.0000
  O   O14       1.0  0.816968950615255  0.4282276985509697  0.9296709878599358  1.0000
  O   O15       1.0  0.31696570020915255  0.07176186948090901  0.9296722448212619  1.0000
  O   O16       1.0  0.18302357289371685  0.571774490314688  0.0703245869328981  1.0000
  O   O17       1.0  0.5410534188181659  0.8843218506867176  0.17845668768674727  1.0000
  O   O18       1.0  0.9589444212634675  0.38430184436913367  0.8215433106694335  1.0000
  O   O19       1.0  0.45895472530283155  0.11568033817269453  0.8215497642519551  1.0000
  O   O20       1.0  0.04105495464980181  0.6156967054832378  0.17845449605233912  1.0000
