data_image0
_chemical_formula_structural       Cu2H24C28N12Cl4
_chemical_formula_sum              "Cu2 H24 C28 N12 Cl4"
_cell_length_a       7.606942693165911
_cell_length_b       9.509766537405262
_cell_length_c       10.930305298501313
_cell_angle_alpha    79.03460267279951
_cell_angle_beta     86.75339501011845
_cell_angle_gamma    79.92116986255353

_space_group_name_H-M_alt    "P 1"
_space_group_IT_number       1

loop_
  _space_group_symop_operation_xyz
  'x, y, z'

loop_
  _atom_site_type_symbol
  _atom_site_label
  _atom_site_symmetry_multiplicity
  _atom_site_fract_x
  _atom_site_fract_y
  _atom_site_fract_z
  _atom_site_occupancy
  Cu  Cu1       1.0  0.19621955089218088  0.2573264746452891  0.2238794684257357  1.0000
  Cu  Cu2       1.0  0.8037611601596237  0.7426733234534522  0.7761302020496431  1.0000
  H   H1        1.0  0.872938665540559  0.0801125438279513  0.3442488938790476  1.0000
  H   H2        1.0  0.12709524979103298  0.9199102492586628  0.6557064483691307  1.0000
  H   H3        1.0  0.7126745538343542  0.8686721281994922  0.38725449014675917  1.0000
  H   H4        1.0  0.2873365989628738  0.13135269657371407  0.6127325398100752  1.0000
  H   H5        1.0  0.7848799215825365  0.6686471515920545  0.2651972232027475  1.0000
  H   H6        1.0  0.21510826949985062  0.3313547576675332  0.7348200416512897  1.0000
  H   H7        1.0  0.016800164669192007  0.6717965536813039  0.09734037249338459  1.0000
  H   H8        1.0  0.9831676297640543  0.32818261076531013  0.9026768055732363  1.0000
  H   H9        1.0  0.3989211921366404  0.892033443031792  0.9038512219571119  1.0000
  H   H10       1.0  0.6010605510235932  0.1079351282648844  0.0961167901484146  1.0000
  H   H11       1.0  0.25721957021629294  0.7579151359916165  0.9389097173966264  1.0000
  H   H12       1.0  0.7428116137374869  0.24203699358888292  0.06106995370803501  1.0000
  H   H13       1.0  0.5762100144276091  0.6565842355673366  0.9999732106677827  1.0000
  H   H14       1.0  0.4238428771890811  0.34345559842571294  3.0770939304120777e-05  1.0000
  H   H15       1.0  0.5657422551084038  0.7850997995268469  0.10087580509183879  1.0000
  H   H16       1.0  0.4342510706372095  0.2149608913575278  0.899107059981894  1.0000
  H   H17       1.0  0.44838239778349004  0.8344455362123283  0.3133327478399154  1.0000
  H   H18       1.0  0.5516233728191011  0.16556712305174406  0.6866958023122507  1.0000
  H   H19       1.0  0.34447354498363586  0.7877446013834798  0.5327087392334704  1.0000
  H   H20       1.0  0.6555207858573835  0.21225947980380508  0.467306099836776  1.0000
  H   H21       1.0  0.200823446993823  0.5757169176767363  0.6197011160836112  1.0000
  H   H22       1.0  0.7991763107224942  0.4242797320514455  0.38028359973213105  1.0000
  H   H23       1.0  0.1682862880122755  0.3907096187718651  0.4895244419819208  1.0000
  H   H24       1.0  0.8317455007634107  0.6092848608227825  0.5104492809256769  1.0000
  C   C1        1.0  0.03956449128705938  0.9916615155504187  0.19911708876273343  1.0000
  C   C2        1.0  0.960436558606659  0.008328700488718295  0.8008539760087248  1.0000
  C   C3        1.0  0.9045263344537843  0.9919180295423544  0.29197598071043274  1.0000
  C   C4        1.0  0.09546988577346838  0.0080960087062962  0.7080051535067611  1.0000
  C   C5        1.0  0.8157750834184155  0.8737683813752993  0.31389158852272914  1.0000
  C   C6        1.0  0.18421722996058068  0.12622606686505833  0.6861010993536569  1.0000
  C   C7        1.0  0.856804167148574  0.7602993012203357  0.24413124893833074  1.0000
  C   C8        1.0  0.1431881691297292  0.23970158370244118  0.75587412206999  1.0000
  C   C9        1.0  0.9876861935346425  0.7596639735114223  0.1504381262983117  1.0000
  C   C10       1.0  0.012294524601301798  0.24030982813012255  0.8495638482756647  1.0000
  C   C11       1.0  0.08040972720319672  0.8773619797602732  0.1307982710108959  1.0000
  C   C12       1.0  0.9195983462965243  0.12262606240477679  0.8691710344581836  1.0000
  C   C13       1.0  0.3393794560121106  0.8208417491929367  0.9796518948263752  1.0000
  C   C14       1.0  0.6606508074193868  0.1791472921627388  0.020324597007700614  1.0000
  C   C15       1.0  0.48751354552008047  0.721267816884108  0.058672688378202054  1.0000
  C   C16       1.0  0.5124949626228528  0.27875054396653093  0.9413072569630146  1.0000
  C   C17       1.0  0.37555547041124265  0.631971210257447  0.27989207746525585  1.0000
  C   C18       1.0  0.6244930369365917  0.3680448018258815  0.7201049473909863  1.0000
  C   C19       1.0  0.39294936472209235  0.7364942846532968  0.35088961345571335  1.0000
  C   C20       1.0  0.6070768052182415  0.2635216287225504  0.6491321069666897  1.0000
  C   C21       1.0  0.329743432543367  0.710875805979377  0.47319000269677514  1.0000
  C   C22       1.0  0.6702699997481785  0.28911849356092734  0.526821078479216  1.0000
  C   C23       1.0  0.25011356880855123  0.5875593368293578  0.5231973374418929  1.0000
  C   C24       1.0  0.749901178363359  0.41244146083359806  0.4768153865517704  1.0000
  C   C25       1.0  0.23109800197657654  0.48491400895709086  0.4524627131780079  1.0000
  C   C26       1.0  0.7689307798097218  0.5150824728378111  0.5475409981735027  1.0000
  C   C27       1.0  0.2953398162585115  0.5090951006077089  0.3288196936935962  1.0000
  C   C28       1.0  0.7047168387936223  0.4909002672705751  0.6711794245580834  1.0000
  N   N1        1.0  0.15905715695126327  0.08479043269947789  0.1587728389211236  1.0000
  N   N2        1.0  0.8409543526675805  0.9151999613738225  0.8411639280373747  1.0000
  N   N3        1.0  0.26965822716240945  0.03535554900140169  0.0744235164134892  1.0000
  N   N4        1.0  0.7303120515699533  0.9646564636996262  0.925541598048426  1.0000
  N   N5        1.0  0.22299434690955877  0.9114368115575714  0.054864683468856916  1.0000
  N   N6        1.0  0.7769930623952489  0.08854267939724281  0.9450894452486979  1.0000
  N   N7        1.0  0.29285616416920845  0.4346287788400786  0.23287542065404662  1.0000
  N   N8        1.0  0.7072063375078911  0.5653960085874415  0.7671004152349923  1.0000
  N   N9        1.0  0.36450242852773573  0.5013085008461928  0.13145841499531494  1.0000
  N   N10       1.0  0.635525673379881  0.49869777793613684  0.8685400818419565  1.0000
  N   N11       1.0  0.4166885295840571  0.6198791852202062  0.1580243195920374  1.0000
  N   N12       1.0  0.5833650064143966  0.38014444698310257  0.8419666993599507  1.0000
  Cl  Cl1       1.0  0.924188715260847  0.3834025538387707  0.163738092227085  1.0000
  Cl  Cl2       1.0  0.07572276930736878  0.616536910708433  0.8364085127284255  1.0000
  Cl  Cl3       1.0  0.3985065986916112  0.11768991149712352  0.35764402288372577  1.0000
  Cl  Cl4       1.0  0.6011829550902446  0.8822921251135298  0.6425347638756308  1.0000
