data_image0
_chemical_formula_structural       Ba2H52C28S4N4O14
_chemical_formula_sum              "Ba2 H52 C28 S4 N4 O14"
_cell_length_a       7.772298613555259
_cell_length_b       11.509657887681692
_cell_length_c       13.1598
_cell_angle_alpha    82.0219008686218
_cell_angle_beta     80.9594951218852
_cell_angle_gamma    76.54525561264106

_space_group_name_H-M_alt    "P 1"
_space_group_IT_number       1

loop_
  _space_group_symop_operation_xyz
  'x, y, z'

loop_
  _atom_site_type_symbol
  _atom_site_label
  _atom_site_symmetry_multiplicity
  _atom_site_fract_x
  _atom_site_fract_y
  _atom_site_fract_z
  _atom_site_occupancy
  Ba  Ba1       1.0  0.3024068637253165  0.3204011385021914  0.2695817695347671  1.0000
  Ba  Ba2       1.0  0.6975983989333724  0.6796004171789747  0.7304183131141498  1.0000
  H   H1        1.0  0.14070334905835577  0.30503839393036  0.0227799365489005  1.0000
  H   H2        1.0  0.8592948242565082  0.6949649586681163  0.9772213457802651  1.0000
  H   H3        1.0  0.09936251437905234  0.41369618696082  0.09203329779786168  1.0000
  H   H4        1.0  0.900629297076655  0.5863107594722834  0.9079673787889889  1.0000
  H   H5        1.0  0.14772212466918688  0.1129793791694453  0.6006024069866527  1.0000
  H   H6        1.0  0.8522798048953245  0.8870203795944037  0.39940048278576507  1.0000
  H   H7        1.0  0.003146880702907069  0.21699483632045977  0.519656248127319  1.0000
  H   H8        1.0  0.9968564871617929  0.7830004301501107  0.48034781337791804  1.0000
  H   H9        1.0  0.13672788827871327  0.3163320192457562  0.6383420150539152  1.0000
  H   H10       1.0  0.8632759194106254  0.6836659426007828  0.3616593987702217  1.0000
  H   H11       1.0  0.3544562088077043  0.255015809756955  0.5759803999039478  1.0000
  H   H12       1.0  0.6455407971978457  0.7449830505482424  0.4240184965191673  1.0000
  H   H13       1.0  0.37701948189711476  0.4556344401407629  0.5422519262407164  1.0000
  H   H14       1.0  0.6229867792371307  0.5443599278711488  0.4577489362622487  1.0000
  H   H15       1.0  0.14798487254564924  0.5281301706955475  0.5720377520984599  1.0000
  H   H16       1.0  0.8520212530931628  0.471868689609643  0.42796637710601004  1.0000
  H   H17       1.0  0.13959123511490648  0.6031469762411845  0.3831187185127902  1.0000
  H   H18       1.0  0.8604116929251544  0.39684559485341003  0.6168826714437686  1.0000
  H   H19       1.0  0.2985720498528011  0.6542602892238989  0.44171970026162205  1.0000
  H   H20       1.0  0.7014285769069628  0.3457394695399572  0.5582802708564074  1.0000
  H   H21       1.0  0.501134399397493  0.6755834085246306  0.2908048713621767  1.0000
  H   H22       1.0  0.49887866342054094  0.3244100610286296  0.7092000283217459  1.0000
  H   H23       1.0  0.3440028431048461  0.6456764152172739  0.2164889778977468  1.0000
  H   H24       1.0  0.6560024195538503  0.3543251404638923  0.7835179437608845  1.0000
  H   H25       1.0  0.6627851268546436  0.6029133769904291  0.1305173026228985  1.0000
  H   H26       1.0  0.3372170903699114  0.39708548331476123  0.8694833898481845  1.0000
  H   H27       1.0  0.7220097244884228  0.49229784254690406  0.2359122134638199  1.0000
  H   H28       1.0  0.27798843215727936  0.5076974239236591  0.7640854926536421  1.0000
  H   H29       1.0  0.7401801488681696  0.44956355499707723  0.01237506791291312  1.0000
  H   H30       1.0  0.2598104952782236  0.5504388991427405  0.9876217029879513  1.0000
  H   H31       1.0  0.8084095744262709  0.3440674379797386  0.12092613682856518  1.0000
  H   H32       1.0  0.1915842506496972  0.6559332192427689  0.879065997658671  1.0000
  H   H33       1.0  0.5130511558682116  0.33347011812332994  0.9943485980713618  1.0000
  H   H34       1.0  0.48693818547343437  0.6665323360164948  0.005649813514921189  1.0000
  H   H35       1.0  0.7396593077153354  0.24760532275605135  0.9787917252214413  1.0000
  H   H36       1.0  0.2603284431615194  0.752398029842425  0.021203685341887983  1.0000
  H   H37       1.0  0.6631440852084152  0.0632514894354514  0.02920342273348808  1.0000
  H   H38       1.0  0.33685364828181  0.9367491677870562  0.9707982276068776  1.0000
  H   H39       1.0  0.4281774451826691  0.1282693485900737  0.045725400913802616  1.0000
  H   H40       1.0  0.5718211512876721  0.8717286132564654  0.954269657522559  1.0000
  H   H41       1.0  0.5124764669088931  0.9290763308583863  0.15329052999845064  1.0000
  H   H42       1.0  0.4875193884565049  0.0709261232814384  0.8467110765102532  1.0000
  H   H43       1.0  0.6486445510407819  0.9930906116934182  0.2177450782860717  1.0000
  H   H44       1.0  0.3513484110550777  0.006912740905065101  0.7822559277750614  1.0000
  H   H45       1.0  0.47775304663403523  0.9575592671947817  0.37500637856661  1.0000
  H   H46       1.0  0.5222412182665721  0.0424440854036945  0.6249884274692974  1.0000
  H   H47       1.0  0.32334071392715913  0.8987120220947418  0.319541111763229  1.0000
  H   H48       1.0  0.6766542784581303  0.1012931274210516  0.6804549284099863  1.0000
  H   H49       1.0  0.07843141439760609  0.0722387713789558  0.37789353009443255  1.0000
  H   H50       1.0  0.9215628505030014  0.9277645812195203  0.6221058352812819  1.0000
  H   H51       1.0  0.18283698298966292  0.9750405772792377  0.4812746859701137  1.0000
  H   H52       1.0  0.8171595831912412  0.0249555876499841  0.5187245784641945  1.0000
  C   C1        1.0  0.1425252762074152  0.18546612513766553  0.5358074128003594  1.0000
  C   C2        1.0  0.8574751983877461  0.8145300397915635  0.4641922488074642  1.0000
  C   C3        1.0  0.21229606059499415  0.2863459615766075  0.5648646080120514  1.0000
  C   C4        1.0  0.7877044140001742  0.7136502033526143  0.4351365733757148  1.0000
  C   C5        1.0  0.2479544864487764  0.48524943438467727  0.5116774079346911  1.0000
  C   C6        1.0  0.752051487025426  0.5147458320858931  0.48832489197964435  1.0000
  C   C7        1.0  0.26509945168906046  0.5747368150559852  0.4176947517135758  1.0000
  C   C8        1.0  0.7349013105661371  0.4252584514145852  0.5823095516026341  1.0000
  C   C9        1.0  0.4575678258827196  0.6041406715155588  0.2598511541831172  1.0000
  C   C10       1.0  0.5424388750761648  0.3958563918723215  0.7401516199785547  1.0000
  C   C11       1.0  0.6122292233640109  0.5381066556201404  0.19107295898302107  1.0000
  C   C12       1.0  0.3877744321607252  0.46188771239177134  0.8089289052208741  1.0000
  C   C13       1.0  0.696073608756407  0.3867451226341885  0.07693893569319953  1.0000
  C   C14       1.0  0.30391964099948854  0.6132573315056362  0.9230575933966989  1.0000
  C   C15       1.0  0.6309406305532547  0.292730408791499  0.033995438901904186  1.0000
  C   C16       1.0  0.36904972593310253  0.7072729438069842  0.965998969960495  1.0000
  C   C17       1.0  0.5498793468741069  0.1034629050771088  0.08461850003907051  1.0000
  C   C18       1.0  0.45012127988565687  0.8965368536867402  0.915379191409059  1.0000
  C   C19       1.0  0.528437525575967  0.013524498160109002  0.1779490321750856  1.0000
  C   C20       1.0  0.4715554365198927  0.9864788544383672  0.8220496942161475  1.0000
  C   C21       1.0  0.3532217766312725  0.9817502665278752  0.33899315718474554  1.0000
  C   C22       1.0  0.6467722006092982  0.0182539845292595  0.6610030862625322  1.0000
  C   C23       1.0  0.20246032030563293  0.0411368280581144  0.41377860433166797  1.0000
  C   C24       1.0  0.7975374131845921  0.9588638291643932  0.5862200064488264  1.0000
  C   C25       1.0  0.81877941715463  0.2558468840144528  0.3444071845527219  1.0000
  C   C26       1.0  0.1812255411748609  0.744147483997459  0.6555945587456975  1.0000
  C   C27       1.0  0.004954664186236362  0.6410897837745466  0.1621591614012914  1.0000
  C   C28       1.0  0.9950437967886643  0.3589126703652781  0.8378513219760605  1.0000
  S   S1        1.0  0.6466301891168482  0.2004030003061885  0.3975928817498655  1.0000
  S   S2        1.0  0.3533834656904274  0.7995967584576604  0.6023960017437346  1.0000
  S   S3        1.0  0.9060527254386908  0.7763257807890868  0.12044185775828005  1.0000
  S   S4        1.0  0.0939513865798531  0.22367936872670674  0.8795616948661973  1.0000
  N   N1        1.0  0.9467462518796308  0.2944662309163419  0.30843117056339514  1.0000
  N   N2        1.0  0.05328115845983209  0.7055353247648171  0.6915645770223834  1.0000
  N   N3        1.0  0.07807433572126848  0.5424516016841991  0.19240829795030115  1.0000
  N   N4        1.0  0.9219218239733352  0.45755804012487294  0.8075977270286501  1.0000
  O   O1        1.0  0.25344043337921807  0.1413706727228572  0.4456899968937051  1.0000
  O   O2        1.0  0.7465656922595869  0.8586281875823403  0.5543088130809865  1.0000
  O   O3        1.0  0.19530265315693637  0.3834334040253964  0.483619352706846  1.0000
  O   O4        1.0  0.8046969584581091  0.6165654562798011  0.5163831013551459  1.0000
  O   O5        1.0  0.4049451586850736  0.5199137662795366  0.34313796282481945  1.0000
  O   O6        1.0  0.5950596641489765  0.4800850940256538  0.6568647675051977  1.0000
  O   O7        1.0  0.5526693711002365  0.4512625403170034  0.14447885718197992  1.0000
  O   O8        1.0  0.44732445397573145  0.5487381169055041  0.8555193564249919  1.0000
  O   O9        1.0  0.5852157465542617  0.20717468320214041  0.11839918114593932  1.0000
  O   O10       1.0  0.41477938132646125  0.7928259740203673  0.881595112105714  1.0000
  O   O11       1.0  0.3752943080442321  0.0624141259673578  0.24701018433114544  1.0000
  O   O12       1.0  0.624705455735416  0.9375883281724668  0.7529880199012311  1.0000
  O   O13       1.0  0.18920580252797947  0.34283924499595747  0.07155870208205069  1.0000
  O   O14       1.0  0.8107878703833933  0.6571578183919229  0.928445281134465  1.0000
