data_image0
_chemical_formula_structural       Zr6H52C60N2O32
_chemical_formula_sum              "Zr6 H52 C60 N2 O32"
_cell_length_a       14.778191321289993
_cell_length_b       14.782919569914501
_cell_length_c       14.80764411751333
_cell_angle_alpha    60.024886648440436
_cell_angle_beta     59.92179489461579
_cell_angle_gamma    60.02526804022783

_space_group_name_H-M_alt    "P 1"
_space_group_IT_number       1

loop_
  _space_group_symop_operation_xyz
  'x, y, z'

loop_
  _atom_site_type_symbol
  _atom_site_label
  _atom_site_symmetry_multiplicity
  _atom_site_fract_x
  _atom_site_fract_y
  _atom_site_fract_z
  _atom_site_occupancy
  Zr  Zr1       1.0  0.8800741706142644  0.8813217287266116  0.613817595092904  1.0000
  Zr  Zr2       1.0  0.12432945175832802  0.11430765807159562  0.380456551512566  1.0000
  Zr  Zr3       1.0  0.11903598575069912  0.8765524058342323  0.618145710505047  1.0000
  Zr  Zr4       1.0  0.8845920195214629  0.12156716468719254  0.375010487730421  1.0000
  Zr  Zr5       1.0  0.12087737959001292  0.8792769437661506  0.3772873320762784  1.0000
  Zr  Zr6       1.0  0.8828455981812127  0.1179134070322832  0.6164561861302006  1.0000
  H   H1        1.0  0.09131089963611291  0.7161440623711857  0.5924355990637267  1.0000
  H   H2        1.0  0.09855343472064243  0.09502213079819198  0.21486271042729752  1.0000
  H   H3        1.0  0.09674016783843334  0.08717022477920007  0.5952873354089974  1.0000
  H   H4        1.0  0.719847872198912  0.09796761473165122  0.5868003318480461  1.0000
  H   H5        1.0  0.1646474831302455  0.560788522937962  0.39634012844892647  1.0000
  H   H6        1.0  0.8372513790125211  0.4429996823468443  0.5863517277330247  1.0000
  H   H7        1.0  0.6343492896547928  0.08619130971106852  0.9452320898018344  1.0000
  H   H8        1.0  0.3824218557436011  0.8934052573523205  0.06111769552668279  1.0000
  H   H9        1.0  0.8599179814413416  0.13570404851159906  0.09042551271181748  1.0000
  H   H10       1.0  0.13086379507824128  0.8495241758996243  0.9168025398901065  1.0000
  H   H11       1.0  0.6117772203923835  0.4257314133130947  0.34174712680424335  1.0000
  H   H12       1.0  0.4096250383737042  0.590379219428499  0.6366682845452019  1.0000
  H   H13       1.0  0.7447712804386413  0.6120673022098801  0.9528585176708901  1.0000
  H   H14       1.0  0.851580416986252  0.5248334592622044  0.8723668091925775  1.0000
  H   H15       1.0  0.8523794313455966  0.3592591978289902  0.045905811790625216  1.0000
  H   H16       1.0  0.746024154982777  0.44635051295354355  0.1265506727481522  1.0000
  H   H17       1.0  0.5991268894875854  0.8610801638767855  0.6311420347247533  1.0000
  H   H18       1.0  0.4099486054532734  0.1312091876144237  0.3583290604712914  1.0000
  H   H19       1.0  0.28031400636027126  0.40426371753159174  0.353432536117012  1.0000
  H   H20       1.0  0.24497905512747298  0.28101450515625004  0.43523861025311567  1.0000
  H   H21       1.0  0.2220615884340873  0.3606059818723537  0.3078237497384819  1.0000
  H   H22       1.0  0.7211090642420004  0.6019638747380612  0.6270198257535852  1.0000
  H   H23       1.0  0.7809616932081628  0.634374058698924  0.681566040215465  1.0000
  H   H24       1.0  0.7599293739719711  0.7232987744928536  0.5542513119620266  1.0000
  H   H25       1.0  0.5538452595291118  0.11440691570081195  0.11344525838209306  1.0000
  H   H26       1.0  0.4111748575971319  0.18663618048789488  0.1257438446823613  1.0000
  H   H27       1.0  0.4489029882966021  0.05871912284037252  0.22687238022230363  1.0000
  H   H28       1.0  0.5572539471676238  0.9192479044258378  0.7838816741638082  1.0000
  H   H29       1.0  0.6179366588506383  0.7950267708664498  0.8745651334322561  1.0000
  H   H30       1.0  0.4712359357529223  0.8460168755995952  0.9065513924736379  1.0000
  H   H31       1.0  0.7672161838854806  0.22551744240882238  0.9712081765030761  1.0000
  H   H32       1.0  0.8492028473243636  0.226976910139861  0.8321424376996517  1.0000
  H   H33       1.0  0.7629363214077641  0.14570618896163284  0.915098437331352  1.0000
  H   H34       1.0  0.21860219620498367  0.7552096318599768  0.04037386607219425  1.0000
  H   H35       1.0  0.22734951729272265  0.835532602027847  0.09228675066009373  1.0000
  H   H36       1.0  0.13787044204562443  0.7574980069068645  0.17869950231196435  1.0000
  H   H37       1.0  0.4959886382512053  0.5513842393645804  0.24531054997357432  1.0000
  H   H38       1.0  0.35350537320976355  0.6041122474233165  0.32300345757151666  1.0000
  H   H39       1.0  0.43621186169517745  0.6883536359367072  0.25075885840816164  1.0000
  H   H40       1.0  0.5281185249357563  0.46850443484666476  0.7301219750673483  1.0000
  H   H41       1.0  0.5883139979653292  0.3306044689684882  0.7269502172327906  1.0000
  H   H42       1.0  0.6700989423435785  0.41612146458760446  0.6512804148589525  1.0000
  H   H43       1.0  0.47919196897348104  0.7678057271733537  0.7286924512286105  1.0000
  H   H44       1.0  0.3396505991598671  0.8402086048859944  0.7282346696847242  1.0000
  H   H45       1.0  0.4327478180705669  0.7543161262637955  0.6468786857206511  1.0000
  H   H46       1.0  0.5271155536944221  0.22729751633512757  0.2634262241659685  1.0000
  H   H47       1.0  0.5903132272717571  0.23070238986340297  0.3373101505982632  1.0000
  H   H48       1.0  0.6684659167793683  0.1464945440314978  0.2539802247705937  1.0000
  H   H49       1.0  0.13622025441584631  0.379877503938765  0.18225052725223637  1.0000
  H   H50       1.0  0.19419953969137538  0.47774153900622457  0.07207251385150211  1.0000
  H   H51       1.0  0.108000107278173  0.7108205989164701  0.8850544004114556  1.0000
  H   H52       1.0  0.11537641629489315  0.6450483274074799  0.016145693995568405  1.0000
  C   C1        1.0  0.9932614768924066  0.7016579656324  0.4906104203067726  1.0000
  C   C2        1.0  0.3132970042103338  0.9928563879081553  0.1994763513539297  1.0000
  C   C3        1.0  0.008767449280647039  0.30050036284134773  0.4954703157307564  1.0000
  C   C4        1.0  0.6979775886789171  0.9952706823522491  0.8016499555646989  1.0000
  C   C5        1.0  0.987029478756938  0.7044410837618711  0.8099592920337386  1.0000
  C   C6        1.0  0.7006486494957187  0.0038215613686602944  0.48642841756232963  1.0000
  C   C7        1.0  0.9958021692763734  0.31258796542208245  0.20416436832695697  1.0000
  C   C8        1.0  0.31013056245335247  0.9866646133528153  0.5013943830328956  1.0000
  C   C9        1.0  0.30890597858609664  0.6977399775208967  0.49156749294727564  1.0000
  C   C10       1.0  0.9930177123774868  0.9937847753477129  0.808398527626835  1.0000
  C   C11       1.0  0.7054527010802616  0.3109454605894444  0.4930778891022669  1.0000
  C   C12       1.0  0.0014154238171995767  0.9946025357115148  0.19516777083738662  1.0000
  C   C13       1.0  0.009756004466957785  0.4028371720377706  0.4918132260418418  1.0000
  C   C14       1.0  0.9920413895246439  0.6006749797166506  0.49168914271617575  1.0000
  C   C15       1.0  0.10570516927974448  0.4339593063205812  0.4365325726054579  1.0000
  C   C16       1.0  0.8962408332748738  0.5694216621738521  0.5471161762399391  1.0000
  C   C17       1.0  0.09293818783856263  0.5334657790609826  0.4378833928553051  1.0000
  C   C18       1.0  0.9088636327747535  0.4703258828567129  0.5450764958483773  1.0000
  C   C19       1.0  0.41646486070910504  0.9915789046850423  0.10050898291159868  1.0000
  C   C20       1.0  0.599168116597717  0.9898785521227398  0.9048222765900888  1.0000
  C   C21       1.0  0.48806034037196605  0.04638665260252142  0.07058718039315437  1.0000
  C   C22       1.0  0.5293158919640674  0.932294139778122  0.9362836982327637  1.0000
  C   C23       1.0  0.5774769106766727  0.0442046760394419  0.9720820448114295  1.0000
  C   C24       1.0  0.4392048005047117  0.9355336869311162  0.034232017124736676  1.0000
  C   C25       1.0  0.9889245471349851  0.9958918027911353  0.9103437982153012  1.0000
  C   C26       1.0  0.0007925728532427635  0.9884620347880926  0.09761196007033855  1.0000
  C   C27       1.0  0.9091151129254412  0.07946658424103256  0.9585907747094143  1.0000
  C   C28       1.0  0.07951188764870662  0.9038326037998061  0.050498433830789155  1.0000
  C   C29       1.0  0.9185954845849764  0.0724497434072687  0.05129993915527099  1.0000
  C   C30       1.0  0.0706178281316244  0.9114738132759257  0.9572304844390588  1.0000
  C   C31       1.0  0.414372030044987  0.6013342530636905  0.48517496493631285  1.0000
  C   C32       1.0  0.6061189177416325  0.4138410633065063  0.494028942521716  1.0000
  C   C33       1.0  0.4711971197499664  0.5568703324181925  0.39810263854901257  1.0000
  C   C34       1.0  0.5510003431927404  0.46012855466548064  0.579530870780559  1.0000
  C   C35       1.0  0.5658536356124485  0.46347865212193545  0.4062771373601421  1.0000
  C   C36       1.0  0.45587618176686817  0.5530521168597673  0.5717713275723426  1.0000
  C   C37       1.0  0.9806213524262118  0.6153494096136358  0.917940702903941  1.0000
  C   C38       1.0  0.9850298580412796  0.42072410605348426  0.11539656826902707  1.0000
  C   C39       1.0  0.9104229542227886  0.5538500470456997  0.9644528399717558  1.0000
  C   C40       1.0  0.052430038328978426  0.4844726093630242  0.07489702271048773  1.0000
  C   C41       1.0  0.9112792335912445  0.4623294563931141  0.05946013189178258  1.0000
  C   C42       1.0  0.0475917746624931  0.5830966572485253  0.9792256497939749  1.0000
  C   C43       1.0  0.8237398060070543  0.5429357223525887  0.9475296448674728  1.0000
  C   C44       1.0  0.8243860241297938  0.4385928918642535  0.056666632270754774  1.0000
  C   C45       1.0  0.41083649172916387  0.9868670904381531  0.5021001449704413  1.0000
  C   C46       1.0  0.599653433792369  0.003960421967818206  0.48595367549972934  1.0000
  C   C47       1.0  0.4630194401005456  0.9076658824796909  0.5824084767889489  1.0000
  C   C48       1.0  0.5472378915635828  0.0834081808279521  0.4058771632321766  1.0000
  C   C49       1.0  0.5562714658382006  0.9198523001127442  0.5711768788471475  1.0000
  C   C50       1.0  0.453423821943275  0.07179263284503182  0.41766593788402423  1.0000
  C   C51       1.0  0.21931441828749615  0.366487219187384  0.38018474390954543  1.0000
  C   C52       1.0  0.7833291965773485  0.6358818561666839  0.605467908613285  1.0000
  C   C53       1.0  0.4750996347833122  0.10421914143474702  0.13802905093722012  1.0000
  C   C54       1.0  0.5444604011256542  0.8701035892058189  0.8717637572254092  1.0000
  C   C55       1.0  0.8170997387076041  0.17456972978451546  0.9172498823492178  1.0000
  C   C56       1.0  0.17070888046889368  0.8078126622304468  0.09264226663499632  1.0000
  C   C57       1.0  0.43755112228090787  0.602395037829993  0.2989349365193235  1.0000
  C   C58       1.0  0.5860576140041329  0.41658966847066387  0.6773172904012696  1.0000
  C   C59       1.0  0.42661862706221854  0.8124262453890766  0.6769190659086065  1.0000
  C   C60       1.0  0.5850497549069047  0.17728009932427824  0.31005062713850867  1.0000
  N   N1        1.0  0.12416796312838584  0.457627247308629  0.1252520128948618  1.0000
  N   N2        1.0  0.1154976404944605  0.6391899418489971  0.95041699290627  1.0000
  O   O1        1.0  0.917328355539574  0.742059872119036  0.5672143036002737  1.0000
  O   O2        1.0  0.2710712066304949  0.07104849870444244  0.23826464591799382  1.0000
  O   O3        1.0  0.08647194815596053  0.2574488729939334  0.42112300626523347  1.0000
  O   O4        1.0  0.7377258695363479  0.9214739184261306  0.7581077525346983  1.0000
  O   O5        1.0  0.06803435962924428  0.7418577537558663  0.7641587084529321  1.0000
  O   O6        1.0  0.7414026950499917  0.08043699924988354  0.4114399839163169  1.0000
  O   O7        1.0  0.9253175513809565  0.26700105545307923  0.2366860060013281  1.0000
  O   O8        1.0  0.2672720940916661  0.9121704424527197  0.578411517540161  1.0000
  O   O9        1.0  0.26559091520128664  0.7369623776614489  0.41783524862668037  1.0000
  O   O10       1.0  0.9189928897875532  0.07058715949407478  0.7649921404012332  1.0000
  O   O11       1.0  0.7463082747100741  0.2677034954084619  0.5697957064160307  1.0000
  O   O12       1.0  0.0789144127776354  0.9203684313952253  0.23485708331632082  1.0000
  O   O13       1.0  0.07130177121758409  0.9165722554700865  0.7696247517815848  1.0000
  O   O14       1.0  0.7422342535711692  0.2710140322733282  0.4172473953281113  1.0000
  O   O15       1.0  0.9260655360865185  0.07399580383214757  0.23167363358270873  1.0000
  O   O16       1.0  0.267252095473367  0.7339585804152051  0.5714603969970611  1.0000
  O   O17       1.0  0.9160130492073575  0.7375541322324185  0.7654161325871416  1.0000
  O   O18       1.0  0.2722034008454344  0.06305314898112623  0.42330162216899236  1.0000
  O   O19       1.0  0.0758392810420645  0.26748567380897736  0.2421694208007352  1.0000
  O   O20       1.0  0.7391762375400507  0.9266001334161729  0.5638232950280867  1.0000
  O   O21       1.0  0.7361616747232346  0.0729992871039115  0.7634985567070203  1.0000
  O   O22       1.0  0.07226244407956266  0.7390506939407047  0.4151448456282267  1.0000
  O   O23       1.0  0.2720676900660806  0.9177713558981041  0.2368025450041316  1.0000
  O   O24       1.0  0.9302957992828097  0.26292146153717505  0.572011984402721  1.0000
  O   O25       1.0  0.8001956648552022  0.06950075726704359  0.5612318480265941  1.0000
  O   O26       1.0  0.06992014209841808  0.06152928785483874  0.5675112488239833  1.0000
  O   O27       1.0  0.07158624048969388  0.06657387367140194  0.2950604543184738  1.0000
  O   O28       1.0  0.06600933547488826  0.7964110635222141  0.5642686223974495  1.0000
  O   O29       1.0  0.1513673757760474  0.9461874707632635  0.44898586987267924  1.0000
  O   O30       1.0  0.9520712110039181  0.9516981296726217  0.44509285359659134  1.0000
  O   O31       1.0  0.9546786399009621  0.14763482288763183  0.4476862311556289  1.0000
  O   O32       1.0  0.9500116873876647  0.9490358805940389  0.6455949106512407  1.0000
