data_image0
_chemical_formula_structural       Zn8H30C48N6O26
_chemical_formula_sum              "Zn8 H30 C48 N6 O26"
_cell_length_a       15.507707692351099
_cell_length_b       16.231616196946174
_cell_length_c       17.973698618091348
_cell_angle_alpha    120.988740707447
_cell_angle_beta     90.7033011206674
_cell_angle_gamma    117.60228441966397

_space_group_name_H-M_alt    "P 1"
_space_group_IT_number       1

loop_
  _space_group_symop_operation_xyz
  'x, y, z'

loop_
  _atom_site_type_symbol
  _atom_site_label
  _atom_site_symmetry_multiplicity
  _atom_site_fract_x
  _atom_site_fract_y
  _atom_site_fract_z
  _atom_site_occupancy
  Zn  Zn1       1.0  0.03698206233360678  0.1511591354705217  0.050120638374984636  1.0000
  Zn  Zn2       1.0  0.030031042467761695  0.9652602756914701  0.059760143042822705  1.0000
  Zn  Zn3       1.0  0.23145889849145357  0.1315646665562298  0.040593190281427424  1.0000
  Zn  Zn4       1.0  0.019958256444390064  0.9399564469955238  0.8667064333579263  1.0000
  Zn  Zn5       1.0  0.6314604835262401  0.9345992783305591  0.4405962426691233  1.0000
  Zn  Zn6       1.0  0.6107291305727145  0.1358519522176707  0.4605144594319271  1.0000
  Zn  Zn7       1.0  0.603303781737189  0.10007507190797331  0.6265463770800468  1.0000
  Zn  Zn8       1.0  0.4256640800683725  0.9270817682429923  0.45020227095130155  1.0000
  H   H1        1.0  0.4495298117645346  0.7598856837151685  0.9882722797357817  1.0000
  H   H2        1.0  0.5267500409485064  0.7886365369734065  0.9282799446642972  1.0000
  H   H3        1.0  0.5240449783639817  0.8540608661996741  0.15383080447284672  1.0000
  H   H4        1.0  0.8558789970330878  0.07524863323516229  0.27467846097113124  1.0000
  H   H5        1.0  0.7119717855390062  0.9004307285388862  0.9865194957102692  1.0000
  H   H6        1.0  0.3150205956752004  0.5749147240652235  0.5936990797922591  1.0000
  H   H7        1.0  0.24271354822108285  0.4300504347263967  0.5179329743942845  1.0000
  H   H8        1.0  0.40376795981264024  0.7009659332577912  0.5481469399041575  1.0000
  H   H9        1.0  0.37048270319380083  0.5406780306690494  0.2606077447332071  1.0000
  H   H10       1.0  0.2209740293598798  0.3310395546495002  0.3555438751863634  1.0000
  H   H11       1.0  0.11038284196538939  0.4061154380083211  0.7646161966866317  1.0000
  H   H12       1.0  0.1708427716721274  0.4377575843051814  0.8621953997179194  1.0000
  H   H13       1.0  0.9430269151249462  0.23536734404917328  0.6632682937978418  1.0000
  H   H14       1.0  0.8081690319944385  0.9937493884277089  0.7311689045991304  1.0000
  H   H15       1.0  0.11507967129041673  0.2950602502698488  0.8955291262327169  1.0000
  H   H16       1.0  0.28449205692439966  0.6297335366995185  0.9985739907158904  1.0000
  H   H17       1.0  0.2346150821133576  0.6431962771890127  0.9249520733954953  1.0000
  H   H18       1.0  0.3592137417140363  0.7748901526210119  0.16243185840921376  1.0000
  H   H19       1.0  0.3375210613358773  0.06779879175839909  0.26857319050949974  1.0000
  H   H20       1.0  0.2301989708983639  0.8112760366836581  0.9752681378601483  1.0000
  H   H21       1.0  0.4494690888750767  0.4589569174802932  0.8164756277131391  1.0000
  H   H22       1.0  0.5264112945833405  0.6071324237903752  0.8942796052482296  1.0000
  H   H23       1.0  0.5244718958173351  0.3482534629886517  0.7269226338767256  1.0000
  H   H24       1.0  0.828439947446945  0.5399492085160205  0.7209473384093602  1.0000
  H   H25       1.0  0.7112399262530501  0.7169189809334994  0.9182212699976378  1.0000
  H   H26       1.0  0.2880582803069487  0.2981525472997077  0.6763416842656869  1.0000
  H   H27       1.0  0.23035794151482486  0.32004033916442154  0.7567118988000703  1.0000
  H   H28       1.0  0.3548323688416275  0.18147773407837778  0.6258642120871303  1.0000
  H   H29       1.0  0.3281819598333797  0.005911002295107404  0.748485733851098  1.0000
  H   H30       1.0  0.22119751588176226  0.23414654030116824  0.8426858409174333  1.0000
  C   C1        1.0  0.6064617687582226  0.8633946747462315  0.05926482601842042  1.0000
  C   C2        1.0  0.5994968057589746  0.8921496909212581  0.1463082049481842  1.0000
  C   C3        1.0  0.6883926074278577  0.9702994235650378  0.22358267260575115  1.0000
  C   C4        1.0  0.7861939604610059  0.0179422617793605  0.21547835515428204  1.0000
  C   C5        1.0  0.7927758133458408  0.9916924711074842  0.129219046808558  1.0000
  C   C6        1.0  0.7042441061340483  0.9178177013180929  0.052524916365321604  1.0000
  C   C7        1.0  0.8939929059636923  0.03706104050927911  0.11411844331074412  1.0000
  C   C8        1.0  0.676136746371128  0.0014490904002429  0.31575935944449907  1.0000
  C   C9        1.0  0.3161852933739482  0.5146579877347294  0.4619475711512352  1.0000
  C   C10       1.0  0.37403680468754175  0.6229666090259087  0.47867793861341584  1.0000
  C   C11       1.0  0.3933442122901381  0.6311461881699784  0.406414608335986  1.0000
  C   C12       1.0  0.35521745154082396  0.5331328592013591  0.31650753243600604  1.0000
  C   C13       1.0  0.2906970373491474  0.42598852562460365  0.2993137086090202  1.0000
  C   C14       1.0  0.27142783980331586  0.41585179828329893  0.37066321475236924  1.0000
  C   C15       1.0  0.23541565485997032  0.32207857023212233  0.2015939844669959  1.0000
  C   C16       1.0  0.4464870493705033  0.7450191007558898  0.4218486127688408  1.0000
  C   C17       1.0  0.04092320289733209  0.27638795780991643  0.7799378732102726  1.0000
  C   C18       1.0  0.9498402480206777  0.20910205167520962  0.706891424551259  1.0000
  C   C19       1.0  0.8654505867895778  0.11051406039369739  0.6918846810056041  1.0000
  C   C20       1.0  0.8729104073618643  0.0722590041885596  0.7443001340906152  1.0000
  C   C21       1.0  0.9646381745301156  0.1387274267538103  0.8161105406160234  1.0000
  C   C22       1.0  0.04657102136293636  0.24222443366763713  0.8360934192958  1.0000
  C   C23       1.0  0.9784622501336458  0.10234788485355041  0.8743209001062058  1.0000
  C   C24       1.0  0.7646090374835025  0.0553559743268721  0.6246976347920282  1.0000
  C   C25       1.0  0.2965260291333607  0.782427552362833  0.05923315487311965  1.0000
  C   C26       1.0  0.33886029874422263  0.8231560374587802  0.14914923386534448  1.0000
  C   C27       1.0  0.35633772179407674  0.9271045033627772  0.22369824867904245  1.0000
  C   C28       1.0  0.3257625909013837  0.9882213207237597  0.21004576446052436  1.0000
  C   C29       1.0  0.2771086222840395  0.942925195619381  0.1201342500423764  1.0000
  C   C30       1.0  0.26550685238516547  0.8430745296400776  0.0450288950543369  1.0000
  C   C31       1.0  0.2293410730443525  0.9947319046249277  0.10068951817061127  1.0000
  C   C32       1.0  0.4073109121608382  0.9685082519778874  0.3176097464679729  1.0000
  C   C33       1.0  0.602188710610548  0.533203650916036  0.8201135497371798  1.0000
  C   C34       1.0  0.5941076008254454  0.43068880912802143  0.7518394588776831  1.0000
  C   C35       1.0  0.674800890140105  0.43325085094172516  0.7171565346445592  1.0000
  C   C36       1.0  0.7662828379132947  0.5375616250228887  0.7491223327316237  1.0000
  C   C37       1.0  0.7785953302636202  0.6387463086591865  0.8238144832171843  1.0000
  C   C38       1.0  0.6985842328804635  0.6369479314107167  0.8591979847899298  1.0000
  C   C39       1.0  0.8795666050798872  0.7518344475929126  0.8716917360201181  1.0000
  C   C40       1.0  0.662905698087229  0.3201484483126364  0.6501422337218303  1.0000
  C   C41       1.0  0.28988048209273387  0.2214650153776532  0.736107828617371  1.0000
  C   C42       1.0  0.3321990011531994  0.1656542779600159  0.676745187530294  1.0000
  C   C43       1.0  0.347837587652073  0.09117079885785272  0.6831238601869247  1.0000
  C   C44       1.0  0.31623170715732846  0.06485456226774029  0.7446650044144649  1.0000
  C   C45       1.0  0.267283987512009  0.1141920945039416  0.7992198217528144  1.0000
  C   C46       1.0  0.25659633925464226  0.1940211078938887  0.7971959275975211  1.0000
  C   C47       1.0  0.22278213064548422  0.07993108259935872  0.8598000138615307  1.0000
  C   C48       1.0  0.40179419295796487  0.04395699690526558  0.6232164705678047  1.0000
  N   N1        1.0  0.5198335770317042  0.7790043108606709  0.9798855085769562  1.0000
  N   N2        1.0  0.30429266588779297  0.5050644556149706  0.534276196206129  1.0000
  N   N3        1.0  0.12767126756754976  0.374621275136036  0.7947220224269319  1.0000
  N   N4        1.0  0.29016900515764377  0.684880680958976  0.9844029455735425  1.0000
  N   N5        1.0  0.521521260236419  0.5320093107033302  0.8510920569730803  1.0000
  N   N6        1.0  0.2864048934396877  0.30603066634456166  0.7361211693110906  1.0000
  O   O1        1.0  0.08088942010203229  0.04258652082177151  0.00041992600605309644  1.0000
  O   O2        1.0  0.9616756018038826  0.028044229609001506  0.14494631383094975  1.0000
  O   O3        1.0  0.904245295690586  0.0779977944602379  0.06779846646814751  1.0000
  O   O4        1.0  0.6812744776947356  0.09554785948134989  0.3679313461467474  1.0000
  O   O5        1.0  0.6604161188925202  0.9293109771456897  0.33265484779203547  1.0000
  O   O6        1.0  0.28639873537072447  0.28160521096688734  0.15892244960358684  1.0000
  O   O7        1.0  0.1415462112548908  0.2855226417477184  0.1701897246856704  1.0000
  O   O8        1.0  0.4011166459132626  0.7984061301303103  0.4516895443307052  1.0000
  O   O9        1.0  0.5289983900703703  0.7774218537147064  0.4017722366501603  1.0000
  O   O10       1.0  0.9441126429392314  0.9965553132148346  0.8349034220669085  1.0000
  O   O11       1.0  0.026387217893095283  0.1831439138359272  0.9602474138619856  1.0000
  O   O12       1.0  0.6969185967373334  0.0667351459468861  0.6611329976131659  1.0000
  O   O13       1.0  0.7562229274770971  0.007157608996713801  0.5401287525530095  1.0000
  O   O14       1.0  0.2729744816079389  0.04645317852732941  0.06494590484301453  1.0000
  O   O15       1.0  0.14624592781197518  0.9777801506152883  0.11986512639040109  1.0000
  O   O16       1.0  0.37806968546939146  0.8895855391268273  0.32965072178851806  1.0000
  O   O17       1.0  0.4754693011676991  0.07508593557513171  0.376556826669841  1.0000
  O   O18       1.0  0.9259215617257226  0.7802539825262044  0.8222771379061913  1.0000
  O   O19       1.0  0.9107421862842315  0.8113830882406178  0.9593211014765263  1.0000
  O   O20       1.0  0.6477237547986759  0.260354078520038  0.6803508703471481  1.0000
  O   O21       1.0  0.668219337182279  0.2929344765900268  0.5703179139381052  1.0000
  O   O22       1.0  0.274340632499154  0.15076969600446688  0.9454492287087961  1.0000
  O   O23       1.0  0.13711319276320907  0.9832684482210964  0.8201626796426639  1.0000
  O   O24       1.0  0.3714448286441439  0.0067497733216086014  0.5394450589260702  1.0000
  O   O25       1.0  0.47645219570651426  0.0479551505194635  0.6594816888224957  1.0000
  O   O26       1.0  0.5770994364045237  0.03179499995734151  0.495434803126365  1.0000
