data_image0
_chemical_formula_structural       Gd4H24C28S4O32
_chemical_formula_sum              "Gd4 H24 C28 S4 O32"
_cell_length_a       5.880636809012071
_cell_length_b       10.251872508731594
_cell_length_c       18.705240498018302
_cell_angle_alpha    80.91105018319685
_cell_angle_beta     80.95206898323433
_cell_angle_gamma    73.32684931968065

_space_group_name_H-M_alt    "P 1"
_space_group_IT_number       1

loop_
  _space_group_symop_operation_xyz
  'x, y, z'

loop_
  _atom_site_type_symbol
  _atom_site_label
  _atom_site_symmetry_multiplicity
  _atom_site_fract_x
  _atom_site_fract_y
  _atom_site_fract_z
  _atom_site_occupancy
  Gd  Gd1       1.0  0.9488719430878163  0.1962132613551759  0.5296686779519885  1.0000
  Gd  Gd2       1.0  0.674914546045166  0.30382196002038603  0.9703164545454539  1.0000
  Gd  Gd3       1.0  0.05112811723783767  0.803785242016218  0.47032845909070875  1.0000
  Gd  Gd4       1.0  0.32509054542560983  0.6961787357242244  0.02968647969958468  1.0000
  H   H1        1.0  0.5784580485406468  0.24650474183753351  0.6584237130323343  1.0000
  H   H2        1.0  0.483482652302449  0.25357104541908626  0.8415470222169288  1.0000
  H   H3        1.0  0.4215336312452749  0.7534989485695008  0.341575559320894  1.0000
  H   H4        1.0  0.516524958679277  0.7464265886221638  0.15845674758640615  1.0000
  H   H5        1.0  0.43393159304820733  0.3152575385671312  0.5898664234425509  1.0000
  H   H6        1.0  0.33948124262252566  0.1846885556314959  0.9101306640483029  1.0000
  H   H7        1.0  0.5660724162547198  0.6847430218149596  0.4101308295324201  1.0000
  H   H8        1.0  0.6605301801794711  0.8153091099152336  0.08987443238655843  1.0000
  H   H9        1.0  0.48012030662899713  0.25036913494365365  0.46793026319872394  1.0000
  H   H10       1.0  0.19854681301267624  0.249565554830582  0.031946729972943844  1.0000
  H   H11       1.0  0.5198784613873353  0.7496262752189083  0.5320663827707363  1.0000
  H   H12       1.0  0.8014625782046707  0.7504339459078508  0.9680491673704664  1.0000
  H   H13       1.0  0.6417745458932133  0.1055101056850845  0.44938596289613003  1.0000
  H   H14       1.0  0.19670145792051846  0.39437851694651727  0.05056229815740915  1.0000
  H   H15       1.0  0.35822803394339087  0.8944853359829498  0.5506120097048564  1.0000
  H   H16       1.0  0.8033039069291165  0.6056180748516341  0.9494408368992563  1.0000
  H   H17       1.0  0.9301573573767997  0.8069380012889839  0.7508377850818203  1.0000
  H   H18       1.0  0.4880358234785693  0.6931182573522748  0.7490997798538215  1.0000
  H   H19       1.0  0.06983861334376225  0.19306465493490782  0.24916119866567493  1.0000
  H   H20       1.0  0.5119429835034308  0.30688853560420176  0.25090035831659907  1.0000
  H   H21       1.0  0.6142334089234613  0.8860248212883092  0.8638563382964431  1.0000
  H   H22       1.0  0.364315273897695  0.6136892082112126  0.6361434067990216  1.0000
  H   H23       1.0  0.3857551394861004  0.11398089059397175  0.136141550287057  1.0000
  H   H24       1.0  0.6356689105927631  0.38631660551311603  0.36385874988778955  1.0000
  C   C1        1.0  0.7825498089955332  0.8885302981627136  0.607872325963292  1.0000
  C   C2        1.0  0.279006430783383  0.6115229405090332  0.8921520432732207  1.0000
  C   C3        1.0  0.21745808070616587  0.111471306477462  0.39212564829357877  1.0000
  C   C4        1.0  0.7209932146004407  0.38847772171510536  0.10784947780506104  1.0000
  C   C5        1.0  0.6490109135883841  0.9223462597160433  0.6804282519464734  1.0000
  C   C6        1.0  0.25222213641441005  0.5775818280500148  0.8195808039670636  1.0000
  C   C7        1.0  0.35099282233568363  0.0776584046124995  0.31956880021687073  1.0000
  C   C8        1.0  0.7477722620090219  0.4224219595287694  0.1804225491174945  1.0000
  C   C9        1.0  0.7483571025124011  0.8709100619798635  0.7470070939893174  1.0000
  C   C10       1.0  0.36644676806486126  0.629107385638143  0.7529593448731899  1.0000
  C   C11       1.0  0.2516394822765449  0.12909359426637224  0.2529907508956341  1.0000
  C   C12       1.0  0.6335427297615085  0.370896355689915  0.24704206153169375  1.0000
  C   C13       1.0  0.5879787579552557  0.9125325088378277  0.8066823460446171  1.0000
  C   C14       1.0  0.3073439716416858  0.5873731835452388  0.6933280353709674  1.0000
  C   C15       1.0  0.4120118352568483  0.0874711266182047  0.19331461918648768  1.0000
  C   C16       1.0  0.6926475687842455  0.4126285215623327  0.30667413475548927  1.0000
  C   C17       1.0  0.4140135035339228  0.002744188320875195  0.6913169532139631  1.0000
  C   C18       1.0  0.10870275324288081  0.4970524521026788  0.8087421679810943  1.0000
  C   C19       1.0  0.5859918024842943  0.9972593848585377  0.30867741668629367  1.0000
  C   C20       1.0  0.891297777385205  0.5029451464031212  0.19126010212023895  1.0000
  C   C21       1.0  0.2507819499256172  0.0695455503913109  0.6369261698962062  1.0000
  C   C22       1.0  0.9576562353880146  0.43041184741845484  0.863125165113942  1.0000
  C   C23       1.0  0.7492202923595882  0.9304529020590594  0.3630688330948429  1.0000
  C   C24       1.0  0.04234858744254679  0.5695765217415454  0.13687775151782225  1.0000
  C   C25       1.0  0.8842955188723918  0.5207296685468137  0.48127858622240155  1.0000
  C   C26       1.0  0.8862900436018037  0.9793108994701497  0.018686400524330567  1.0000
  C   C27       1.0  0.11569732267478369  0.4792749689465623  0.5187173266813971  1.0000
  C   C28       1.0  0.11371170288033008  0.0206970952717924  0.9813210920856362  1.0000
  S   S1        1.0  0.3185043271576833  0.012624786313686796  0.7829703579003817  1.0000
  S   S2        1.0  0.11454546044335262  0.4871506909420659  0.7171263073765458  1.0000
  S   S3        1.0  0.6814911710574523  0.9873788149815539  0.21702517986245326  1.0000
  S   S4        1.0  0.8854479212525984  0.5128458592756717  0.2828750683724193  1.0000
  O   O1        1.0  0.8766931106948944  0.9756480100015635  0.5660237963875401  1.0000
  O   O2        1.0  0.41825864573535676  0.5244360302912057  0.9340678546121662  1.0000
  O   O3        1.0  0.12331852665453626  0.024352532979961  0.43397273570253947  1.0000
  O   O4        1.0  0.5817496500962419  0.4755635763192529  0.06593248390502267  1.0000
  O   O5        1.0  0.8085815548280382  0.7711499241263056  0.5891858088192234  1.0000
  O   O6        1.0  0.16867364337777255  0.7289077588205899  0.910793390822718  1.0000
  O   O7        1.0  0.19142653840619053  0.2288547589774624  0.4108120364627367  1.0000
  O   O8        1.0  0.8313337628036024  0.27109499191972475  0.08920957281936365  1.0000
  O   O9        1.0  0.3220123999058018  0.04993663748820859  0.5692126901389469  1.0000
  O   O10       1.0  0.9411760467070216  0.45013715846803853  0.9308326229944508  1.0000
  O   O11       1.0  0.6779892968895137  0.950061827692416  0.4307828463650123  1.0000
  O   O12       1.0  0.05883292643036237  0.5498563863719994  0.06917196766865887  1.0000
  O   O13       1.0  0.04397947865376752  0.1463152290815515  0.6550887604643733  1.0000
  O   O14       1.0  0.8459065155197795  0.35363917211288504  0.8449241916662441  1.0000
  O   O15       1.0  0.9560177236743854  0.8536811918186304  0.3449071936202298  1.0000
  O   O16       1.0  0.15411165482310452  0.6463451092205619  0.1550796180590196  1.0000
  O   O17       1.0  0.7843088882824676  0.42938579009351235  0.47823681227281145  1.0000
  O   O18       1.0  0.6919034253824065  0.0706519696727312  0.021675023666510477  1.0000
  O   O19       1.0  0.2156749665333563  0.5706147186332231  0.5217582487182922  1.0000
  O   O20       1.0  0.30810336452759624  0.9293498212509806  0.9783307659120907  1.0000
  O   O21       1.0  0.8132014131690183  0.6474117209847138  0.4560992922675238  1.0000
  O   O22       1.0  0.9165190347834409  0.8526450309174793  0.043891749987501574  1.0000
  O   O23       1.0  0.186789861754825  0.3525857722893875  0.5438985509615504  1.0000
  O   O24       1.0  0.08348904082694023  0.1473599738323372  0.9561195918862565  1.0000
  O   O25       1.0  0.5945732917128266  0.2866022665993029  0.6078623390769521  1.0000
  O   O26       1.0  0.4893317212045435  0.21344596567134028  0.8920994687267337  1.0000
  O   O27       1.0  0.40542574621154853  0.7133972749852192  0.39213525964194657  1.0000
  O   O28       1.0  0.5106859709591234  0.7865475363076301  0.10790333402565708  1.0000
  O   O29       1.0  0.6470678751949848  0.19814249857191873  0.4588391302830173  1.0000
  O   O30       1.0  0.3041188908405417  0.30176143780286685  0.04111272672673032  1.0000
  O   O31       1.0  0.3529319108166577  0.8018519537890327  0.5411604281581999  1.0000
  O   O32       1.0  0.6958882454327833  0.6982371815154949  0.9588892841659128  1.0000
