data_image0
_chemical_formula_structural       Cu12H72C84N28
_chemical_formula_sum              "Cu12 H72 C84 N28"
_cell_length_a       29.99773236772494
_cell_length_b       30.047918717225098
_cell_length_c       30.203065688063834
_cell_angle_alpha    89.88891276052632
_cell_angle_beta     89.73141402723937
_cell_angle_gamma    90.832646634249

_space_group_name_H-M_alt    "P 1"
_space_group_IT_number       1

loop_
  _space_group_symop_operation_xyz
  'x, y, z'

loop_
  _atom_site_type_symbol
  _atom_site_label
  _atom_site_symmetry_multiplicity
  _atom_site_fract_x
  _atom_site_fract_y
  _atom_site_fract_z
  _atom_site_occupancy
  Cu  Cu1       1.0  0.569676788598258  0.6065179491218797  0.6622836255297955  1.0000
  Cu  Cu2       1.0  0.6144341132563298  0.6545552866761852  0.5792020197997161  1.0000
  Cu  Cu3       1.0  0.648268578221348  0.559746192903809  0.6113268193274592  1.0000
  Cu  Cu4       1.0  0.9178314434892341  0.3847395047535258  0.17372739643629834  1.0000
  Cu  Cu5       1.0  0.8836483712177453  0.34428060365105045  0.0833610840953511  1.0000
  Cu  Cu6       1.0  0.843435739413465  0.43498697888841065  0.11991607432604919  1.0000
  Cu  Cu7       1.0  0.4291344898857615  0.11296755777257772  0.8492344018360498  1.0000
  Cu  Cu8       1.0  0.39092628140943486  0.1538998652093468  0.938069236785452  1.0000
  Cu  Cu9       1.0  0.3361180361535716  0.07857112397323358  0.8888527161840398  1.0000
  Cu  Cu10      1.0  0.07662032972015  0.8912657927080405  0.34987588299793515  1.0000
  Cu  Cu11      1.0  0.1147013764484086  0.8506683215978939  0.438310745897425  1.0000
  Cu  Cu12      1.0  0.1705296004428192  0.9251934050353582  0.3874511364863906  1.0000
  H   H1        1.0  0.501252183182018  0.6800697321189658  0.6924214342807673  1.0000
  H   H2        1.0  0.5602180594173588  0.7447681925205033  0.5774952223796816  1.0000
  H   H3        1.0  0.664645685918849  0.47671927251173685  0.674584764905461  1.0000
  H   H4        1.0  0.5489158885445988  0.534513525943339  0.7373063523633476  1.0000
  H   H5        1.0  0.6784837028011523  0.6712651942238851  0.4967922845765997  1.0000
  H   H6        1.0  0.7162984724141382  0.5377000623244116  0.5339342953398685  1.0000
  H   H7        1.0  0.9796595753298619  0.30637344460787824  0.20705870991044859  1.0000
  H   H8        1.0  0.9442683790454467  0.25846962677052676  0.07641176715661398  1.0000
  H   H9        1.0  0.8321454073553695  0.5216490060344511  0.17914197118653866  1.0000
  H   H10       1.0  0.9419141952355616  0.4580052511104356  0.24573617572319503  1.0000
  H   H11       1.0  0.8277673179982159  0.3323664388143541  0.9954835863060083  1.0000
  H   H12       1.0  0.7742209330987606  0.456403026935618  0.043833856367136485  1.0000
  H   H13       1.0  0.5168070673449564  0.17277183258143217  0.8367941573046804  1.0000
  H   H14       1.0  0.4724295803491216  0.2162293657915342  0.9662138098610595  1.0000
  H   H15       1.0  0.30803054933949875  0.0082796466085497  0.8157873276893851  1.0000
  H   H16       1.0  0.4354868646163297  0.05331293065719219  0.7629629502979539  1.0000
  H   H17       1.0  0.31812469033290103  0.18633170732811516  0.007376471564470001  1.0000
  H   H18       1.0  0.24767736997223716  0.07517271127930768  0.9472171147270315  1.0000
  H   H19       1.0  0.9900070909957748  0.8301732523952623  0.33716903115104196  1.0000
  H   H20       1.0  0.035593747885634686  0.7842164302313462  0.4650759806458638  1.0000
  H   H21       1.0  0.19917470922207772  0.9932972691237227  0.3118021223221561  1.0000
  H   H22       1.0  0.06900753867956408  0.951679047956432  0.2644194744458943  1.0000
  H   H23       1.0  0.1850759834916218  0.8213306502254981  0.5101860423303249  1.0000
  H   H24       1.0  0.25847291715740534  0.9288974072367181  0.44608253650258683  1.0000
  H   H25       1.0  0.014116813423058296  0.20874826272476096  0.0851194356758924  1.0000
  H   H26       1.0  0.056020658596750594  0.15767908877246836  0.16429278425922425  1.0000
  H   H27       1.0  0.013223342972821697  0.22259948591802467  0.18619063859182455  1.0000
  H   H28       1.0  0.0714693316523949  0.15060249090541328  0.062972970793183  1.0000
  H   H29       1.0  0.48740634113079306  0.794156138952644  0.5820818945159373  1.0000
  H   H30       1.0  0.44394610870047296  0.8417227526569775  0.6628373813917817  1.0000
  H   H31       1.0  0.4783211069097887  0.7702379789518332  0.6809360976301588  1.0000
  H   H32       1.0  0.4319248021891511  0.8547373615565661  0.5618229584287916  1.0000
  H   H33       1.0  0.9425636748024288  0.7564501811737684  0.3380913584350579  1.0000
  H   H34       1.0  0.8896214297600975  0.7047637240071438  0.4114513178609016  1.0000
  H   H35       1.0  0.9526344531665172  0.7492803794493028  0.4393128184516825  1.0000
  H   H36       1.0  0.8883425314717998  0.6976766349157587  0.3090597443530782  1.0000
  H   H37       1.0  0.5635256191053556  0.24662675764674447  0.8383935506679449  1.0000
  H   H38       1.0  0.6196057073893684  0.2949098357101647  0.9110280088192724  1.0000
  H   H39       1.0  0.5571904754713232  0.24913700500899688  0.9401944740268886  1.0000
  H   H40       1.0  0.6161900409847192  0.30616397184036975  0.8090278908656996  1.0000
  H   H41       1.0  0.07584773025306651  0.021647488497478704  0.21397419930283948  1.0000
  H   H42       1.0  0.15467626190013553  0.06427401506652329  0.160367426711467  1.0000
  H   H43       1.0  0.1776419043344077  0.024744755927180496  0.226926413124815  1.0000
  H   H44       1.0  0.05270539148154539  0.07847830388346469  0.1551759976868183  1.0000
  H   H45       1.0  0.6728252894711275  0.43677354489813774  0.7533236960687546  1.0000
  H   H46       1.0  0.6013912409700878  0.3863858906731751  0.8105439090234295  1.0000
  H   H47       1.0  0.5724045870469682  0.44979067409535384  0.7695281818311626  1.0000
  H   H48       1.0  0.7046293530384061  0.38476511146859593  0.8129260771765272  1.0000
  H   H49       1.0  0.42944222223067646  0.9814005419190223  0.7146232766606246  1.0000
  H   H50       1.0  0.35013446456306946  0.9395691465179893  0.6620031111388157  1.0000
  H   H51       1.0  0.3277969292407192  0.9779582824537555  0.7295589347337453  1.0000
  H   H52       1.0  0.45181977940042367  0.9237377047683993  0.6554733613040324  1.0000
  H   H53       1.0  0.8270365206005651  0.5655949502259077  0.2567089684673221  1.0000
  H   H54       1.0  0.9023426348559411  0.615480053706534  0.308500463703318  1.0000
  H   H55       1.0  0.9268703275775891  0.5478883488957251  0.2703340546264172  1.0000
  H   H56       1.0  0.7994337847013213  0.6193407488532188  0.3157058594556688  1.0000
  H   H57       1.0  0.20039752464401056  0.07846694611822609  0.0226728735989283  1.0000
  H   H58       1.0  0.15448945164167327  0.15979574031022986  0.0668268012298938  1.0000
  H   H59       1.0  0.2263272485875305  0.17767229009398727  0.030491965771183495  1.0000
  H   H60       1.0  0.14125602843343188  0.058231988594514  0.08046055609471377  1.0000
  H   H61       1.0  0.7507406249798193  0.6710679941510377  0.4505767128419932  1.0000
  H   H62       1.0  0.7989560972537221  0.6001246142833451  0.3932129995691297  1.0000
  H   H63       1.0  0.7535412702425931  0.5686441580426234  0.453501554426495  1.0000
  H   H64       1.0  0.8102633223909165  0.7027435281351943  0.398087234399064  1.0000
  H   H65       1.0  0.755538877203513  0.32999166526980866  0.947873101372714  1.0000
  H   H66       1.0  0.7050667608795392  0.40199863037294387  0.8939356542916099  1.0000
  H   H67       1.0  0.745107532120592  0.43123186374312167  0.9585523668844828  1.0000
  H   H68       1.0  0.6976945561777795  0.29902586452588764  0.8941142290548212  1.0000
  H   H69       1.0  0.3041881011115349  0.9275975053324572  0.5231516450340051  1.0000
  H   H70       1.0  0.34853742826322803  0.8459341729811953  0.5681468593719926  1.0000
  H   H71       1.0  0.2767355504943083  0.8289457051492236  0.5330807767012329  1.0000
  H   H72       1.0  0.36345748235711983  0.9472167044105503  0.5818113434522729  1.0000
  C   C1        1.0  0.520272731620004  0.6897461404331295  0.6631922237523469  1.0000
  C   C2        1.0  0.5181857213137633  0.7291341843529294  0.6380488618202804  1.0000
  C   C3        1.0  0.5496775194163559  0.7225260795677427  0.604036438750114  1.0000
  C   C4        1.0  0.6369046694529387  0.49696488125044175  0.6852463533749429  1.0000
  C   C5        1.0  0.606752408764109  0.4903422161255263  0.7206335176983669  1.0000
  C   C6        1.0  0.5772664804130514  0.5261142900526677  0.7166254662651494  1.0000
  C   C7        1.0  0.6833453498440889  0.6390293152899956  0.5121656613049126  1.0000
  C   C8        1.0  0.7113037277870548  0.6040396423601776  0.499279670550564  1.0000
  C   C9        1.0  0.7020691035595518  0.5705784147880593  0.5308064478819005  1.0000
  C   C10       1.0  0.9663222414429599  0.30077348518229025  0.1741352395789875  1.0000
  C   C11       1.0  0.9749279512837106  0.26593540336649824  0.14434855390189227  1.0000
  C   C12       1.0  0.9488806830958438  0.27653548870124206  0.10718663847691798  1.0000
  C   C13       1.0  0.8578562199253312  0.4997139625032218  0.19121489710081357  1.0000
  C   C14       1.0  0.8885982610380408  0.5061724209553162  0.2257910635276659  1.0000
  C   C15       1.0  0.9145139995202101  0.4675326289164019  0.22452798842864746  1.0000
  C   C16       1.0  0.8187693874889846  0.3620310181347364  0.013725453801150396  1.0000
  C   C17       1.0  0.7878992120552368  0.3952117761679402  0.0030609293537651  1.0000
  C   C18       1.0  0.7920801083777748  0.4257487589056125  0.0381183379531649  1.0000
  C   C19       1.0  0.4994620827147997  0.1792325834399051  0.8676926735300866  1.0000
  C   C20       1.0  0.5113730643236637  0.20777351603543787  0.9027823669931649  1.0000
  C   C21       1.0  0.4770972568306674  0.20076647942375558  0.9340907702432161  1.0000
  C   C22       1.0  0.3401289741635765  0.024053024725070298  0.8088968143904152  1.0000
  C   C23       1.0  0.36936820149803395  0.0175523044941457  0.7729918261295339  1.0000
  C   C24       1.0  0.405543062595136  0.04641807715901079  0.7822470031316724  1.0000
  C   C25       1.0  0.3070243287803009  0.1579010848529947  0.9879866601342682  1.0000
  C   C26       1.0  0.26630253629226536  0.13411475903632922  0.9900843262359087  1.0000
  C   C27       1.0  0.27129890758163805  0.10059005661523909  0.9579928537615812  1.0000
  C   C28       1.0  0.007473391719216197  0.8233302743177118  0.3677778927515547  1.0000
  C   C29       1.0  0.9964483348966765  0.7933274774730703  0.4021753484662298  1.0000
  C   C30       1.0  0.030476811388979293  0.8004808605064754  0.4333974256933003  1.0000
  C   C31       1.0  0.16646051076237708  0.9784077007479579  0.3063529860056916  1.0000
  C   C32       1.0  0.13639994359735402  0.9855575976168891  0.27151241171349466  1.0000
  C   C33       1.0  0.0997231551105386  0.9577827977992968  0.2824113741608514  1.0000
  C   C34       1.0  0.1969888189040034  0.8488051529307227  0.4897214977573085  1.0000
  C   C35       1.0  0.2380224952932011  0.8720196147466694  0.49125159635790533  1.0000
  C   C36       1.0  0.234197651415414  0.9043393802171521  0.4577039107094904  1.0000
  C   C37       1.0  0.0040786184631898  0.228865170725939  0.15168568556403264  1.0000
  C   C38       1.0  0.0215951585037288  0.20212592154950929  0.11996785466483567  1.0000
  C   C39       1.0  0.0505521784309408  0.1658499467767598  0.1294370481366798  1.0000
  C   C40       1.0  0.07236635968310877  0.14192778758596353  0.09809982117146628  1.0000
  C   C41       1.0  0.49038677635659406  0.7670112361090416  0.6468283141909694  1.0000
  C   C42       1.0  0.4775257664546544  0.7979917778412614  0.6168091213662876  1.0000
  C   C43       1.0  0.4502244648778415  0.8352540214093837  0.6277392208689321  1.0000
  C   C44       1.0  0.43049997853993455  0.8617831339043605  0.5972713424549312  1.0000
  C   C45       1.0  0.959829494222049  0.7617823244904967  0.4059028850440426  1.0000
  C   C46       1.0  0.934805400300654  0.7456197959756707  0.3719529558528335  1.0000
  C   C47       1.0  0.8991868412646299  0.713727393538754  0.37754951824928895  1.0000
  C   C48       1.0  0.8778502126426844  0.6930705597451451  0.3434822338661121  1.0000
  C   C49       1.0  0.548765964965078  0.23833102698556272  0.9066109887953856  1.0000
  C   C50       1.0  0.5727369735383759  0.25578012350985807  0.8722695888108517  1.0000
  C   C51       1.0  0.6086136421985487  0.2873339460143001  0.8773564975675112  1.0000
  C   C52       1.0  0.6282410201234683  0.30949708018583516  0.8429486629118158  1.0000
  C   C53       1.0  0.14312687424162363  0.014426474573511398  0.23375868616086135  1.0000
  C   C54       1.0  0.11077088492590549  0.030105837080313298  0.20675888551131993  1.0000
  C   C55       1.0  0.1197223212365941  0.05842710553248049  0.1694462129621783  1.0000
  C   C56       1.0  0.08789608784569942  0.07946110022832899  0.1456926001413308  1.0000
  C   C57       1.0  0.6048984807627135  0.45550004573667746  0.7536524686573144  1.0000
  C   C58       1.0  0.6395409998783491  0.43021917936909665  0.7671562263140216  1.0000
  C   C59       1.0  0.6351703433987125  0.3955915825164027  0.7997417589444352  1.0000
  C   C60       1.0  0.6699996640304775  0.37449177890479046  0.8187946540266821  1.0000
  C   C61       1.0  0.36234882540462376  0.9884498957598208  0.7356235238508757  1.0000
  C   C62       1.0  0.3944789129798494  0.9728840287864954  0.7080339982143398  1.0000
  C   C63       1.0  0.38516901293967015  0.9448298196512253  0.6707716121407258  1.0000
  C   C64       1.0  0.416586180392386  0.9235698049890997  0.6464400509017094  1.0000
  C   C65       1.0  0.8936941055745534  0.5431747284004584  0.255953155600281  1.0000
  C   C66       1.0  0.8610080410250589  0.5712527744543296  0.26881638763845217  1.0000
  C   C67       1.0  0.8679462028544622  0.6069931259404413  0.2996077441463426  1.0000
  C   C68       1.0  0.8343956524560099  0.6290285323141943  0.3199586913453131  1.0000
  C   C69       1.0  0.22870702289463907  0.14338550627257968  0.018554081405198996  1.0000
  C   C70       1.0  0.1972060755354121  0.11341349989137939  0.0323267236295877  1.0000
  C   C71       1.0  0.16050661662219312  0.12450109983757333  0.06071746273790519  1.0000
  C   C72       1.0  0.1343219504801993  0.09380232730313048  0.08182673999756669  1.0000
  C   C73       1.0  0.7426182279076058  0.6019348646057736  0.46294606421231066  1.0000
  C   C74       1.0  0.7600866766539768  0.6374449258059584  0.4405358998331295  1.0000
  C   C75       1.0  0.7914350472130989  0.6336489913341482  0.4048794936111618  1.0000
  C   C76       1.0  0.8132164773672913  0.6687742234906296  0.3856878532046792  1.0000
  C   C77       1.0  0.7582284719811198  0.3981788468623648  0.965698519522739  1.0000
  C   C78       1.0  0.7443753306867008  0.3636273119950174  0.9399774372263747  1.0000
  C   C79       1.0  0.7138291927233026  0.36823670624288246  0.9039590188483613  1.0000
  C   C80       1.0  0.6935078297401988  0.33339881078806133  0.8832291869584024  1.0000
  C   C81       1.0  0.2749771830205319  0.8630069102516841  0.5203041572199394  1.0000
  C   C82       1.0  0.3067277740226757  0.8927747112868545  0.5335121190926201  1.0000
  C   C83       1.0  0.3430447083906357  0.8813246942947189  0.5619429146447813  1.0000
  C   C84       1.0  0.369709561570744  0.9114956368733969  0.5828629312852911  1.0000
  N   N1        1.0  0.5687841674356876  0.6824526586527498  0.608814650452828  1.0000
  N   N2        1.0  0.5502822249234072  0.6619316349480824  0.6453854188129993  1.0000
  N   N3        1.0  0.5892385527880535  0.5521230493557924  0.6820301335030833  1.0000
  N   N4        1.0  0.6260646670643053  0.5337931667040862  0.6623412615147328  1.0000
  N   N5        1.0  0.6714996051463586  0.584745547381779  0.5602578062011074  1.0000
  N   N6        1.0  0.6596612990188788  0.6271751888825462  0.5484626511891191  1.0000
  N   N7        1.0  0.9268104999762343  0.3146100787903947  0.11451648609700978  1.0000
  N   N8        1.0  0.937878977697288  0.32987114669663237  0.1559813389957085  1.0000
  N   N9        1.0  0.9000186908294695  0.4401724865410088  0.19217221455738806  1.0000
  N   N10       1.0  0.8650715092569284  0.4603463561157426  0.17121985257467284  1.0000
  N   N11       1.0  0.8226004471325509  0.41160958776582396  0.0674005952286691  1.0000
  N   N12       1.0  0.8393940948944162  0.3721728729531647  0.0520459640930184  1.0000
  N   N13       1.0  0.446963555958348  0.1710002121189049  0.9185861483778979  1.0000
  N   N14       1.0  0.4610834939947353  0.15737114087260545  0.8774756695379293  1.0000
  N   N15       1.0  0.3981913489326772  0.06816115401492338  0.8205353249047533  1.0000
  N   N16       1.0  0.35768757164674264  0.054046332025244205  0.8372771205070534  1.0000
  N   N17       1.0  0.31176072103147595  0.1043296715426081  0.9385744644106068  1.0000
  N   N18       1.0  0.33411209979899326  0.13969927238233737  0.9574649220555427  1.0000
  N   N19       1.0  0.0595612826038447  0.8317747872369311  0.4185411545116438  1.0000
  N   N20       1.0  0.0450681071535541  0.8461738780730387  0.3779138198493754  1.0000
  N   N21       1.0  0.10757286852257411  0.9360166086709044  0.3206001138271546  1.0000
  N   N22       1.0  0.1489272871209337  0.9490451238328532  0.3356628437125835  1.0000
  N   N23       1.0  0.1940849814693024  0.9004225543968118  0.4379680454511642  1.0000
  N   N24       1.0  0.17081779028575284  0.8661658229732792  0.45812373662525363  1.0000
  N   N25       1.0  0.0971261146339657  0.10422530910346237  0.1075332489571466  1.0000
  N   N26       1.0  0.40679406318913186  0.8999144327667423  0.6079205691214538  1.0000
  N   N27       1.0  0.8409398417126467  0.6647922286910556  0.3487709021165059  1.0000
  N   N28       1.0  0.6649631355936806  0.338072264843305  0.8472573341848602  1.0000
