data_image0
_chemical_formula_structural       Zn4H16C4Se4N4O12
_chemical_formula_sum              "Zn4 H16 C4 Se4 N4 O12"
_cell_length_a       6.6686484332856795
_cell_length_b       7.964870137068925
_cell_length_c       9.60324051400375
_cell_angle_alpha    90.00007474748388
_cell_angle_beta     89.99990808351757
_cell_angle_gamma    112.98587912815492

_space_group_name_H-M_alt    "P 1"
_space_group_IT_number       1

loop_
  _space_group_symop_operation_xyz
  'x, y, z'

loop_
  _atom_site_type_symbol
  _atom_site_label
  _atom_site_symmetry_multiplicity
  _atom_site_fract_x
  _atom_site_fract_y
  _atom_site_fract_z
  _atom_site_occupancy
  Zn  Zn1       1.0  0.8210155020773301  0.886593465508952  0.2682573904980429  1.0000
  Zn  Zn2       1.0  0.3210152559649586  0.38659469463686963  0.2317415979402  1.0000
  Zn  Zn3       1.0  0.17898262577556784  0.11340452505412199  0.731742543170135  1.0000
  Zn  Zn4       1.0  0.6789847974366765  0.6134073872866139  0.7682562530987908  1.0000
  H   H1        1.0  0.6619340844655783  0.11968320271090957  0.20183052701550244  1.0000
  H   H2        1.0  0.16193233861856265  0.6196813546612319  0.2981704311500407  1.0000
  H   H3        1.0  0.338065968934103  0.8803188792135686  0.7981694066538194  1.0000
  H   H4        1.0  0.838061511339575  0.38031391881841614  0.7018326264645294  1.0000
  H   H5        1.0  0.8489941310593992  0.12288142128762301  0.08772831546022528  1.0000
  H   H6        1.0  0.3489943106505962  0.6228810409805162  0.4122713971370259  1.0000
  H   H7        1.0  0.15100528049232753  0.877119296849223  0.9122705768935473  1.0000
  H   H8        1.0  0.6510053142983026  0.37711694433838266  0.5877295778454792  1.0000
  H   H9        1.0  0.39406645432367077  0.8458498984849286  0.10541153305428706  1.0000
  H   H10       1.0  0.8940680528789856  0.3458491981936973  0.3945883713766562  1.0000
  H   H11       1.0  0.6059321019780555  0.15415218868471212  0.8945894419310388  1.0000
  H   H12       1.0  0.10593392441398923  0.6541474128492268  0.6054136449189613  1.0000
  H   H13       1.0  0.5870567289128418  0.8494922629660239  0.9775618220883755  1.0000
  H   H14       1.0  0.08705559075730923  0.34949056420493463  0.5224342084322301  1.0000
  H   H15       1.0  0.41294268263693834  0.150508455171817  0.022439152895735493  1.0000
  H   H16       1.0  0.9129427504966546  0.6505046935382028  0.4775636426040037  1.0000
  C   C1        1.0  0.5336447621836699  0.9360369768995725  0.04395516594709649  1.0000
  C   C2        1.0  0.03364430975319275  0.43603568787607844  0.456045236556747  1.0000
  C   C3        1.0  0.4663582854090081  0.0639650945360586  0.9560458090357283  1.0000
  C   C4        1.0  0.9663565988945424  0.5639650250165931  0.54395469711136  1.0000
  Se  Se1       1.0  0.8071359842798671  0.5752787614906085  0.09276750818426648  1.0000
  Se  Se2       1.0  0.30713540978891984  0.0752801585702088  0.4072321992547287  1.0000
  Se  Se3       1.0  0.19286492436689429  0.4247219514025602  0.9072334667990061  1.0000
  Se  Se4       1.0  0.692864643611742  0.9247219233537649  0.5927666930994276  1.0000
  N   N1        1.0  0.7125488551775733  0.036560172460688996  0.14089789682543594  1.0000
  N   N2        1.0  0.21254913426196248  0.5365597412670482  0.35909979101328554  1.0000
  N   N3        1.0  0.2874499145242524  0.9634391818895197  0.8591020368431185  1.0000
  N   N4        1.0  0.7874498488399625  0.4634368802637212  0.6408991013385046  1.0000
  O   O1        1.0  0.5763837249871459  0.6011976348991439  0.15173628695815464  1.0000
  O   O2        1.0  0.07638261898979691  0.1011976117560991  0.3482637048390628  1.0000
  O   O3        1.0  0.4236163284066876  0.39880444702832574  0.8482698946021755  1.0000
  O   O4        1.0  0.9236182896598921  0.8988031011355773  0.6517341461987057  1.0000
  O   O5        1.0  0.9893082285145526  0.7357617988306586  0.20255126951741426  1.0000
  O   O6        1.0  0.48930572050683463  0.23576173229952252  0.29744736841074365  1.0000
  O   O7        1.0  0.010697171426095078  0.264238898327001  0.7974465815178602  1.0000
  O   O8        1.0  0.5106915520989761  0.7642376272948612  0.7025515239434765  1.0000
  O   O9        1.0  0.864263645397621  0.6969321465051052  0.9382519378672496  1.0000
  O   O10       1.0  0.3642615784346149  0.19693185439833633  0.5617467432697152  1.0000
  O   O11       1.0  0.13573662140119325  0.3030672026004312  0.06174799580047359  1.0000
  O   O12       1.0  0.6357378331180855  0.8030688637380053  0.4382511077688916  1.0000
