data_image0
_chemical_formula_structural       FeHg2H20C30S6N10
_chemical_formula_sum              "Fe1 Hg2 H20 C30 S6 N10"
_cell_length_a       8.530372265484553
_cell_length_b       8.818054168232702
_cell_length_c       13.31234286135083
_cell_angle_alpha    75.23709881110051
_cell_angle_beta     72.38464008005472
_cell_angle_gamma    89.0057434757977

_space_group_name_H-M_alt    "P 1"
_space_group_IT_number       1

loop_
  _space_group_symop_operation_xyz
  'x, y, z'

loop_
  _atom_site_type_symbol
  _atom_site_label
  _atom_site_symmetry_multiplicity
  _atom_site_fract_x
  _atom_site_fract_y
  _atom_site_fract_z
  _atom_site_occupancy
  Fe  Fe1       1.0  0.5000003560628841  0.9999998217909082  0.49999965864963497  1.0000
  Hg  Hg1       1.0  0.9754679479791407  0.5755376088343881  0.6154453889644104  1.0000
  Hg  Hg2       1.0  0.024531038928977004  0.42446108155498763  0.3845541442820987  1.0000
  H   H1        1.0  0.6030166488877527  0.8015747463103083  0.34701861341694235  1.0000
  H   H2        1.0  0.3969773548883211  0.1984227596992625  0.6529812995607782  1.0000
  H   H3        1.0  0.6005857627012574  0.8103527688178788  0.16185093178741985  1.0000
  H   H4        1.0  0.39940585703320863  0.18964590537908776  0.8381492332698383  1.0000
  H   H5        1.0  0.43537319755765225  0.2819152850600375  0.13565879406257147  1.0000
  H   H6        1.0  0.5646271583237097  0.7180857543856476  0.8643408425972365  1.0000
  H   H7        1.0  0.44177232604599953  0.25268311530901144  0.3241379257825088  1.0000
  H   H8        1.0  0.5582293361453097  0.74731910285675  0.6758612697619596  1.0000
  H   H9        1.0  0.4558167700363925  0.1731384369667239  0.9871788073051915  1.0000
  H   H10       1.0  0.5441809105617709  0.8268590747025686  0.012821167056657078  1.0000
  H   H11       1.0  0.1446779580684137  0.5393916827543352  0.810847056077513  1.0000
  H   H12       1.0  0.8553249527536623  0.46060939782380933  0.18914683639939514  1.0000
  H   H13       1.0  0.17004994419563252  0.667697743302533  0.95310409024205  1.0000
  H   H14       1.0  0.8299514673425179  0.33229979351829547  0.046892927187933364  1.0000
  H   H15       1.0  0.8857790117864612  0.0388346551290581  0.8260668973776076  1.0000
  H   H16       1.0  0.11422254715313332  0.9611663780816073  0.1739340173752382  1.0000
  H   H17       1.0  0.8725959637175862  0.8950981631754332  0.6920922314558807  1.0000
  H   H18       1.0  0.12740583732978192  0.1049064005357394  0.30790729856683896  1.0000
  H   H19       1.0  0.12144268846846269  0.8804770330952111  0.034074266527802925  1.0000
  H   H20       1.0  0.8785607346928542  0.11951461033671508  0.9659271119191217  1.0000
  C   C1        1.0  0.8430135902268318  0.8725321364452726  0.46227838579478947  1.0000
  C   C2        1.0  0.1569853204885163  0.12746537873491798  0.5377213575020932  1.0000
  C   C3        1.0  0.3531826825769643  0.6640089437943715  0.5544611645424737  1.0000
  C   C4        1.0  0.646818840758293  0.3359909288259715  0.4455376965237505  1.0000
  C   C5        1.0  0.694101910573707  0.4261675991646925  0.8321521327380735  1.0000
  C   C6        1.0  0.305897532068208  0.5738415852671325  0.167858337898025  1.0000
  C   C7        1.0  0.5651868009222697  0.905470810726932  0.29796314024424925  1.0000
  C   C8        1.0  0.43481094233917633  0.0945278712785935  0.7020373786462171  1.0000
  C   C9        1.0  0.562644111684847  0.9117717406486394  0.19373336333120506  1.0000
  C   C10       1.0  0.4373525047111357  0.0882281228010839  0.8062656674158503  1.0000
  C   C11       1.0  0.5093224994704926  0.0456098085034142  0.13197060648958822  1.0000
  C   C12       1.0  0.4906764739081455  0.9543888770130025  0.8680296813359261  1.0000
  C   C13       1.0  0.4707719858885256  0.17198497275956734  0.18027030256850912  1.0000
  C   C14       1.0  0.5292283835223089  0.8280160715590696  0.8197285795123007  1.0000
  C   C15       1.0  0.47511446879700975  0.15698340467896094  0.2854702926075632  1.0000
  C   C16       1.0  0.5248870545382474  0.8430164679413821  0.7145285684586611  1.0000
  C   C17       1.0  0.49009093411515203  0.058247164894069704  0.025926790114127084  1.0000
  C   C18       1.0  0.5099079495412441  0.9417503405402101  0.9740744623407592  1.0000
  C   C19       1.0  0.0876782090718535  0.6493632327515044  0.8185583777409562  1.0000
  C   C20       1.0  0.9123235969596097  0.35064018498820804  0.1814368348581539  1.0000
  C   C21       1.0  0.10159264742033972  0.721344807966169  0.8971624986228973  1.0000
  C   C22       1.0  0.8984100704277652  0.2786539075747426  0.10283407769175308  1.0000
  C   C23       1.0  0.02693317622993871  0.8637051815057505  0.9040566481368514  1.0000
  C   C24       1.0  0.9730693351147296  0.1362911641249767  0.09594336659453963  1.0000
  C   C25       1.0  0.9434199205727013  0.9273430392498199  0.8279920229421975  1.0000
  C   C26       1.0  0.05658165189636581  0.0726579988338045  0.17200813723165  1.0000
  C   C27       1.0  0.9356815542942485  0.8475189514427939  0.7521897882383826  1.0000
  C   C28       1.0  0.0643202738120792  0.15248562201428945  0.2478082326263475  1.0000
  C   C29       1.0  0.0398982804075061  0.936765308071834  0.9880948845717368  1.0000
  C   C30       1.0  0.9601028349049658  0.06322867875667272  0.01190653590435177  1.0000
  S   S1        1.0  0.02767711897224251  0.8052497689790955  0.43864273373934987  1.0000
  S   S2        1.0  0.9723218052725856  0.194747751074047  0.5613562549785411  1.0000
  S   S3        1.0  0.2717706935668503  0.48496708282954165  0.5806196258229618  1.0000
  S   S4        1.0  0.728229689373464  0.5150339663620472  0.4193785016788495  1.0000
  S   S5        1.0  0.6903123263196422  0.44969143823905006  0.7048503436955397  1.0000
  S   S6        1.0  0.3096888552174093  0.5503060157415691  0.29515950157740173  1.0000
  N   N1        1.0  0.7121632360491859  0.9236144988576884  0.47582062490238997  1.0000
  N   N2        1.0  0.28783573732945206  0.0763841866587285  0.5241796629231246  1.0000
  N   N3        1.0  0.40889481586712156  0.7929964458412545  0.5351257104272094  1.0000
  N   N4        1.0  0.5911067074681355  0.20700342677908884  0.46487315063901485  1.0000
  N   N5        1.0  0.6934879130002402  0.409108785151396  0.9230707388584278  1.0000
  N   N6        1.0  0.3065118885306434  0.5909051196089834  0.07693587326019012  1.0000
  N   N7        1.0  0.517669892707474  0.024223017823473508  0.34594082172779383  1.0000
  N   N8        1.0  0.4823291703934133  0.9757768477750799  0.6540585014683487  1.0000
  N   N9        1.0  0.005654046626005998  0.7106245842782074  0.7474127627579819  1.0000
  N   N10       1.0  0.9943477323464976  0.28937882371560164  0.252583958999125  1.0000
