data_image0
_chemical_formula_structural       Na2Er2H32C36O24
_chemical_formula_sum              "Na2 Er2 H32 C36 O24"
_cell_length_a       6.78696867686724
_cell_length_b       7.442003299062306
_cell_length_c       19.825665317348328
_cell_angle_alpha    89.99953875096406
_cell_angle_beta     99.86724228225779
_cell_angle_gamma    90.00011820362178

_space_group_name_H-M_alt    "P 1"
_space_group_IT_number       1

loop_
  _space_group_symop_operation_xyz
  'x, y, z'

loop_
  _atom_site_type_symbol
  _atom_site_label
  _atom_site_symmetry_multiplicity
  _atom_site_fract_x
  _atom_site_fract_y
  _atom_site_fract_z
  _atom_site_occupancy
  Na  Na1       1.0  0.1641275940311786  0.25005034098023765  0.328390175386417  1.0000
  Na  Na2       1.0  0.8358675112219203  0.7500364447464919  0.6716136085681654  1.0000
  Er  Er1       1.0  0.2924818023284956  0.7498621101398157  0.5848955207426627  1.0000
  Er  Er2       1.0  0.7074968957246098  0.2498564952425539  0.4150982131173109  1.0000
  H   H1        1.0  0.2355867094302013  0.1447603296501185  0.063315266296911  1.0000
  H   H2        1.0  0.7644173458364918  0.6447689036857794  0.9366833178080468  1.0000
  H   H3        1.0  0.8272579427985676  0.3555012447277477  0.06336310688553938  1.0000
  H   H4        1.0  0.17274770792943164  0.8555126176727511  0.9366359339813427  1.0000
  H   H5        1.0  0.29773394615236976  0.1480646133940624  0.19043832074197548  1.0000
  H   H6        1.0  0.7022701034659349  0.6480743993124634  0.8095617660820551  1.0000
  H   H7        1.0  0.8922459720812624  0.35212587831499315  0.1904929740853447  1.0000
  H   H8        1.0  0.1077507013390573  0.8521250201299394  0.8095060499860053  1.0000
  H   H9        1.0  0.7807208911665738  0.14599964451364394  0.9697462736181137  1.0000
  H   H10       1.0  0.2193011159666938  0.6459993539374904  0.030252360873888093  1.0000
  H   H11       1.0  0.18864471081189293  0.3541956577626166  0.969624381678379  1.0000
  H   H12       1.0  0.8113848799353748  0.8541818177754265  0.030373558787523815  1.0000
  H   H13       1.0  0.7164816708147228  0.1431280331214992  0.8430647769310725  1.0000
  H   H14       1.0  0.2835403373196002  0.6431211694424448  0.15693336204230224  1.0000
  H   H15       1.0  0.12639208901211418  0.3568467548609675  0.8429505488273179  1.0000
  H   H16       1.0  0.8736330115971  0.8568438061889693  0.1570481264126187  1.0000
  H   H17       1.0  0.5065166776495218  0.26728952192175365  0.5652202187402722  1.0000
  H   H18       1.0  0.4934664986543992  0.7672893205926599  0.4347772575972755  1.0000
  H   H19       1.0  0.0587403393464641  0.2324382246786598  0.5651706526742117  1.0000
  H   H20       1.0  0.9412353492564876  0.7324376119284041  0.43482497402330017  1.0000
  H   H21       1.0  0.4343434413056144  0.11299669957740831  0.6559758837534702  1.0000
  H   H22       1.0  0.5656396801565151  0.6130120029601612  0.3440175230677625  1.0000
  H   H23       1.0  0.2215583510268004  0.3868004416181848  0.6559516189145072  1.0000
  H   H24       1.0  0.7784293713000565  0.8867973758383557  0.34404575997859144  1.0000
  H   H25       1.0  0.2457058881058387  0.5905924725603668  0.2643426089563333  1.0000
  H   H26       1.0  0.7542711987579054  0.0905761530125844  0.7356590840769073  1.0000
  H   H27       1.0  0.0184519488168107  0.9095708638521883  0.26430590318148717  1.0000
  H   H28       1.0  0.9815686330765416  0.40956442323713566  0.735704448293049  1.0000
  H   H29       1.0  0.0197830621760957  0.6039931002266102  0.2736615619007948  1.0000
  H   H30       1.0  0.9801970078302844  0.1039666986049497  0.7263432930608856  1.0000
  H   H31       1.0  0.25370833653654046  0.8963581712306234  0.273552145011621  1.0000
  H   H32       1.0  0.7463137075841503  0.39635546666900007  0.7264638819430331  1.0000
  C   C1        1.0  0.5269470555726699  0.2501342366539204  0.0543612358733441  1.0000
  C   C2        1.0  0.47306753053937456  0.7501366393828662  0.945635630946242  1.0000
  C   C3        1.0  0.48928799000713497  0.2501109962183391  0.9788661728806574  1.0000
  C   C4        1.0  0.5107265936613173  0.7501074745689493  0.021131198271980612  1.0000
  C   C5        1.0  0.3780655589393688  0.19413533068190963  0.0911089384328321  1.0000
  C   C6        1.0  0.6219415240951277  0.6941374762181524  0.9088871515061854  1.0000
  C   C7        1.0  0.7125754082574146  0.3061041861241165  0.09114548210744997  1.0000
  C   C8        1.0  0.2874332016806918  0.8061110100327724  0.9088553987174776  1.0000
  C   C9        1.0  0.41264271056832774  0.1945417635504896  0.16227490684033094  1.0000
  C   C10       1.0  0.5873613791751566  0.6945547462834296  0.8377215089931553  1.0000
  C   C11       1.0  0.7491781719371886  0.3055968888235371  0.16229419684254506  1.0000
  C   C12       1.0  0.2508214669835667  0.805603795556763  0.8377056499472032  1.0000
  C   C13       1.0  0.6376826394243266  0.19391430697715611  0.9419395046926836  1.0000
  C   C14       1.0  0.3623408822051672  0.6939123834655659  0.0580600812832799  1.0000
  C   C15       1.0  0.30399718573671203  0.30625467855780647  0.9418888859879501  1.0000
  C   C16       1.0  0.6960204217746551  0.8062494183611549  0.05810748318663881  1.0000
  C   C17       1.0  0.4171341715570094  0.2500264485653219  0.834385946486165  1.0000
  C   C18       1.0  0.5828923593175972  0.7500280878360926  0.1656156631201569  1.0000
  C   C19       1.0  0.6019115176982481  0.1921265239515506  0.8708138081902986  1.0000
  C   C20       1.0  0.3981090071148826  0.6921204851851145  0.1291866146229808  1.0000
  C   C21       1.0  0.2686987771351069  0.30792026721938726  0.8707654503217057  1.0000
  C   C22       1.0  0.7313277922456008  0.8079082033710209  0.129233966392782  1.0000
  C   C23       1.0  0.37907636435080144  0.24997212122459436  0.7581625863693231  1.0000
  C   C24       1.0  0.6209426693897484  0.7499762609185296  0.2418426146566617  1.0000
  C   C25       1.0  0.3691267140395453  0.1860290838605181  0.5573641089440571  1.0000
  C   C26       1.0  0.630860913316333  0.6860249718012738  0.44263287144776337  1.0000
  C   C27       1.0  0.18824739741780414  0.31374316306548883  0.5573428340895531  1.0000
  C   C28       1.0  0.8117253429785689  0.8137421150360068  0.4426518642185826  1.0000
  C   C29       1.0  0.35507372930731407  0.0862488553208678  0.4896894155414273  1.0000
  C   C30       1.0  0.6449183350295158  0.5862366244697126  0.5103081336866565  1.0000
  C   C31       1.0  0.1345604874161026  0.41355162490103237  0.48967302630948234  1.0000
  C   C32       1.0  0.8654108022177738  0.9135600092032803  0.5103222886891388  1.0000
  C   C33       1.0  0.598932964528707  0.25003873085022127  0.1982958502541692  1.0000
  C   C34       1.0  0.4010726361866758  0.75003864887001  0.8017030068036346  1.0000
  C   C35       1.0  0.6369549365094471  0.24990628391488906  0.27419477886210325  1.0000
  C   C36       1.0  0.363044686868804  0.7498983197989728  0.7258027158879229  1.0000
  O   O1        1.0  0.12436658025691828  0.5194286911540401  0.2663132635061629  1.0000
  O   O2        1.0  0.8756238556657435  0.0194072910905945  0.7337050745928337  1.0000
  O   O3        1.0  0.1416755198768129  0.9808246359964555  0.2661934834962665  1.0000
  O   O4        1.0  0.8583540584896525  0.48081797838595713  0.7338197040782433  1.0000
  O   O5        1.0  0.5206246072285763  0.2057479564187972  0.7260777545310333  1.0000
  O   O6        1.0  0.47938095202381686  0.7057672480580451  0.2739252710935887  1.0000
  O   O7        1.0  0.2054022076946396  0.2941216820838831  0.7260420096528719  1.0000
  O   O8        1.0  0.7946138447757106  0.7941053494239156  0.2739654014240642  1.0000
  O   O9        1.0  0.2933330764154363  0.9261248164865918  0.4877477809301212  1.0000
  O   O10       1.0  0.7066441724302804  0.42611849144684294  0.5122539011462379  1.0000
  O   O11       1.0  0.1943125405455959  0.5736940715601621  0.4877275293285948  1.0000
  O   O12       1.0  0.8056780317410029  0.07369332746576872  0.5122679524596875  1.0000
  O   O13       1.0  0.4050196289220125  0.16826096522002132  0.438732673057558  1.0000
  O   O14       1.0  0.5949515363084856  0.6682529288120947  0.5612638914865329  1.0000
  O   O15       1.0  0.03362536938675479  0.33152710094817905  0.4387169242612785  1.0000
  O   O16       1.0  0.966344364483028  0.8315319318215089  0.5612825854316981  1.0000
  O   O17       1.0  0.3784925638381935  0.053912227699853994  0.6101910958529118  1.0000
  O   O18       1.0  0.6214994965773498  0.5539199617765079  0.3898040303260899  1.0000
  O   O19       1.0  0.23164036904601906  0.44586433318942653  0.6101772403807075  1.0000
  O   O20       1.0  0.7683159764643434  0.9458589357883512  0.3898180994317356  1.0000
  O   O21       1.0  0.491993901406893  0.23479963222367667  0.3076236005691086  1.0000
  O   O22       1.0  0.5080027355489208  0.7347980512856723  0.692371241694957  1.0000
  O   O23       1.0  0.8153994774849805  0.264820112008529  0.3076075335889428  1.0000
  O   O24       1.0  0.1845926537678722  0.7648003881392144  0.6923940113780702  1.0000
