data_image0
_chemical_formula_structural       Co2H20C16O8
_chemical_formula_sum              "Co2 H20 C16 O8"
_cell_length_a       5.064134341390992
_cell_length_b       6.477923828469216
_cell_length_c       12.986406303262658
_cell_angle_alpha    100.55022062366402
_cell_angle_beta     98.39694249166998
_cell_angle_gamma    100.64771204227269

_space_group_name_H-M_alt    "P 1"
_space_group_IT_number       1

loop_
  _space_group_symop_operation_xyz
  'x, y, z'

loop_
  _atom_site_type_symbol
  _atom_site_label
  _atom_site_symmetry_multiplicity
  _atom_site_fract_x
  _atom_site_fract_y
  _atom_site_fract_z
  _atom_site_occupancy
  Co  Co1       1.0  0.7790934601772221  0.925068133725482  0.9688767993477188  1.0000
  Co  Co2       1.0  0.2265460453935759  0.0749299237232748  0.031957506240345906  1.0000
  H   H1        1.0  0.587460189021897  0.4748198788721609  0.17246416600875858  1.0000
  H   H2        1.0  0.4170394209296332  0.5253728173180576  0.8272857412577537  1.0000
  H   H3        1.0  0.9779238079590299  0.34037737492780445  0.3382001515356167  1.0000
  H   H4        1.0  0.021922418475305943  0.6609576928159129  0.6634344808078583  1.0000
  H   H5        1.0  0.6403063560669934  0.19662446134925193  0.27857190857177033  1.0000
  H   H6        1.0  0.3615496687141331  0.8029296670047756  0.7212888147674621  1.0000
  H   H7        1.0  0.446849397726396  0.49510116157800604  0.3561724140451902  1.0000
  H   H8        1.0  0.5488465105397466  0.5028309872384185  0.6405131146618076  1.0000
  H   H9        1.0  0.6576474056223419  0.4241681908412929  0.4587477135061704  1.0000
  H   H10       1.0  0.33330984386198986  0.5750565140407744  0.5398552959022  1.0000
  H   H11       1.0  0.7306882070266739  0.8280356679847144  0.47507397026105036  1.0000
  H   H12       1.0  0.25703488155794924  0.17121699424644993  0.5224829220958328  1.0000
  H   H13       1.0  0.0316638257350234  0.7311197166969803  0.46566301873350835  1.0000
  H   H14       1.0  0.9594622519544203  0.2702881626111732  0.5354980679255663  1.0000
  H   H15       1.0  0.6619903999396114  0.8452717620013316  0.2846493565465948  1.0000
  H   H16       1.0  0.3374244739565738  0.15377922455883922  0.7133608142990155  1.0000
  H   H17       1.0  0.995210968729964  0.9879776479064546  0.348554971444628  1.0000
  H   H18       1.0  0.0019392593040095025  0.012138821184301207  0.6514556320126702  1.0000
  H   H19       1.0  0.18752570223975337  0.6773637095509883  0.27425046029437544  1.0000
  H   H20       1.0  0.8152101668497168  0.3247282969591581  0.7277611829112304  1.0000
  C   C1        1.0  0.7930044283982339  0.46060206423339883  0.20684351017201416  1.0000
  C   C2        1.0  0.21098999063901394  0.5395439361423371  0.793571158092071  1.0000
  C   C3        1.0  0.7725885404491706  0.3584083034538565  0.3045371037795165  1.0000
  C   C4        1.0  0.22774399832984218  0.641686795347333  0.6956825253241306  1.0000
  C   C5        1.0  0.6610007297764255  0.49657045689865253  0.3885949509995542  1.0000
  C   C6        1.0  0.33388224070910866  0.5026998491347925  0.6100906965941135  1.0000
  C   C7        1.0  0.8281421254266021  0.7280307338166381  0.4207449096440001  1.0000
  C   C8        1.0  0.16458029326354756  0.2719053058164036  0.5785790165074688  1.0000
  C   C9        1.0  0.8617176796153742  0.8265063093368353  0.3237965115908281  1.0000
  C   C10       1.0  0.13648150483544438  0.17326579384263846  0.6757721311304934  1.0000
  C   C11       1.0  0.9790151298309624  0.6861701788233531  0.24008109369973604  1.0000
  C   C12       1.0  0.02391547374103448  0.3143829329185408  0.7608201009577727  1.0000
  C   C13       1.0  0.880292598437606  0.30415155020921253  0.12477703653193123  1.0000
  C   C14       1.0  0.12501585305754048  0.696071562090424  0.876067608719403  1.0000
  C   C15       1.0  0.9978126768691096  0.7956337326096302  0.14696448028439596  1.0000
  C   C16       1.0  0.006801814396119698  0.20440929678598246  0.8538071051512194  1.0000
  O   O1        1.0  0.6884330504819047  0.15824037798597607  0.06151841315067232  1.0000
  O   O2        1.0  0.3169597013488712  0.8416142918853781  0.9394666591454243  1.0000
  O   O3        1.0  0.13309574022039067  0.30917324591969475  0.12484214372231153  1.0000
  O   O4        1.0  0.8722909138340214  0.6913703599000485  0.8760416647696946  1.0000
  O   O5        1.0  0.7791942578439122  0.7643209521062745  0.07786777112385584  1.0000
  O   O6        1.0  0.22568977098063664  0.23518314665076903  0.9226617059412237  1.0000
  O   O7        1.0  0.22449308156573272  0.9203283505203005  0.14571322173194554  1.0000
  O   O8        1.0  0.7802261615172625  0.0795824639284035  0.8550420555175366  1.0000
