data_image0
_chemical_formula_structural       U2H32C24O16
_chemical_formula_sum              "U2 H32 C24 O16"
_cell_length_a       8.521265129333665
_cell_length_b       8.776129130812263
_cell_length_c       10.963447455320868
_cell_angle_alpha    79.31883319015131
_cell_angle_beta     85.7671352325604
_cell_angle_gamma    75.29208353168764

_space_group_name_H-M_alt    "P 1"
_space_group_IT_number       1

loop_
  _space_group_symop_operation_xyz
  'x, y, z'

loop_
  _atom_site_type_symbol
  _atom_site_label
  _atom_site_symmetry_multiplicity
  _atom_site_fract_x
  _atom_site_fract_y
  _atom_site_fract_z
  _atom_site_occupancy
  U   U1        1.0  0.3973305049317801  0.7398535618216685  0.019335607125299206  1.0000
  U   U2        1.0  0.6026660213999407  0.26014467874176017  0.9806600916902681  1.0000
  H   H1        1.0  0.8985176182281835  0.5768004444054996  0.051952942070513965  1.0000
  H   H2        1.0  0.1014840714602627  0.4232108214466237  0.9480433247431108  1.0000
  H   H3        1.0  0.3954517104188824  0.1449859722211215  0.4359616468627507  1.0000
  H   H4        1.0  0.604540171139135  0.8550122297423074  0.5640416413037457  1.0000
  H   H5        1.0  0.5077794376982184  0.1687573889198859  0.2957601096518729  1.0000
  H   H6        1.0  0.4922254086585839  0.8312358592270072  0.7042458191693157  1.0000
  H   H7        1.0  0.05328416911157772  0.06589131907505671  0.2498296620525977  1.0000
  H   H8        1.0  0.9467124351069602  0.9341164731852205  0.750163763052271  1.0000
  H   H9        1.0  0.08525426617542563  0.06945206917399818  0.40660141232459784  1.0000
  H   H10       1.0  0.9147393755832883  0.930553360322861  0.5933934432589609  1.0000
  H   H11       1.0  0.06086316613311744  0.5157464602595496  0.3532261141013251  1.0000
  H   H12       1.0  0.9391408621837274  0.4842551572291571  0.6467777642023904  1.0000
  H   H13       1.0  0.11822855834192583  0.3375789154641495  0.46367020149369864  1.0000
  H   H14       1.0  0.8817748110762698  0.6624203817544511  0.5363294861222698  1.0000
  H   H15       1.0  0.32560693270170304  0.5619005085711208  0.4118881337375909  1.0000
  H   H16       1.0  0.6743981815058718  0.4381012113408431  0.5881065412645086  1.0000
  H   H17       1.0  0.5137457413846747  0.42710367781842257  0.3835044606712543  1.0000
  H   H18       1.0  0.48625786506164564  0.5728944814851148  0.6164908130637485  1.0000
  H   H19       1.0  0.38005426251563523  0.3689444762504409  0.5057589174373334  1.0000
  H   H20       1.0  0.6199482169742582  0.6310584550498531  0.4942366601573127  1.0000
  H   H21       1.0  0.29824444889249685  0.8212975146701852  0.33589422248765294  1.0000
  H   H22       1.0  0.7017418508993315  0.17870434075822322  0.6641079787810185  1.0000
  H   H23       1.0  0.3375858495017354  0.907184439054987  0.4625651432853034  1.0000
  H   H24       1.0  0.6623975314800888  0.0928198236600934  0.5374378082294484  1.0000
  H   H25       1.0  0.49120524945673333  0.8602180005832523  0.3457486108673109  1.0000
  H   H26       1.0  0.5087825272737022  0.1397778057734484  0.6542598316065806  1.0000
  H   H27       1.0  0.7890985657722781  0.44428685661899453  0.3488815910164149  1.0000
  H   H28       1.0  0.21089950938640098  0.5557100701328467  0.651122408508222  1.0000
  H   H29       1.0  0.864568525812878  0.26478361041474585  0.4562899564242287  1.0000
  H   H30       1.0  0.13543686648853284  0.7352120971621404  0.543709204138878  1.0000
  H   H31       1.0  0.7844284292696743  0.2566930622841923  0.3120989287953719  1.0000
  H   H32       1.0  0.21557494014851386  0.7433062349344084  0.6879007588205965  1.0000
  C   C1        1.0  0.30110765266701384  0.36590800099205717  0.3223107387954657  1.0000
  C   C2        1.0  0.6988936219796146  0.6340901506081381  0.6776874163695153  1.0000
  C   C3        1.0  0.38355258488991956  0.18659661564478114  0.3352315894371003  1.0000
  C   C4        1.0  0.6164402114205603  0.8134027454803671  0.6647733020271431  1.0000
  C   C5        1.0  0.2959062167648697  0.07561000618599681  0.2887175829935771  1.0000
  C   C6        1.0  0.7040909684655007  0.9243905546475305  0.7112823065097373  1.0000
  C   C7        1.0  0.11019752695337102  0.1223981922006345  0.3101240379886008  1.0000
  C   C8        1.0  0.8898005507894241  0.8776083790213107  0.6898703818614537  1.0000
  C   C9        1.0  0.025167776403577598  0.30142251223698224  0.2971734960883268  1.0000
  C   C10       1.0  0.9748315378353498  0.6985839758617018  0.7028263323878791  1.0000
  C   C11       1.0  0.12150701936780453  0.38784268072390665  0.3638518436196065  1.0000
  C   C12       1.0  0.8784934218275497  0.6121590353780348  0.636147680996956  1.0000
  C   C13       1.0  0.3200161054715736  0.4713628559372011  0.19674813726876292  1.0000
  C   C14       1.0  0.6799888777864994  0.5286245538244855  0.8032485784311519  1.0000
  C   C15       1.0  0.38579446773292164  0.43600804267664023  0.4111724314822496  1.0000
  C   C16       1.0  0.6142097787863819  0.5639924600903186  0.5888252064495206  1.0000
  C   C17       1.0  0.3466719243067402  0.051294351970163604  0.15557894074206757  1.0000
  C   C18       1.0  0.6533346574265977  0.9487013304667543  0.8444210622197661  1.0000
  C   C19       1.0  0.36027510608309404  0.9046454537055411  0.36300122019102343  1.0000
  C   C20       1.0  0.6397153207763469  0.0953539461029038  0.6370028997212529  1.0000
  C   C21       1.0  0.013173306702128698  0.3845752058976615  0.16231490351344752  1.0000
  C   C22       1.0  0.9868239846535759  0.6154348718427445  0.8376854520156201  1.0000
  C   C23       1.0  0.8546530320822969  0.31823568240539407  0.3574617893738719  1.0000
  C   C24       1.0  0.14534596382731016  0.681767219944895  0.642539480233964  1.0000
  O   O1        1.0  0.23561939633592036  0.7776422985220748  0.9119010380937667  1.0000
  O   O2        1.0  0.7644103390847478  0.22234486161995898  0.08809145008771682  1.0000
  O   O3        1.0  0.5539466982503427  0.7017013952346146  0.1304861198138384  1.0000
  O   O4        1.0  0.4460486087037341  0.29829775325738694  0.8695332418846462  1.0000
  O   O5        1.0  0.23566346911795222  0.6154336116299819  0.18041253946798724  1.0000
  O   O6        1.0  0.764327477984999  0.3845529618963185  0.8195696535662619  1.0000
  O   O7        1.0  0.4294622537983557  0.4293237392953912  0.11355006407654863  1.0000
  O   O8        1.0  0.5705617697835664  0.5706632566300556  0.8864610432484453  1.0000
  O   O9        1.0  0.4713173114987087  0.0964042533191787  0.10728626718457691  1.0000
  O   O10       1.0  0.5286939689012371  0.9035817536676874  0.8927212055738211  1.0000
  O   O11       1.0  0.278326400400573  0.966919314081629  0.10433123411576163  1.0000
  O   O12       1.0  0.7216766412754725  0.033076408985230905  0.8956689813863506  1.0000
  O   O13       1.0  0.8994087755778823  0.5176796718714272  0.14313961105118983  1.0000
  O   O14       1.0  0.10058557214367168  0.4823280199122453  0.8568640014475336  1.0000
  O   O15       1.0  0.1116987456678373  0.3317281267990353  0.08088306103694981  1.0000
  O   O16       1.0  0.8883006122209168  0.6682831313497462  0.9191160872066462  1.0000
