data_image0
_chemical_formula_structural       Zn2H28C44S2N2O12
_chemical_formula_sum              "Zn2 H28 C44 S2 N2 O12"
_cell_length_a       8.17591942488805
_cell_length_b       13.134849357631682
_cell_length_c       12.546278909675344
_cell_angle_alpha    84.48809826478148
_cell_angle_beta     77.01613601829997
_cell_angle_gamma    70.83821845886945

_space_group_name_H-M_alt    "P 1"
_space_group_IT_number       1

loop_
  _space_group_symop_operation_xyz
  'x, y, z'

loop_
  _atom_site_type_symbol
  _atom_site_label
  _atom_site_symmetry_multiplicity
  _atom_site_fract_x
  _atom_site_fract_y
  _atom_site_fract_z
  _atom_site_occupancy
  Zn  Zn1       1.0  0.6718583278197341  0.47448786455189657  0.42567355472869667  1.0000
  Zn  Zn2       1.0  0.3281294173982942  0.5255169604893838  0.5743203246454202  1.0000
  H   H1        1.0  0.12259985545819058  0.37842848863808604  0.06627729155229638  1.0000
  H   H2        1.0  0.8774088007448881  0.6215703827202361  0.9337233123341306  1.0000
  H   H3        1.0  0.8602736025739046  0.3728265651331312  0.20928167659764094  1.0000
  H   H4        1.0  0.13972589741850763  0.6271748958666024  0.7907122003740598  1.0000
  H   H5        1.0  0.19009783305818923  0.6094054358241934  0.262390280994488  1.0000
  H   H6        1.0  0.8099179611533528  0.390577956100458  0.7376290423427818  1.0000
  H   H7        1.0  0.02090899731908989  0.2034383387249576  0.34808175650877626  1.0000
  H   H8        1.0  0.9790804040880731  0.7965656647512774  0.6519119327162742  1.0000
  H   H9        1.0  0.9594222522985658  0.011854653481677196  0.3206518281291083  1.0000
  H   H10       1.0  0.04055836811195218  0.9881400052128911  0.6793267014900763  1.0000
  H   H11       1.0  0.47318529591509423  0.9078757426378131  0.10489073542695593  1.0000
  H   H12       1.0  0.5268301235686507  0.09213094733592439  0.8951199315047875  1.0000
  H   H13       1.0  0.036237197505506885  0.8353736651002064  0.4258954240231034  1.0000
  H   H14       1.0  0.9637583029022281  0.16461748095114362  0.5740945648825431  1.0000
  H   H15       1.0  0.5054318336651987  0.14041404419400294  0.1031188287876645  1.0000
  H   H16       1.0  0.4945611243799134  0.8595955239125176  0.8968737163801778  1.0000
  H   H17       1.0  0.47036046383180974  0.5287181430479322  0.1972501239277662  1.0000
  H   H18       1.0  0.5296427887069368  0.471281588620208  0.8027520804966104  1.0000
  H   H19       1.0  0.7385835097960366  0.5357625575963709  0.06725302504926131  1.0000
  H   H20       1.0  0.2614251450177034  0.46423389550216143  0.9327494166509355  1.0000
  H   H21       1.0  0.927526225090119  0.5915347861826562  0.3989054218553748  1.0000
  H   H22       1.0  0.0724775691842224  0.4084537073893771  0.6010994163604836  1.0000
  H   H23       1.0  0.1281513044593084  0.3133366202253001  0.4493599724717826  1.0000
  H   H24       1.0  0.8718435015153077  0.6866575775748984  0.5506473674982005  1.0000
  H   H25       1.0  0.6128865808280464  0.25086328645704004  0.20700920278534346  1.0000
  H   H26       1.0  0.38711497550629304  0.7491372746126501  0.7929924001743913  1.0000
  H   H27       1.0  0.5455440562276974  0.7320550562251997  0.209974697533994  1.0000
  H   H28       1.0  0.4544675449894484  0.26795725235886175  0.7900400209594383  1.0000
  C   C1        1.0  0.43046823692922226  0.3655608750265317  0.3900420309350708  1.0000
  C   C2        1.0  0.5695267282033852  0.6344422367938877  0.6099532242068693  1.0000
  C   C3        1.0  0.3444290909213448  0.49680058349615314  0.0744744813624223  1.0000
  C   C4        1.0  0.6555742816632417  0.5031991246624871  0.9255300979030852  1.0000
  C   C5        1.0  0.08290385606017016  0.4291698388254731  0.13734009925259022  1.0000
  C   C6        1.0  0.9170988427251527  0.5708307302266248  0.8626589226076223  1.0000
  C   C7        1.0  0.9367851545338792  0.42490535500827054  0.2169654071036718  1.0000
  C   C8        1.0  0.06320957557819179  0.5750961132443138  0.7830348361975654  1.0000
  C   C9        1.0  0.12253790015880375  0.5550665234056283  0.24750324339746044  1.0000
  C   C10       1.0  0.8774690956871257  0.4449259147383556  0.7525030640793631  1.0000
  C   C11       1.0  0.15169067693136637  0.2121982684470964  0.3182698936431336  1.0000
  C   C12       1.0  0.8483056201001345  0.7877968297208896  0.6817243518813855  1.0000
  C   C13       1.0  0.345818311147738  0.6706622228690834  0.38918588446121305  1.0000
  C   C14       1.0  0.6541721683794819  0.32934809612807214  0.6108157648649097  1.0000
  C   C15       1.0  0.08723561839514085  0.9500515250483944  0.2972358245339209  1.0000
  C   C16       1.0  0.9127631249887855  0.04994597599821301  0.7027545874326152  1.0000
  C   C17       1.0  0.25725306194183156  0.16686132894995612  0.21959824662136643  1.0000
  C   C18       1.0  0.7427405942181976  0.8331410785610914  0.7803885231374751  1.0000
  C   C19       1.0  0.3775028004911717  0.8912409108739681  0.17444086434947084  1.0000
  C   C20       1.0  0.6225191651078887  0.10876492677237343  0.8255656209448008  1.0000
  C   C21       1.0  0.12955266024306414  0.852163199945096  0.35508788893857723  1.0000
  C   C22       1.0  0.870451649644977  0.14783824596528922  0.6449004133173021  1.0000
  C   C23       1.0  0.21256916526370143  0.9686113282734965  0.20801659058297162  1.0000
  C   C24       1.0  0.7874404333139678  0.03138759024974289  0.7919774741353863  1.0000
  C   C25       1.0  0.42447231505295946  0.17810792356244323  0.17927427400746862  1.0000
  C   C26       1.0  0.5755259275137731  0.821891862377548  0.8207295470641824  1.0000
  C   C27       1.0  0.4806071633383269  0.5179023889690129  0.11072224890501303  1.0000
  C   C28       1.0  0.5193978654353939  0.4820964976245747  0.8892821402114282  1.0000
  C   C29       1.0  0.29523164699290294  0.7741475359176492  0.3238823703039416  1.0000
  C   C30       1.0  0.7047703936927903  0.22586018589342416  0.6761232185789938  1.0000
  C   C31       1.0  0.6332227608668218  0.5214589867933127  0.03706611663609753  1.0000
  C   C32       1.0  0.3667808025550059  0.4785351179902691  0.9629381962977348  1.0000
  C   C33       1.0  0.18239956345920652  0.4938395929683921  0.152500690632671  1.0000
  C   C34       1.0  0.8176088563339972  0.5061552165623054  0.8475067392268303  1.0000
  C   C35       1.0  0.9757424996830718  0.5467045017665199  0.32344650980382283  1.0000
  C   C36       1.0  0.02426141741578645  0.45328880481560674  0.6765570276256199  1.0000
  C   C37       1.0  0.2117436268774141  0.2740019842365485  0.3747164794345964  1.0000
  C   C38       1.0  0.7882462827105456  0.725991516653039  0.6252869519960101  1.0000
  C   C39       1.0  0.48374048760906857  0.23996348333477616  0.23691815515060458  1.0000
  C   C40       1.0  0.5162513638323245  0.7600388141734485  0.7630832761717985  1.0000
  C   C41       1.0  0.41756393840346806  0.7936898071320757  0.23286804591761984  1.0000
  C   C42       1.0  0.5824533695112707  0.20631286832485782  0.7671411183333134  1.0000
  C   C43       1.0  0.3757060943608437  0.29026530856858557  0.33324561960231597  1.0000
  C   C44       1.0  0.6242869753940781  0.7097297264696606  0.6667603272893177  1.0000
  S   S1        1.0  0.1692111108576739  0.0982866389217634  0.14214385689836462  1.0000
  S   S2        1.0  0.8307807405837122  0.9017156585864613  0.8578575744240383  1.0000
  N   N1        1.0  0.8847160571080434  0.48185959171479453  0.3092242852015731  1.0000
  N   N2        1.0  0.115279935500851  0.5181418610107045  0.6907757518412724  1.0000
  O   O1        1.0  0.23313274143001192  0.6557534767076305  0.47255009624690564  1.0000
  O   O2        1.0  0.7668582453748839  0.3442552850691031  0.5274460440018843  1.0000
  O   O3        1.0  0.31630704169276674  0.41756835796758207  0.4693877828434339  1.0000
  O   O4        1.0  0.6836827561853837  0.5824396759902797  0.5306022468633814  1.0000
  O   O5        1.0  0.5844090184442335  0.37322467533808634  0.3537107664540927  1.0000
  O   O6        1.0  0.4155674908086909  0.6267809936104456  0.6462952441144555  1.0000
  O   O7        1.0  0.4995097857964196  0.6053597493261905  0.3556543949423627  1.0000
  O   O8        1.0  0.5004797807429994  0.3946425322172118  0.6443521985790853  1.0000
  O   O9        1.0  0.2744019223645325  0.0877700541671729  0.0315335089939097  1.0000
  O   O10       1.0  0.7256142981910048  0.9122207415762771  0.9684634707557224  1.0000
  O   O11       1.0  0.978966962544412  0.15049755870917642  0.16155492855702386  1.0000
  O   O12       1.0  0.021048386914145432  0.8494989736298282  0.8384288600912058  1.0000
