data_image0
_chemical_formula_structural       Cd3H30C38N12O16
_chemical_formula_sum              "Cd3 H30 C38 N12 O16"
_cell_length_a       6.1912670643288825
_cell_length_b       13.942154163681462
_cell_length_c       13.914246403997957
_cell_angle_alpha    121.38067251974337
_cell_angle_beta     90.08827597024826
_cell_angle_gamma    99.11059349531222

_space_group_name_H-M_alt    "P 1"
_space_group_IT_number       1

loop_
  _space_group_symop_operation_xyz
  'x, y, z'

loop_
  _atom_site_type_symbol
  _atom_site_label
  _atom_site_symmetry_multiplicity
  _atom_site_fract_x
  _atom_site_fract_y
  _atom_site_fract_z
  _atom_site_occupancy
  Cd  Cd1       1.0  9.77429096020625e-07  0.9999999508437586  0.49999977250304534  1.0000
  Cd  Cd2       1.0  0.4128182980396957  0.050768455840248805  0.16417854420916458  1.0000
  Cd  Cd3       1.0  0.5871716460182413  0.9492316679385056  0.8358216939322387  1.0000
  H   H1        1.0  0.26662325015961125  0.27887083990861333  0.14374947397579516  1.0000
  H   H2        1.0  0.7333811939557435  0.7211291976813926  0.8562471318831866  1.0000
  H   H3        1.0  0.8712561755944322  0.24815577114689097  0.2549851944234973  1.0000
  H   H4        1.0  0.12873765926687517  0.7518461486289214  0.7450209909903549  1.0000
  H   H5        1.0  0.936945068221441  0.44077543229028754  0.23881748231173106  1.0000
  H   H6        1.0  0.06306264490505246  0.5592246912436354  0.7611841999279604  1.0000
  H   H7        1.0  0.8452306785447519  0.5990365840615369  0.26301866568091736  1.0000
  H   H8        1.0  0.1547712531624584  0.40096096856982677  0.7369809866626369  1.0000
  H   H9        1.0  0.7294105797058636  0.7420268466563658  0.23143769068301612  1.0000
  H   H10       1.0  0.27059712765370153  0.25797326392039827  0.7685632661869306  1.0000
  H   H11       1.0  0.6035543225748301  0.85514764253162  0.1973767583476232  1.0000
  H   H12       1.0  0.396445587301109  0.14485766430182423  0.802629716299016  1.0000
  H   H13       1.0  0.029329378797314187  0.6012437339410682  0.014476132525004454  1.0000
  H   H14       1.0  0.9706808698050153  0.3987589263801327  0.9855254047090867  1.0000
  H   H15       1.0  0.007270706748393359  0.7971585886527921  0.01269838120452251  1.0000
  H   H16       1.0  0.9927244373050642  0.20284248667550744  0.9873080935294566  1.0000
  H   H17       1.0  0.24677772409989276  0.3254543182857433  0.4229652448802312  1.0000
  H   H18       1.0  0.753226743083154  0.6745457711328982  0.5770342624577224  1.0000
  H   H19       1.0  0.8686695388761125  0.5558858903165815  0.581583872582584  1.0000
  H   H20       1.0  0.1313310894058759  0.444112519719461  0.4184162158105947  1.0000
  H   H21       1.0  0.9948696461051513  0.411205561234688  0.6056833607504399  1.0000
  H   H22       1.0  0.005126815078888711  0.588790275520694  0.39431469714284617  1.0000
  H   H23       1.0  0.8545592331146424  0.06782907431777123  0.2429974765099061  1.0000
  H   H24       1.0  0.14543321758451117  0.9321735214624456  0.7569989897771874  1.0000
  H   H25       1.0  0.09651716643774941  0.9562563572873019  0.30115073540293463  1.0000
  H   H26       1.0  0.9034773096880858  0.043742904330571306  0.6988490654813544  1.0000
  H   H27       1.0  0.729619861154923  0.08003097937110232  0.35164888242179154  1.0000
  H   H28       1.0  0.2703778147789607  0.9199682127047456  0.6483472904062991  1.0000
  H   H29       1.0  0.07467286151415928  0.8398058026436959  0.3045037012905851  1.0000
  H   H30       1.0  0.9253248432543445  0.16019345421796777  0.6954960983862151  1.0000
  C   C1        1.0  0.43818036214734957  0.2947745929971363  0.17262476627097104  1.0000
  C   C2        1.0  0.5618079502884825  0.7052254942882287  0.8273732963649464  1.0000
  C   C3        1.0  0.7552522483475741  0.2847300933774548  0.23135469156071045  1.0000
  C   C4        1.0  0.24476196243274023  0.7152701113441822  0.768652065852194  1.0000
  C   C5        1.0  0.7889013277588575  0.3809044012125469  0.22559564385406355  1.0000
  C   C6        1.0  0.21108994279200038  0.6190949169901787  0.7744070597166868  1.0000
  C   C7        1.0  0.5389443195362136  0.4748407695460842  0.17299818828423238  1.0000
  C   C8        1.0  0.461054736964428  0.5251533264856293  0.826997546770336  1.0000
  C   C9        1.0  0.686528078380519  0.578800395026768  0.21637884819097047  1.0000
  C   C10       1.0  0.31348056166739724  0.4212022806297  0.7836234150166062  1.0000
  C   C11       1.0  0.6234703025755978  0.6589313616187056  0.19819233743734785  1.0000
  C   C12       1.0  0.3765245442871077  0.34106447751477736  0.8018057210596864  1.0000
  C   C13       1.0  0.418874996959005  0.6283966006588814  0.13655465406502282  1.0000
  C   C14       1.0  0.5811326873328682  0.37160345808923273  0.8634434013259592  1.0000
  C   C15       1.0  0.4462887210012526  0.8129653766628807  0.14634974943513873  1.0000
  C   C16       1.0  0.5536973841556262  0.1870330677332674  0.8536510697614828  1.0000
  C   C17       1.0  0.143350692098359  0.681951590265591  0.05053759413815571  1.0000
  C   C18       1.0  0.8566518614010833  0.31804767241892057  0.9494629290971515  1.0000
  C   C19       1.0  0.13651094318873203  0.7793744068122452  0.050174499480839116  1.0000
  C   C20       1.0  0.8634881111403915  0.22062409630203217  0.9498306671042724  1.0000
  C   C21       1.0  0.32637465640367225  0.15668501955659764  0.44552311800486416  1.0000
  C   C22       1.0  0.6736188329599814  0.8433159674496766  0.5544782797446642  1.0000
  C   C23       1.0  0.48198341718690324  0.2666456066079732  0.4815528952408099  1.0000
  C   C24       1.0  0.5180181322495871  0.7333553425934485  0.5184470487505095  1.0000
  C   C25       1.0  0.4103595781049876  0.3480806740745309  0.46619207128198775  1.0000
  C   C26       1.0  0.5896403454763118  0.6519202515906743  0.5338064225735905  1.0000
  C   C27       1.0  0.5411847680436354  0.45610784686419953  0.5057952168500462  1.0000
  C   C28       1.0  0.4588194055440696  0.5438914263993625  0.4942060311512576  1.0000
  C   C29       1.0  0.7551029751567598  0.4764103845292383  0.5550807461107609  1.0000
  C   C30       1.0  0.24489764735830738  0.5235880125496382  0.4449186169126732  1.0000
  C   C31       1.0  0.8271932342737358  0.3951943049923231  0.5699739120996481  1.0000
  C   C32       1.0  0.17281255363531062  0.6048049658931378  0.43002733529790754  1.0000
  C   C33       1.0  0.6901465363253578  0.29143287921570504  0.537834757034723  1.0000
  C   C34       1.0  0.30984698981135506  0.7085637784509661  0.46216156140270925  1.0000
  C   C35       1.0  0.7699840652952973  0.21082555702211186  0.5645619527178167  1.0000
  C   C36       1.0  0.23001234181491279  0.7891745702013823  0.43543900837834565  1.0000
  C   C37       1.0  0.9300124249856695  0.021344865856662006  0.051484945557127994  1.0000
  C   C38       1.0  0.0699938304325444  0.9786645923608577  0.9485171761799831  1.0000
  N   N1        1.0  0.536590286752258  0.23201617830991947  0.19796903575480226  1.0000
  N   N2        1.0  0.4634061261248732  0.7679839618707334  0.8020326507111049  1.0000
  N   N3        1.0  0.5861602644320315  0.38747298589737506  0.1886988420573842  1.0000
  N   N4        1.0  0.4138496502064868  0.6125287675686124  0.8112993582518655  1.0000
  N   N5        1.0  0.3456947543846526  0.4504761873429431  0.11493464874207147  1.0000
  N   N6        1.0  0.6543136115402106  0.5495213039473583  0.8850620997075325  1.0000
  N   N7        1.0  0.2856640588782469  0.5274535584863927  0.0963238732119081  1.0000
  N   N8        1.0  0.7143446294765781  0.47254481374480434  0.9036747614230549  1.0000
  N   N9        1.0  0.34182442766775983  0.7039808047833773  0.11197250988202259  1.0000
  N   N10       1.0  0.658183219851054  0.2960235833043328  0.8880306248210558  1.0000
  N   N11       1.0  0.3249431621103441  0.8598394167824851  0.10948596692225712  1.0000
  N   N12       1.0  0.6750516595131446  0.14016077760492612  0.8905186216263629  1.0000
  O   O1        1.0  0.2528438714325887  0.09040945737215374  0.34165808498931943  1.0000
  O   O2        1.0  0.7471437363025544  0.909593145542381  0.6583383831090115  1.0000
  O   O3        1.0  0.2756903291035612  0.14176579404054485  0.5256074228537528  1.0000
  O   O4        1.0  0.7243119077328404  0.8582326006602303  0.4743919395659332  1.0000
  O   O5        1.0  0.8427369794334681  0.2513896171251773  0.6658529675033334  1.0000
  O   O6        1.0  0.1572556140148933  0.7486044754617893  0.33414204459646857  1.0000
  O   O7        1.0  0.7625760043252469  0.10784756045082135  0.48226825675774165  1.0000
  O   O8        1.0  0.23742590431426447  0.8921499403518993  0.5177284941068405  1.0000
  O   O9        1.0  0.7103013497830731  0.06061553944551431  0.2716374815279181  1.0000
  O   O10       1.0  0.2896947060625479  0.9393836420512827  0.728357966534176  1.0000
  O   O11       1.0  0.03394843441442671  0.0664897386111676  0.14840580921746488  1.0000
  O   O12       1.0  0.9660612430325701  0.9335247178160488  0.8515916708937468  1.0000
  O   O13       1.0  0.7248254066009353  0.008344120774943101  0.031117561050201897  1.0000
  O   O14       1.0  0.2751670924051271  0.9916541715800027  0.9688752766642778  1.0000
  O   O15       1.0  0.9909003852465545  0.8952599536782415  0.3027134369200794  1.0000
  O   O16       1.0  0.00909763041806851  0.10474015820998522  0.6972867982025974  1.0000
