data_image0
_chemical_formula_structural       Zr6H23C56S10O32F5
_chemical_formula_sum              "Zr6 H23 C56 S10 O32 F5"
_cell_length_a       16.4568309494851
_cell_length_b       16.450858141344607
_cell_length_c       16.518925208584687
_cell_angle_alpha    61.954924906210834
_cell_angle_beta     59.85165471958278
_cell_angle_gamma    60.2633235755017

_space_group_name_H-M_alt    "P 1"
_space_group_IT_number       1

loop_
  _space_group_symop_operation_xyz
  'x, y, z'

loop_
  _atom_site_type_symbol
  _atom_site_label
  _atom_site_symmetry_multiplicity
  _atom_site_fract_x
  _atom_site_fract_y
  _atom_site_fract_z
  _atom_site_occupancy
  Zr  Zr1       1.0  0.886916780990418  0.9043132938150578  0.5998216621135486  1.0000
  Zr  Zr2       1.0  0.10830761717268435  0.10667662817073884  0.3980427956893351  1.0000
  Zr  Zr3       1.0  0.10094304741559759  0.8981150229138634  0.6067918260061589  1.0000
  Zr  Zr4       1.0  0.8939527703355735  0.1133123533178449  0.39211487614569773  1.0000
  Zr  Zr5       1.0  0.10683855438297463  0.8962089920373515  0.38995795486756896  1.0000
  Zr  Zr6       1.0  0.888109833647377  0.11426399692031453  0.6090542128914862  1.0000
  H   H1        1.0  0.07724870031809421  0.7560539738490846  0.576110767315605  1.0000
  H   H2        1.0  0.08995968650194187  0.08316133796034816  0.2498087606927086  1.0000
  H   H3        1.0  0.0800646082729344  0.0869303055558389  0.5901342741272372  1.0000
  H   H4        1.0  0.7422217716682411  0.09602224304884996  0.581027518670581  1.0000
  H   H5        1.0  0.12256186200999507  0.6152525103188751  0.36117877159095  1.0000
  H   H6        1.0  0.6108357657542027  0.1263964385560925  0.9038146656459748  1.0000
  H   H7        1.0  0.8671676714838766  0.12927343500394536  0.11803486310508055  1.0000
  H   H8        1.0  0.6215806068933603  0.3978101389982599  0.36593097604993124  1.0000
  H   H9        1.0  0.8356185339635684  0.6755924401371516  0.8636403221711577  1.0000
  H   H10       1.0  0.12041511685274735  0.3734426583454038  0.17187800404725107  1.0000
  H   H11       1.0  0.6158580249080429  0.8797309886629776  0.6144229095280098  1.0000
  H   H12       1.0  0.24826484303874705  0.49348318084402365  0.9678944699456766  1.0000
  H   H13       1.0  0.1455412183845011  0.5987387126442342  0.9949039160850719  1.0000
  H   H14       1.0  0.18186475761790877  0.4960412652774978  0.09076298802342109  1.0000
  H   H15       1.0  0.2221180524461984  0.5308816293891001  0.8431200907250513  1.0000
  H   H16       1.0  0.17950726869712944  0.6216976761985435  0.7461743877331911  1.0000
  H   H17       1.0  0.1736669937811968  0.6575574497250328  0.833649791397832  1.0000
  H   H18       1.0  0.794056514438381  0.4699079912750789  0.9835081897402632  1.0000
  H   H19       1.0  0.7613832487603318  0.49943675984899727  0.08843480730178041  1.0000
  H   H20       1.0  0.7332898421982602  0.5933631788179383  0.9843870675853383  1.0000
  H   H21       1.0  0.9086153391349541  0.34651214281976184  0.021566752744455263  1.0000
  H   H22       1.0  0.9553119517962401  0.2509308231989636  0.11446320806371824  1.0000
  H   H23       1.0  0.8367225986380831  0.33843407805246545  0.14767039362559606  1.0000
  C   C1        1.0  0.9922131011219049  0.7427114722942534  0.48410711448358523  1.0000
  C   C2        1.0  0.280041999563714  0.9901331265735183  0.23673320718176438  1.0000
  C   C3        1.0  0.9924583161882341  0.277860224326858  0.5040366988367565  1.0000
  C   C4        1.0  0.7250551980629253  0.008187338679029214  0.7721925982747492  1.0000
  C   C5        1.0  0.9859541980125001  0.7402044036152945  0.7623075700357093  1.0000
  C   C6        1.0  0.7287985543099679  0.007673924401117763  0.4896096478885141  1.0000
  C   C7        1.0  0.009889126274018176  0.26959012646280195  0.2342686521338777  1.0000
  C   C8        1.0  0.2733468260505842  0.9968030597744432  0.5001984849157568  1.0000
  C   C9        1.0  0.2724125598605977  0.7353314173513611  0.4951582811271606  1.0000
  C   C10       1.0  0.9882550152718466  0.0007175578561628179  0.7785168118827529  1.0000
  C   C11       1.0  0.7312165285043263  0.2841777272921178  0.4963952756481974  1.0000
  C   C12       1.0  0.9968732015960738  0.0012953803493191383  0.2290359183684673  1.0000
  C   C13       1.0  0.9201170659413265  0.4308189682452905  0.5589954507591629  1.0000
  C   C14       1.0  0.057772965301154305  0.5977162042822287  0.421653756456891  1.0000
  C   C15       1.0  0.9887915460385273  0.37082269460425005  0.49886728120129226  1.0000
  C   C16       1.0  0.9894446180749482  0.6548249631085953  0.48415490204800454  1.0000
  C   C17       1.0  0.031567235603276345  0.516293973114962  0.44894863113044187  1.0000
  C   C18       1.0  0.9433348992397227  0.5139841944024112  0.5317492677571922  1.0000
  C   C19       1.0  0.42479257420774263  0.9257563349545208  0.09237294302183598  1.0000
  C   C20       1.0  0.5907525001151654  0.06408110018864463  0.9233204547738012  1.0000
  C   C21       1.0  0.37103913689769275  0.9885688396224525  0.14989080215641346  1.0000
  C   C22       1.0  0.6411362802266041  0.001986216132614357  0.8658903820353246  1.0000
  C   C23       1.0  0.5121744840457011  0.035366435422645406  0.0065091951509757195  1.0000
  C   C24       1.0  0.5053163729017526  0.9514230840497363  0.01022943852506585  1.0000
  C   C25       1.0  0.05069890545167492  0.9301778424646159  0.9212300506819632  1.0000
  C   C26       1.0  0.9265477711319291  0.06578797461445873  0.09470118937611022  1.0000
  C   C27       1.0  0.986590252661216  0.9979127443467776  0.8694671735908843  1.0000
  C   C28       1.0  0.993234385942749  0.9982977267127068  0.14320024282921662  1.0000
  C   C29       1.0  0.9476445911316418  0.040362259255772436  0.013835689675403343  1.0000
  C   C30       1.0  0.029929162531821915  0.9533169057367274  0.0032817370217160325  1.0000
  C   C31       1.0  0.4155997286081713  0.6016484992954291  0.5580372862054902  1.0000
  C   C32       1.0  0.5965630663086042  0.42373144504728083  0.42699070367859093  1.0000
  C   C33       1.0  0.36459308607373925  0.6500428226438971  0.4929929469333418  1.0000
  C   C34       1.0  0.6444288999342832  0.37558118258007755  0.4942800927205866  1.0000
  C   C35       1.0  0.5133815668265596  0.5066407909041291  0.4502677785203489  1.0000
  C   C36       1.0  0.5002814076005959  0.5197245565920383  0.5350607688810599  1.0000
  C   C37       1.0  0.06221195311329802  0.5916911196450058  0.8832744000785128  1.0000
  C   C38       1.0  0.8965977422285004  0.6252289743932737  0.8915584639591431  1.0000
  C   C39       1.0  0.8873668056342792  0.540443740208495  0.9663070806848355  1.0000
  C   C40       1.0  0.9651971926925497  0.48023263039786473  0.007775097684643333  1.0000
  C   C41       1.0  0.962970980664224  0.38931062899387575  0.08446414608791748  1.0000
  C   C42       1.0  0.08322062166301682  0.4003571828767463  0.12061979274457002  1.0000
  C   C43       1.0  0.10251190505211119  0.4752402591743774  0.0359135694444461  1.0000
  C   C44       1.0  0.045253867628112246  0.5151666346786  0.974314576308025  1.0000
  C   C45       1.0  0.984052813241881  0.64957338107326  0.8466672997211051  1.0000
  C   C46       1.0  0.01809338543939283  0.3540401492458614  0.14365537406941806  1.0000
  C   C47       1.0  0.41815528950819203  0.05906582647924806  0.4285527764261233  1.0000
  C   C48       1.0  0.5928398530027789  0.937773022562581  0.5538303327772454  1.0000
  C   C49       1.0  0.3652932451501482  0.9952397077236697  0.49552249197051196  1.0000
  C   C50       1.0  0.6424624903139741  0.003986235600521496  0.48753160156260833  1.0000
  C   C51       1.0  0.5112771888270583  0.9577926842954838  0.5315552134985141  1.0000
  C   C52       1.0  0.5013447036118208  0.03895949295385032  0.44808411787442287  1.0000
  C   C53       1.0  0.1732146109615441  0.5184190678739  0.020791104236991508  1.0000
  C   C54       1.0  0.16457172821804253  0.600982111874636  0.8244788609559067  1.0000
  C   C55       1.0  0.7894531649592336  0.5241195693423962  0.00805731704818404  1.0000
  C   C56       1.0  0.9123758495546782  0.3289842851387377  0.09252390534967975  1.0000
  S   S1        1.0  0.08352375908163621  0.4171849099955054  0.40638453321371065  1.0000
  S   S2        1.0  0.8926519752921324  0.611306192126655  0.5759650372752604  1.0000
  S   S3        1.0  0.4203885639451528  0.08047524980430157  0.10358524236910681  1.0000
  S   S4        1.0  0.5949480279972617  0.907773624333494  0.9122217143790226  1.0000
  S   S5        1.0  0.8979481252967078  0.09156562525313915  0.9230785009146772  1.0000
  S   S6        1.0  0.0814349996507814  0.9030772707085291  0.09201731204692733  1.0000
  S   S7        1.0  0.42217296037020446  0.5949127973137041  0.4007540587811249  1.0000
  S   S8        1.0  0.5898314359536341  0.43071511100617255  0.5858451773463714  1.0000
  S   S9        1.0  0.4190162533828143  0.9079138052088426  0.5836958042563652  1.0000
  S   S10       1.0  0.5916522040485217  0.09047973338509507  0.3971815955459947  1.0000
  O   O1        1.0  0.9211756604858222  0.7806941984997239  0.5521265171322441  1.0000
  O   O2        1.0  0.24490868492281942  0.05927825458257974  0.2733311241129713  1.0000
  O   O3        1.0  0.06552170727539423  0.23902917398199008  0.43718216814228583  1.0000
  O   O4        1.0  0.7577518637927981  0.9422185390369364  0.7323029542904893  1.0000
  O   O5        1.0  0.05272342934002695  0.7765686223340325  0.7320448174073563  1.0000
  O   O6        1.0  0.7636262888930361  0.07593189444717299  0.42363977623201526  1.0000
  O   O7        1.0  0.936892489577765  0.23935275421653293  0.2705560803823772  1.0000
  O   O8        1.0  0.23667095195860072  0.9307340137807003  0.5689563379939174  1.0000
  O   O9        1.0  0.23915796087749172  0.766457829913584  0.42671062771124474  1.0000
  O   O10       1.0  0.9209042959156405  0.07207993556963987  0.7442135902018594  1.0000
  O   O11       1.0  0.7619449519254573  0.24902046591030577  0.5674875196684185  1.0000
  O   O12       1.0  0.06638467878742171  0.9326252306153578  0.2614250482209783  1.0000
  O   O13       1.0  0.05797217301494565  0.9326000462361534  0.7403021666314444  1.0000
  O   O14       1.0  0.7671430421975172  0.2469835587957688  0.42758878943424616  1.0000
  O   O15       1.0  0.930748633331426  0.07355303933469774  0.262733949187883  1.0000
  O   O16       1.0  0.23214000691386621  0.7703988166740671  0.5665047631839782  1.0000
  O   O17       1.0  0.9179725439415235  0.778020477417279  0.7253642890052561  1.0000
  O   O18       1.0  0.23671181508403547  0.06611072080450241  0.43512664339236556  1.0000
  O   O19       1.0  0.07686437463281953  0.23261744413164104  0.2721060891884833  1.0000
  O   O20       1.0  0.760446040545169  0.9421498505104396  0.5592095789085578  1.0000
  O   O21       1.0  0.7571477890281384  0.07863124365757544  0.7380714035693432  1.0000
  O   O22       1.0  0.06531083979042773  0.7723471412420507  0.41857646520146113  1.0000
  O   O23       1.0  0.24218338105850273  0.9247657159985889  0.26737924193103174  1.0000
  O   O24       1.0  0.9246071915695707  0.24276473075626384  0.5741987977752316  1.0000
  O   O25       1.0  0.8146647846213568  0.07094888364969164  0.5574667789544351  1.0000
  O   O26       1.0  0.0562038099741784  0.06345940817352867  0.5650209347874339  1.0000
  O   O27       1.0  0.06347777387057357  0.06042117247402961  0.32075061716354714  1.0000
  O   O28       1.0  0.054897220781711574  0.8270189989276558  0.5535359092855715  1.0000
  O   O29       1.0  0.13155136013757118  0.9573859475611358  0.4568539154582467  1.0000
  O   O30       1.0  0.9535847774420315  0.9633420411275039  0.45060066521464404  1.0000
  O   O31       1.0  0.9549307454687224  0.1369222513145444  0.4588658054593396  1.0000
  O   O32       1.0  0.9488831085779519  0.9645805580959677  0.6305843180313602  1.0000
  F   F1        1.0  0.8395172379180523  0.4127899091235108  0.6361912206116146  1.0000
  F   F2        1.0  0.40312666028261657  0.8485692984676447  0.11078359613155456  1.0000
  F   F3        1.0  0.12623013749556092  0.8501249802538878  0.8970980725092303  1.0000
  F   F4        1.0  0.38834600457873575  0.6279892410750278  0.6362575761094648  1.0000
  F   F5        1.0  0.3939533251857199  0.13363940934290497  0.35259143164681467  1.0000
