data_image0
_chemical_formula_structural       Mn3H22C24N28
_chemical_formula_sum              "Mn3 H22 C24 N28"
_cell_length_a       10.02476913102252
_cell_length_b       10.025119538045232
_cell_length_c       11.19538998238372
_cell_angle_alpha    100.33745570750071
_cell_angle_beta     109.0692079181092
_cell_angle_gamma    115.76953797911892

_space_group_name_H-M_alt    "P 1"
_space_group_IT_number       1

loop_
  _space_group_symop_operation_xyz
  'x, y, z'

loop_
  _atom_site_type_symbol
  _atom_site_label
  _atom_site_symmetry_multiplicity
  _atom_site_fract_x
  _atom_site_fract_y
  _atom_site_fract_z
  _atom_site_occupancy
  Mn  Mn1       1.0  0.909984129837369  0.21410369290327938  0.4746591600321323  1.0000
  Mn  Mn2       1.0  0.7393890182394713  0.43529012632107106  0.5252674766790548  1.0000
  Mn  Mn3       1.0  0.3607978530282239  0.8608306313929218  0.5000908015038164  1.0000
  H   H1        1.0  0.5581875512171591  0.7261969291642814  0.5044795848379877  1.0000
  H   H2        1.0  0.2216916643729476  0.0537098671385934  0.4956003656141164  1.0000
  H   H3        1.0  0.7303938966076089  0.7327880152684542  0.6191342605687709  1.0000
  H   H4        1.0  0.11358693819960308  0.1111058563986944  0.3808189451907609  1.0000
  H   H5        1.0  0.2855738149848221  0.3544333821413658  0.7004980081915733  1.0000
  H   H6        1.0  0.6537128658812108  0.5847687826575905  0.29927979796002546  1.0000
  H   H7        1.0  0.4320360320887247  0.2978124595000367  0.8930079993691038  1.0000
  H   H8        1.0  0.4045424824009984  0.5388607581078801  0.10690439861951967  1.0000
  H   H9        1.0  0.26529765938406774  0.0580565168137213  0.9370399298966631  1.0000
  H   H10       1.0  0.12075657376573186  0.32815589634317627  0.06298646866216728  1.0000
  H   H11       1.0  0.9567001625989278  0.8822517200596423  0.7838880230196992  1.0000
  H   H12       1.0  0.0981805172677213  0.1725993069795706  0.2160419176250485  1.0000
  H   H13       1.0  0.5743300918481534  0.9467754302987783  0.23852112772649992  1.0000
  H   H14       1.0  0.7085300874488637  0.33593403640764313  0.7614376438459232  1.0000
  H   H15       1.0  0.32690929551400677  0.8438652676985471  0.022292475732555793  1.0000
  H   H16       1.0  0.8216433004235526  0.3048020053998428  0.9778440836844807  1.0000
  H   H17       1.0  0.01753161783049943  0.7249081551288155  0.893814781580538  1.0000
  H   H18       1.0  0.8311208824826862  0.12395573992730383  0.1063585518570989  1.0000
  H   H19       1.0  0.849514797430352  0.6715144289184279  0.024187810309641088  1.0000
  H   H20       1.0  0.6475626742906399  0.825546352537266  0.9759502821389104  1.0000
  H   H21       1.0  0.9937905866336434  0.7336184005153255  0.2720346653259751  1.0000
  H   H22       1.0  0.46179508926082485  0.7219803241923016  0.7281153655892254  1.0000
  C   C1        1.0  0.21691827296881877  0.250782325839495  0.721949815596659  1.0000
  C   C2        1.0  0.5286191796122279  0.49468814841105746  0.27785966466802847  1.0000
  C   C3        1.0  0.29812468959432437  0.21840427316938357  0.8294429772721514  1.0000
  C   C4        1.0  0.388719221292355  0.468466962236377  0.17043660391975377  1.0000
  C   C5        1.0  0.20447340780376067  0.08457003051547218  0.8527104369092697  1.0000
  C   C6        1.0  0.23163550696123272  0.35158753692281397  0.1472308784281182  1.0000
  C   C7        1.0  0.0331728049523858  0.9875271811232759  0.7679031517432761  1.0000
  C   C8        1.0  0.21943953461141763  0.2650231779772767  0.23198692177803787  1.0000
  C   C9        1.0  0.9613361448395776  0.027065561218080295  0.6613058846869819  1.0000
  C   C10       1.0  0.3656062529716593  0.2997552402404934  0.3385393574177158  1.0000
  C   C11       1.0  0.7805997233117593  0.9325562847191406  0.5673298474595254  1.0000
  C   C12       1.0  0.3651549320223139  0.213096807294221  0.4325978152527199  1.0000
  C   C13       1.0  0.49577770244629693  0.9101845300211193  0.2891810542776341  1.0000
  C   C14       1.0  0.6212567464935502  0.20672597747439878  0.7108388811437436  1.0000
  C   C15       1.0  0.31954563602193525  0.8467650409224562  0.21293860999728753  1.0000
  C   C16       1.0  0.6340745494100091  0.10679354791693638  0.7871463179701124  1.0000
  C   C17       1.0  0.24826575587846372  0.8174306970661502  0.07345865459927833  1.0000
  C   C18       1.0  0.7440905753349654  0.17500947911849346  0.926663486858395  1.0000
  C   C19       1.0  0.0777578613193554  0.7528904630735267  0.0030951568172809542  1.0000
  C   C20       1.0  0.7498858282447217  0.07487909814651059  0.9970567290422495  1.0000
  C   C21       1.0  0.9831862971679255  0.7211921689243183  0.07407166811560008  1.0000
  C   C22       1.0  0.64734481750844  0.9093386653833446  0.9260764363284082  1.0000
  C   C23       1.0  0.06360867851088149  0.7551032286912899  0.21332014741282987  1.0000
  C   C24       1.0  0.5420213353358818  0.8505054222521266  0.7868221199849758  1.0000
  N   N1        1.0  0.0527241005113552  0.1570117342453514  0.6389177912718438  1.0000
  N   N2        1.0  0.5179177331048946  0.41352673035692783  0.3608897519702694  1.0000
  N   N3        1.0  0.7253888013212871  0.9989267350761465  0.48702332087108846  1.0000
  N   N4        1.0  0.5118831750568376  0.23830666946438575  0.5129528152489726  1.0000
  N   N5        1.0  0.5565817053753294  0.9214910262188171  0.41501331299986793  1.0000
  N   N6        1.0  0.5065610328211106  0.14162226891032495  0.5850537018425044  1.0000
  N   N7        1.0  0.2274548537826177  0.8163729540090116  0.2819122774415277  1.0000
  N   N8        1.0  0.5347165441049596  0.9457336959551907  0.7182018244910324  1.0000
  N   N9        1.0  0.6837313111849852  0.7896325754324707  0.5662142323710384  1.0000
  N   N10       1.0  0.22335892234349333  0.11737236878902019  0.4337517896223204  1.0000
  N   N11       1.0  0.7418015359672127  0.27509550920889586  0.3604516191756062  1.0000
  N   N12       1.0  0.9146656610999954  0.38136896742216925  0.6394929470408856  1.0000
  N   N13       1.0  0.6543054563227669  0.23378987349360605  0.24033618934194578  1.0000
  N   N14       1.0  0.993488410602623  0.41403118605657585  0.7596133700530031  1.0000
  N   N15       1.0  0.5676270713778351  0.19438497497616677  0.1250815871168527  1.0000
  N   N16       1.0  0.06933887117008194  0.442653821692616  0.874883103450685  1.0000
  N   N17       1.0  0.896553248244814  0.06197919464570841  0.3040281399443002  1.0000
  N   N18       1.0  0.757929702329939  0.5925017404793351  0.6958990728878192  1.0000
  N   N19       1.0  0.8128760390492927  0.9178414443080029  0.2515884688766261  1.0000
  N   N20       1.0  0.666262922583222  0.5613386515217726  0.7483684824043735  1.0000
  N   N21       1.0  0.7311654118784502  0.7782662801242564  0.19870240704167935  1.0000
  N   N22       1.0  0.5796031671305852  0.5325970552162784  0.8012903952497652  1.0000
  N   N23       1.0  0.30616805901235006  0.6233739507833106  0.4582860281278158  1.0000
  N   N24       1.0  0.16512300719734438  0.8479068642665197  0.5419232349618427  1.0000
  N   N25       1.0  0.22263750771373464  0.5127933093866728  0.4802714196452341  1.0000
  N   N26       1.0  0.03248408141323711  0.7423523248530869  0.5197698010738065  1.0000
  N   N27       1.0  0.14446153795225308  0.4021075146535651  0.5026852841998349  1.0000
  N   N28       1.0  0.8993129746513375  0.6417224342137757  0.49718609125215363  1.0000
