data_image0
_chemical_formula_structural       Mn4H24C24N8O24
_chemical_formula_sum              "Mn4 H24 C24 N8 O24"
_cell_length_a       6.867681571793301
_cell_length_b       10.85230324789194
_cell_length_c       11.378719709164054
_cell_angle_alpha    103.7129970193711
_cell_angle_beta     107.50056748616578
_cell_angle_gamma    90.03625297939082

_space_group_name_H-M_alt    "P 1"
_space_group_IT_number       1

loop_
  _space_group_symop_operation_xyz
  'x, y, z'

loop_
  _atom_site_type_symbol
  _atom_site_label
  _atom_site_symmetry_multiplicity
  _atom_site_fract_x
  _atom_site_fract_y
  _atom_site_fract_z
  _atom_site_occupancy
  Mn  Mn1       1.0  0.5251610431643954  0.2733547288956401  0.7403553928594347  1.0000
  Mn  Mn2       1.0  0.7852563825206572  0.22647465396923383  0.2595395428082981  1.0000
  Mn  Mn3       1.0  0.4748358439399354  0.7266485909773548  0.2596492213747297  1.0000
  Mn  Mn4       1.0  0.21474780141567604  0.773525801424803  0.7404622551607715  1.0000
  H   H1        1.0  0.15077193861858965  0.33880084599982746  0.6604067148666957  1.0000
  H   H2        1.0  0.49028853251227383  0.16132509063027808  0.33959946309690275  1.0000
  H   H3        1.0  0.8492208479879364  0.6612062459174125  0.33959271206788333  1.0000
  H   H4        1.0  0.5097081458611256  0.8386762840682778  0.6603967728016826  1.0000
  H   H5        1.0  0.21500942712099655  0.3911877290500883  0.8169122685400794  1.0000
  H   H6        1.0  0.3981696397931031  0.1091653782279636  0.18306382301655333  1.0000
  H   H7        1.0  0.7849847676636371  0.6088184179204106  0.1830880853552372  1.0000
  H   H8        1.0  0.6018311521921331  0.8908322008375434  0.8169332031248402  1.0000
  H   H9        1.0  0.4553416189918237  0.056490210469654314  0.7932417788727194  1.0000
  H   H10       1.0  0.6620558198924086  0.4432057094823421  0.20688970836836518  1.0000
  H   H11       1.0  0.5446530572489364  0.9435073759779439  0.2067567680383887  1.0000
  H   H12       1.0  0.33795011810352793  0.5567966597546032  0.7931145914228992  1.0000
  H   H13       1.0  0.5710061334749952  0.13397679423495387  0.9331208730459436  1.0000
  H   H14       1.0  0.6376913614363602  0.36586387445480995  0.06685896130889551  1.0000
  H   H15       1.0  0.42898395136749184  0.866020806005295  0.06688035341232981  1.0000
  H   H16       1.0  0.3623178602109931  0.6341404056000784  0.9331472402592951  1.0000
  H   H17       1.0  0.3492699304833522  0.9262473128673392  0.47124564519564416  1.0000
  H   H18       1.0  0.8780997861189732  0.5737476473902775  0.5285536361231422  1.0000
  H   H19       1.0  0.6507397873100728  0.0737607160036404  0.5287509307030973  1.0000
  H   H20       1.0  0.12191016768034757  0.4262499418320047  0.4714450662147557  1.0000
  H   H21       1.0  0.04300196429644388  0.7870850703112209  0.08653811148383982  1.0000
  H   H22       1.0  0.9552880813112239  0.7130830260888955  0.9132362949109661  1.0000
  H   H23       1.0  0.956981183756447  0.21290589196331663  0.913465651261319  1.0000
  H   H24       1.0  0.0447232701749769  0.28691363705767975  0.0867668520330938  1.0000
  C   C1        1.0  0.15757479793777654  0.14565826448238536  0.5102800398525957  1.0000
  C   C2        1.0  0.6477346401182158  0.354076493283614  0.48978176357105235  1.0000
  C   C3        1.0  0.8424238799454498  0.8543469031848829  0.48971476444480533  1.0000
  C   C4        1.0  0.3522632088514754  0.6459220431891168  0.5102166944775774  1.0000
  C   C5        1.0  0.12073574971753227  0.04445959275476239  0.3881036146893281  1.0000
  C   C6        1.0  0.733057917066233  0.45526189968965963  0.6118794186469145  1.0000
  C   C7        1.0  0.8792671474544064  0.9555427495077919  0.6118957293129978  1.0000
  C   C8        1.0  0.2669443966424012  0.5447356905041617  0.3881196456832683  1.0000
  C   C9        1.0  0.23494136650604247  0.937947693522787  0.38574576764538887  1.0000
  C   C10       1.0  0.8492518104675283  0.561942877372445  0.6141016513161262  1.0000
  C   C11       1.0  0.7650585955187736  0.0620555919937189  0.6142523700301084  1.0000
  C   C12       1.0  0.15075507365692428  0.438054736770802  0.38590176875772636  1.0000
  C   C13       1.0  0.06734506485308596  0.8620172541114781  0.1728736637519645  1.0000
  C   C14       1.0  0.8940174832785672  0.6379832371509339  0.8269944969132937  1.0000
  C   C15       1.0  0.9326433820979005  0.1379793836431631  0.8271252927008207  1.0000
  C   C16       1.0  0.10599997870649958  0.36201342804906733  0.1730088880837499  1.0000
  C   C17       1.0  0.9563828657338291  0.969766725406437  0.1737282725211173  1.0000
  C   C18       1.0  0.7824186705822954  0.5301004215373196  0.8262641844254687  1.0000
  C   C19       1.0  0.0436099219195825  0.03022802886526679  0.8262736966305794  1.0000
  C   C20       1.0  0.21759292110852607  0.46989813017057697  0.17373678791792455  1.0000
  C   C21       1.0  0.810844216044181  0.9927783285363674  0.053427434796013425  1.0000
  C   C22       1.0  0.7569649744422334  0.5070009151031556  0.9466257602433217  1.0000
  C   C23       1.0  0.18915821120974388  0.007220217732516699  0.9465727407622282  1.0000
  C   C24       1.0  0.24304214201841748  0.49299860175468513  0.05337812346392916  1.0000
  N   N1        1.0  0.9818894287241519  0.06014274664223511  0.2818003224710283  1.0000
  N   N2        1.0  0.7003344587913386  0.43954485198160137  0.7182814847281237  1.0000
  N   N3        1.0  0.018108531168024883  0.9398567506233204  0.7182001262170061  1.0000
  N   N4        1.0  0.299670787441606  0.5604517996760306  0.28171966534023335  1.0000
  N   N5        1.0  0.20820852578221855  0.84656542919118  0.2783801454681266  1.0000
  N   N6        1.0  0.92951722774265  0.6534296212356522  0.7214334932379102  1.0000
  N   N7        1.0  0.7917863854175379  0.153434055253264  0.7216179856650343  1.0000
  N   N8        1.0  0.0704942399116533  0.3465679932682236  0.2785698855228418  1.0000
  O   O1        1.0  0.03913672991753708  0.23478136804089897  0.5123822206054597  1.0000
  O   O2        1.0  0.5269140250723792  0.2650233332386022  0.48778725999623157  1.0000
  O   O3        1.0  0.9608573696814486  0.7652237898302233  0.4876108661823295  1.0000
  O   O4        1.0  0.4730797024170528  0.7349790130204567  0.512213046043648  1.0000
  O   O5        1.0  0.3091551423569143  0.13143814111699467  0.6021435229719145  1.0000
  O   O6        1.0  0.7076582070081512  0.3681681317309823  0.39782741456926374  1.0000
  O   O7        1.0  0.6908330659653785  0.868568941004092  0.3978541864530598  1.0000
  O   O8        1.0  0.29233728240929924  0.6318361142177124  0.6021727550587457  1.0000
  O   O9        1.0  0.7319608320373093  0.10057191907429797  0.06592998171053918  1.0000
  O   O10       1.0  0.6647884383325999  0.39939816575197545  0.9340621075984643  1.0000
  O   O11       1.0  0.26803056317483254  0.8994237518375956  0.9340657840122972  1.0000
  O   O12       1.0  0.3352150485951383  0.6005965814982659  0.06593829947041029  1.0000
  O   O13       1.0  0.783471149519208  0.9081565573109244  0.9520495988877116  1.0000
  O   O14       1.0  0.8316855164346322  0.5913650050465337  0.048083994348793554  1.0000
  O   O15       1.0  0.2165219945069197  0.09184103687940139  0.0479504274800178  1.0000
  O   O16       1.0  0.16832125939014014  0.4086316435861404  0.9519165556742948  1.0000
  O   O17       1.0  0.2581405344971158  0.3882832822208755  0.7388577667933446  1.0000
  O   O18       1.0  0.5191477467441672  0.11181751462116551  0.2610288732299111  1.0000
  O   O19       1.0  0.7418521306956974  0.6117228677745813  0.2611431871472405  1.0000
  O   O20       1.0  0.4808563262696807  0.8881819799800468  0.7389709340997541  1.0000
  O   O21       1.0  0.4755893044975821  0.14311711993919826  0.8502697276818196  1.0000
  O   O22       1.0  0.6255620189132429  0.35658041818130914  0.14983969473754397  1.0000
  O   O23       1.0  0.5244024313504383  0.8568814191978688  0.14972937172517214  1.0000
  O   O24       1.0  0.37444556484260966  0.6434228993879714  0.850164236825151  1.0000
