data_image0
_chemical_formula_structural       Ag4H32C20S8N12
_chemical_formula_sum              "Ag4 H32 C20 S8 N12"
_cell_length_a       6.575567816842253
_cell_length_b       12.118474415475275
_cell_length_c       12.118463637963465
_cell_angle_alpha    69.38216209159785
_cell_angle_beta     77.11024186556548
_cell_angle_gamma    77.11027995679255

_space_group_name_H-M_alt    "P 1"
_space_group_IT_number       1

loop_
  _space_group_symop_operation_xyz
  'x, y, z'

loop_
  _atom_site_type_symbol
  _atom_site_label
  _atom_site_symmetry_multiplicity
  _atom_site_fract_x
  _atom_site_fract_y
  _atom_site_fract_z
  _atom_site_occupancy
  Ag  Ag1       1.0  0.8470183712047756  0.8847036165057601  0.888679812317122  1.0000
  Ag  Ag2       1.0  0.6529827730283058  0.11132117354753748  0.11529618842734382  1.0000
  Ag  Ag3       1.0  0.15298304137261448  0.1152974114302907  0.1113201997685209  1.0000
  Ag  Ag4       1.0  0.3470103196082803  0.8886816076704916  0.8847025702788686  1.0000
  H   H1        1.0  0.5439627864183547  0.12449912945161401  0.7453151491913771  1.0000
  H   H2        1.0  0.9560377056368095  0.25468563171079245  0.8755008843403685  1.0000
  H   H3        1.0  0.45603757294960456  0.8755001112015037  0.254685648248156  1.0000
  H   H4        1.0  0.04396109412646612  0.7453136073500133  0.12450010837652324  1.0000
  H   H5        1.0  0.7821355946536812  0.9797224719996435  0.4803132802545564  1.0000
  H   H6        1.0  0.7178630424489184  0.5196881601957201  0.02027774693102917  1.0000
  H   H7        1.0  0.21786633208001396  0.0202767824693382  0.5196881417524537  1.0000
  H   H8        1.0  0.28213393675099496  0.4803119578945358  0.9797223261801163  1.0000
  H   H9        1.0  0.9001771592438031  0.19416252591892666  0.39528660245883884  1.0000
  H   H10       1.0  0.5998277696385514  0.6047149694540862  0.8058359153231008  1.0000
  H   H11       1.0  0.09982633485562793  0.8058367423659263  0.6047154441156479  1.0000
  H   H12       1.0  0.4001720678120647  0.3952860324425345  0.19416265235023641  1.0000
  H   H13       1.0  0.7096815434667858  0.1636621838198522  0.3301747972738768  1.0000
  H   H14       1.0  0.7903201936142279  0.6698268686951748  0.8363370476831093  1.0000
  H   H15       1.0  0.2903206364645428  0.8363361778038153  0.6698269197714026  1.0000
  H   H16       1.0  0.20968015023165515  0.33017234751081054  0.1636621100667668  1.0000
  H   H17       1.0  0.41556232881716665  0.25057763824163704  0.4501367136889486  1.0000
  H   H18       1.0  0.08443986296860116  0.5498623003217986  0.749423348978091  1.0000
  H   H19       1.0  0.5844382837484332  0.7494207095661591  0.5498643787888613  1.0000
  H   H20       1.0  0.9155607418359535  0.45013603526243157  0.25057692365488293  1.0000
  H   H21       1.0  0.5952275621727806  0.35558341502098045  0.38673339432696013  1.0000
  H   H22       1.0  0.9047783901264662  0.6132665570054666  0.6444166725943107  1.0000
  H   H23       1.0  0.40477435679987644  0.6444158272244351  0.6132672078352215  1.0000
  H   H24       1.0  0.09522221467808835  0.38673177857876334  0.3555836000386705  1.0000
  H   H25       1.0  0.7369032115631171  0.29158567477141156  0.5753670849111572  1.0000
  H   H26       1.0  0.7630976429009592  0.42463481456363894  0.7084131073608332  1.0000
  H   H27       1.0  0.2630958491588231  0.7084126836676462  0.4246350226888324  1.0000
  H   H28       1.0  0.2369011491012714  0.5753644122736078  0.29158706551123  1.0000
  H   H29       1.0  0.4559990524209637  0.3174061845064601  0.6120357313814466  1.0000
  H   H30       1.0  0.0440035440267579  0.3879648049378446  0.6825939166295568  1.0000
  H   H31       1.0  0.5440015601446289  0.6825921633013435  0.387965361096356  1.0000
  H   H32       1.0  0.9559970762998798  0.612033555093511  0.31740799569307404  1.0000
  C   C1        1.0  0.0820101684370016  0.11137118311006587  0.6957298484214361  1.0000
  C   C2        1.0  0.4179975501537  0.30426270852674964  0.8886324971440018  1.0000
  C   C3        1.0  0.9180117443822765  0.8886395188791596  0.3042525112552994  1.0000
  C   C4        1.0  0.5819937390553065  0.6957462737142422  0.11136091691500379  1.0000
  C   C5        1.0  0.6604694730569063  0.0431152868170415  0.6191786248731361  1.0000
  C   C6        1.0  0.8395315622834262  0.38082259483702785  0.956884538897185  1.0000
  C   C7        1.0  0.3395324614378339  0.9568839798755062  0.38082361697870243  1.0000
  C   C8        1.0  0.1604654246775182  0.6191775354767941  0.043116354058788935  1.0000
  C   C9        1.0  0.7400324622798065  0.1722040104505922  0.41198817931631043  1.0000
  C   C10       1.0  0.7599700321081355  0.5880131062296031  0.8277960847129436  1.0000
  C   C11       1.0  0.2599710318196173  0.8277952578342607  0.5880138672581766  1.0000
  C   C12       1.0  0.2400285066964685  0.4119870134529575  0.17220379312084336  1.0000
  C   C13       1.0  0.5733132166431287  0.26693103888028696  0.4503104482755305  1.0000
  C   C14       1.0  0.9266895406620461  0.549689329417312  0.7330700111438162  1.0000
  C   C15       1.0  0.4266868895272039  0.7330690946181448  0.5496900541257332  1.0000
  C   C16       1.0  0.0733110719035537  0.4503090183904845  0.26693108133399324  1.0000
  C   C17       1.0  0.590558371445816  0.2612444900205872  0.5757474932965181  1.0000
  C   C18       1.0  0.9094417088111725  0.42425403441232856  0.7387557356999749  1.0000
  C   C19       1.0  0.40944199568318845  0.7387547628560892  0.4242541239878508  1.0000
  C   C20       1.0  0.09055733638869162  0.575744299579604  0.26124473221035777  1.0000
  S   S1        1.0  0.03792242262473171  0.06732698842279208  0.8431833619123594  1.0000
  S   S2        1.0  0.46207242142636307  0.156811698437437  0.9326763793039348  1.0000
  S   S3        1.0  0.9620766241888319  0.9326766431155205  0.156811041266849  1.0000
  S   S4        1.0  0.537920671210223  0.8431910827805922  0.06732237940227753  1.0000
  S   S5        1.0  0.6625391446856456  0.8984939527474862  0.7170103355065365  1.0000
  S   S6        1.0  0.8374599814865532  0.28299082183944785  0.10150578213080057  1.0000
  S   S7        1.0  0.3374612224433591  0.10150530012919029  0.2829912817778252  1.0000
  S   S8        1.0  0.1625385650790889  0.717009310066679  0.8984949155478219  1.0000
  N   N1        1.0  0.5914903378086078  0.1385441426856815  0.655848937118833  1.0000
  N   N2        1.0  0.9085106865405164  0.3441523223744554  0.8614549937118312  1.0000
  N   N3        1.0  0.40851027475699203  0.8614542051221149  0.3441521553589696  1.0000
  N   N4        1.0  0.09148630042042777  0.6558478079393595  0.1385458992441429  1.0000
  N   N5        1.0  0.7304761812626168  0.05614735510540919  0.504234813822471  1.0000
  N   N6        1.0  0.7695246885278448  0.49576692083803653  0.9438522351351608  1.0000
  N   N7        1.0  0.2695260064297499  0.9438510187418176  0.49576772306763656  1.0000
  N   N8        1.0  0.23047385027675918  0.5042331988445241  0.05614764269863311  1.0000
  N   N9        1.0  0.11303447026157437  0.1444665472259601  0.5901535096498449  1.0000
  N   N10       1.0  0.38696345048555253  0.40984360862058367  0.8555347148049393  1.0000
  N   N11       1.0  0.8869677811328174  0.8555372219561618  0.40984952126778046  1.0000
  N   N12       1.0  0.6130259450833221  0.5901555475450095  0.1444625305070986  1.0000
