data_image0
_chemical_formula_structural       Cr4Cu2H12C16N8O14
_chemical_formula_sum              "Cr4 Cu2 H12 C16 N8 O14"
_cell_length_a       8.134904738419605
_cell_length_b       8.601669521666583
_cell_length_c       9.993625995238334
_cell_angle_alpha    114.6455826273857
_cell_angle_beta     92.36325779141417
_cell_angle_gamma    90.76746777836692

_space_group_name_H-M_alt    "P 1"
_space_group_IT_number       1

loop_
  _space_group_symop_operation_xyz
  'x, y, z'

loop_
  _atom_site_type_symbol
  _atom_site_label
  _atom_site_symmetry_multiplicity
  _atom_site_fract_x
  _atom_site_fract_y
  _atom_site_fract_z
  _atom_site_occupancy
  Cr  Cr1       1.0  0.6173632971387448  0.7329598948232742  0.4986562990476386  1.0000
  Cr  Cr2       1.0  0.38265922134007707  0.26702210144900823  0.5013159584491973  1.0000
  Cr  Cr3       1.0  0.2260430835792846  0.26152100718235255  0.20415272573105633  1.0000
  Cr  Cr4       1.0  0.773976072233971  0.7384738286456597  0.7958440129695035  1.0000
  Cu  Cu1       1.0  0.05262120530726119  0.35059312400522197  0.7056353128533461  1.0000
  Cu  Cu2       1.0  0.9474015923746251  0.6494004456154984  0.2943641055885636  1.0000
  H   H1        1.0  0.6959104832004854  0.17288605348740296  0.7118845748682006  1.0000
  H   H2        1.0  0.30411372692495314  0.8271575195883827  0.2881707891214803  1.0000
  H   H3        1.0  0.5046001278994439  0.2343369518096168  0.923285784055331  1.0000
  H   H4        1.0  0.4953964620261857  0.7656873484113332  0.07674969587608156  1.0000
  H   H5        1.0  0.603288175737653  0.44910958836224785  0.17620858604599487  1.0000
  H   H6        1.0  0.39668847189565076  0.5509070131990371  0.8238294326462068  1.0000
  H   H7        1.0  0.8304149817459887  0.4106422235119069  0.4851816275520876  1.0000
  H   H8        1.0  0.16957586547152914  0.5893525703433582  0.5148170849582315  1.0000
  H   H9        1.0  0.7098416192886744  0.22195615655984116  0.23073621718337736  1.0000
  H   H10       1.0  0.29013593682178396  0.7780436707251612  0.7692378018128211  1.0000
  H   H11       1.0  0.7675155995540736  0.90387095437854  0.12878979095157211  1.0000
  H   H12       1.0  0.23245996739715483  0.09610456164513441  0.8711784702721845  1.0000
  C   C1        1.0  0.7292025763679747  0.26522344839705175  0.8240472988499334  1.0000
  C   C2        1.0  0.27082473035715543  0.7347996278474866  0.1759898435977121  1.0000
  C   C3        1.0  0.6252435828046288  0.2975758755741752  0.9399565630596314  1.0000
  C   C4        1.0  0.374759893403926  0.7024304794663152  0.060055739021919394  1.0000
  C   C5        1.0  0.6784469280567932  0.41518800972761477  0.08054285101561479  1.0000
  C   C6        1.0  0.32152834466803876  0.5848221523394984  0.9194768067905913  1.0000
  C   C7        1.0  0.9192418472213149  0.45709669516295304  0.986763536603995  1.0000
  C   C8        1.0  0.0807652281532754  0.5429084248115431  0.013264463182977743  1.0000
  C   C9        1.0  0.8454709240885377  0.27291846868096303  0.43532410686901113  1.0000
  C   C10       1.0  0.15451498846949355  0.7270763262068128  0.5646784319798783  1.0000
  C   C11       1.0  0.7808378753686185  0.1680795040563368  0.2944729993979536  1.0000
  C   C12       1.0  0.21914976028413236  0.8319293277140077  0.7055166061289456  1.0000
  C   C13       1.0  0.810564214014242  0.9944658196890759  0.23967928633729946  1.0000
  C   C14       1.0  0.1894217773793514  0.0055289177070819  0.7602992193471394  1.0000
  C   C15       1.0  0.952957980702898  0.03617847674137661  0.4553650547813888  1.0000
  C   C16       1.0  0.04702522145390729  0.9638073360671272  0.5446261718474547  1.0000
  N   N1        1.0  0.8753601995659323  0.3490537606451554  0.8488251648590293  1.0000
  N   N2        1.0  0.12466424894336821  0.6509565156620382  0.15120830141774633  1.0000
  N   N3        1.0  0.8283809669681119  0.49217986250568674  0.10313497584698447  1.0000
  N   N4        1.0  0.17160046422662845  0.5078303054572473  0.8968829031815632  1.0000
  N   N5        1.0  0.931963037810611  0.2062586685182168  0.5148226519109258  1.0000
  N   N6        1.0  0.0680077718563155  0.7937258790431797  0.4851826886777816  1.0000
  N   N7        1.0  0.894849865189073  0.9291277138984595  0.3215875173913929  1.0000
  N   N8        1.0  0.10515112398292097  0.0708747303763246  0.678395280016389  1.0000
  O   O1        1.0  0.7651920454351  0.6110662068688697  0.3981707163881509  1.0000
  O   O2        1.0  0.234834394118181  0.3889208623380753  0.6017814802828881  1.0000
  O   O3        1.0  0.44327739826042023  0.6759749276963305  0.40628610560141715  1.0000
  O   O4        1.0  0.5567398932145124  0.32399943149682287  0.5937042489504876  1.0000
  O   O5        1.0  0.6616376129883719  0.9311325529816514  0.5391024655433014  1.0000
  O   O6        1.0  0.3383519939953388  0.0688609373710847  0.460886730937311  1.0000
  O   O7        1.0  0.6055348070173918  0.7058540886208177  0.6636282881061248  1.0000
  O   O8        1.0  0.39447800309632447  0.2941317179926272  0.3363399804912747  1.0000
  O   O9        1.0  0.2938338827119722  0.30106908988419434  0.06992685870498862  1.0000
  O   O10       1.0  0.7061736656697732  0.6989474621051811  0.9300692204977922  1.0000
  O   O11       1.0  0.0796282605492138  0.39147699035225264  0.2835938509278577  1.0000
  O   O12       1.0  0.9203697455853614  0.6085101279103425  0.716398372063317  1.0000
  O   O13       1.0  0.1585595374920175  0.06555869146834678  0.1427014063310068  1.0000
  O   O14       1.0  0.8414484135115782  0.9344296781847132  0.85727260757848  1.0000
