data_image0
_chemical_formula_structural       Zn4H120C180N16O16F24
_chemical_formula_sum              "Zn4 H120 C180 N16 O16 F24"
_cell_length_a       13.908942613024507
_cell_length_b       13.908861136341416
_cell_length_c       28.985108301984216
_cell_angle_alpha    80.1193950132062
_cell_angle_beta     80.11945584853424
_cell_angle_gamma    63.14597408940544

_space_group_name_H-M_alt    "P 1"
_space_group_IT_number       1

loop_
  _space_group_symop_operation_xyz
  'x, y, z'

loop_
  _atom_site_type_symbol
  _atom_site_label
  _atom_site_symmetry_multiplicity
  _atom_site_fract_x
  _atom_site_fract_y
  _atom_site_fract_z
  _atom_site_occupancy
  Zn  Zn1       1.0  0.09163485042428479  0.4553535902186781  0.2794718523110405  1.0000
  Zn  Zn2       1.0  0.5446459676845165  0.9083626595118163  0.22052922607169737  1.0000
  Zn  Zn3       1.0  0.908365409205359  0.5446450518261516  0.7205272891001544  1.0000
  Zn  Zn4       1.0  0.4553526694592945  0.09163814874831644  0.7794715952117246  1.0000
  H   H1        1.0  0.8385402870021748  0.6126529340787886  0.2992687422299484  1.0000
  H   H2        1.0  0.38734494037075956  0.16146223185640451  0.2007327550843528  1.0000
  H   H3        1.0  0.1614583482829488  0.3873486058614191  0.7007323634505556  1.0000
  H   H4        1.0  0.6126528896256146  0.8385381965293208  0.7992685097808805  1.0000
  H   H5        1.0  0.1418331764458429  0.31031522473987394  0.3816491964572749  1.0000
  H   H6        1.0  0.6896838128138041  0.8581608204732448  0.11835739364056512  1.0000
  H   H7        1.0  0.8581662644742991  0.6896866935623437  0.6183507758820499  1.0000
  H   H8        1.0  0.3103123863783992  0.14184176580960892  0.8816417574204042  1.0000
  H   H9        1.0  0.0982118429805112  0.21311090377838576  0.45732187794064333  1.0000
  H   H10       1.0  0.7868889421342543  0.9017775833120258  0.04268192001032391  1.0000
  H   H11       1.0  0.9017892122345044  0.786891774272633  0.5426772072350661  1.0000
  H   H12       1.0  0.2131080668202898  0.09822465192135611  0.9573168479514468  1.0000
  H   H13       1.0  0.908541684309085  0.2675776466684002  0.4926135892573244  1.0000
  H   H14       1.0  0.7324189722925425  0.09144919042777394  0.007388292877955381  1.0000
  H   H15       1.0  0.0914610057737377  0.7324206769328754  0.507386066772064  1.0000
  H   H16       1.0  0.26757884050201136  0.9085556219888317  0.9926119193322767  1.0000
  H   H17       1.0  0.7553808248897481  0.4184240591441082  0.4540730839967823  1.0000
  H   H18       1.0  0.5815761152291258  0.2446101312442793  0.04592711347552841  1.0000
  H   H19       1.0  0.2446186309635721  0.5815734728586363  0.5459269063585099  1.0000
  H   H20       1.0  0.418423333945654  0.7553903282349664  0.9540743593477364  1.0000
  H   H21       1.0  0.6542526504893544  0.6718574774510985  0.3584359048470774  1.0000
  H   H22       1.0  0.32814210459431337  0.3457476443939527  0.1415632182129869  1.0000
  H   H23       1.0  0.3457459877569349  0.3281425983727574  0.6415642871595895  1.0000
  H   H24       1.0  0.6718549062825971  0.6542553263004862  0.8584375585442674  1.0000
  H   H25       1.0  0.6501627744059704  0.5678356359738431  0.4032235482651175  1.0000
  H   H26       1.0  0.4321639278642024  0.3498382899141887  0.0967765482866696  1.0000
  H   H27       1.0  0.349837487146054  0.43216374153205084  0.596777601941554  1.0000
  H   H28       1.0  0.5678339002734845  0.6501628701516109  0.9032250009756384  1.0000
  H   H29       1.0  0.5263330293416927  0.699887398900664  0.30790234922174164  1.0000
  H   H30       1.0  0.3001127332987394  0.47366520752995467  0.19209827773479304  1.0000
  H   H31       1.0  0.473665603328527  0.30011487196342296  0.6920986959761566  1.0000
  H   H32       1.0  0.699886715119831  0.5263352511930962  0.8079028502087983  1.0000
  H   H33       1.0  0.46262831399007337  0.6318854009688765  0.2519537929207517  1.0000
  H   H34       1.0  0.36811545965231557  0.537368513063413  0.2480468906595875  1.0000
  H   H35       1.0  0.5373703223975282  0.36811540653506114  0.74804668348299  1.0000
  H   H36       1.0  0.6318847966699082  0.4626323262902332  0.75195413858188  1.0000
  H   H37       1.0  0.6994096343840395  0.3064863881310771  0.2892919628494612  1.0000
  H   H38       1.0  0.6935099278857563  0.3005893412378383  0.21070754453801752  1.0000
  H   H39       1.0  0.30058981100968646  0.693514067567179  0.7107077855754016  1.0000
  H   H40       1.0  0.30648870774562903  0.699411465509897  0.7892925869860437  1.0000
  H   H41       1.0  0.7615234921819221  0.3740527837212613  0.3458759441695564  1.0000
  H   H42       1.0  0.6259447797959083  0.2384739622952239  0.15412358589577482  1.0000
  H   H43       1.0  0.23847514833300207  0.625947294371187  0.6541252824761588  1.0000
  H   H44       1.0  0.37405222619747036  0.7615297370545024  0.8458760957398187  1.0000
  H   H45       1.0  0.3114706941342007  0.2316760115387454  0.2859847718702397  1.0000
  H   H46       1.0  0.7683228680791103  0.6885245494629546  0.21401482984853715  1.0000
  H   H47       1.0  0.6885287501570543  0.7683251765957876  0.7140156058313781  1.0000
  H   H48       1.0  0.23167900701157146  0.3114755870355451  0.7859850883148456  1.0000
  H   H49       1.0  0.14222991854784076  0.6109629154144969  0.3321196986546512  1.0000
  H   H50       1.0  0.38903718321914477  0.8577715078181214  0.16788135368158666  1.0000
  H   H51       1.0  0.8577719520692566  0.3890386836879643  0.667880443423201  1.0000
  H   H52       1.0  0.610963883621629  0.1422289812422549  0.8321196373403555  1.0000
  H   H53       1.0  0.2463881248914603  0.6655918426500521  0.3765483729442779  1.0000
  H   H54       1.0  0.33440596990419635  0.7536151907859008  0.12345098774243725  1.0000
  H   H55       1.0  0.7536153876819256  0.3344032084748251  0.6234521765553824  1.0000
  H   H56       1.0  0.6655951010638999  0.24638456886299306  0.8765507535214784  1.0000
  H   H57       1.0  0.4279667498872399  0.5355998051473562  0.3983784927367467  1.0000
  H   H58       1.0  0.4643964209410567  0.5720361302092203  0.10161931353228944  1.0000
  H   H59       1.0  0.5720335176507872  0.46439811126698066  0.6016231233148235  1.0000
  H   H60       1.0  0.5356030248626169  0.4279650594377104  0.8983817539286963  1.0000
  H   H61       1.0  0.5152458964777294  0.3464892584214708  0.3766109207589282  1.0000
  H   H62       1.0  0.6535071655554461  0.48475611527953794  0.12338694357175232  1.0000
  H   H63       1.0  0.4847551823350641  0.6535083084557841  0.6233910019528042  1.0000
  H   H64       1.0  0.3464922821069152  0.5152443426873107  0.8766138394921514  1.0000
  H   H65       1.0  0.49259783027616066  0.12280575358898467  0.30627254971415147  1.0000
  H   H66       1.0  0.8771902834863637  0.5074033069181566  0.1937261111196876  1.0000
  H   H67       1.0  0.5074016203473589  0.8771932402615122  0.6937273196759225  1.0000
  H   H68       1.0  0.12281078445688108  0.4925964497059425  0.8062742506254994  1.0000
  H   H69       1.0  0.5680653644291168  0.18687220036758137  0.3195515155750215  1.0000
  H   H70       1.0  0.8131288816883495  0.4319296610042187  0.18044723394825016  1.0000
  H   H71       1.0  0.4319348952005342  0.8131264416772481  0.6804476258361734  1.0000
  H   H72       1.0  0.1868721873573733  0.5680693631836037  0.8195524985201816  1.0000
  H   H73       1.0  0.32389340262482585  0.22537252796404061  0.40273664896636074  1.0000
  H   H74       1.0  0.7746247477299659  0.6761061122088279  0.09726135138512863  1.0000
  H   H75       1.0  0.6761068562486088  0.7746261133245866  0.5972621475651468  1.0000
  H   H76       1.0  0.22537631498348523  0.32389510626303053  0.9027388893948403  1.0000
  H   H77       1.0  0.3287498880887084  0.14065661654929337  0.4835357606755652  1.0000
  H   H78       1.0  0.8593425929177341  0.6712486333718604  0.016463197368608497  1.0000
  H   H79       1.0  0.6712479321405878  0.8593452691469992  0.5164633139463677  1.0000
  H   H80       1.0  0.14065928368537328  0.328751504639044  0.9835374105541352  1.0000
  H   H81       1.0  0.6667179336931071  0.9249360433214306  0.45190048558069434  1.0000
  H   H82       1.0  0.07506792676287688  0.3332811254867495  0.04809975363869513  1.0000
  H   H83       1.0  0.3332806982209035  0.07506622678646126  0.5481002147375167  1.0000
  H   H84       1.0  0.9249339457129081  0.6667197419356297  0.9519001040420749  1.0000
  H   H85       1.0  0.6605783706645099  0.011984455547299381  0.371327215441987  1.0000
  H   H86       1.0  0.9880182678753684  0.33941966050868905  0.12867287549390483  1.0000
  H   H87       1.0  0.33942269652252577  0.9880153003205976  0.6286728014235197  1.0000
  H   H88       1.0  0.0119836090740009  0.660579744309736  0.8713267582723961  1.0000
  H   H89       1.0  0.8582212159607394  0.8054191449661448  0.1700302620844454  1.0000
  H   H90       1.0  0.19457981607448716  0.1417808501885817  0.3299666960274622  1.0000
  H   H91       1.0  0.14177984558654796  0.1945813388008446  0.829968314779727  1.0000
  H   H92       1.0  0.8054172003784855  0.8582199254656334  0.6700332275385608  1.0000
  H   H93       1.0  0.8610460321414164  0.9704982163258153  0.12458006836402553  1.0000
  H   H94       1.0  0.029501114654166792  0.13895669469136612  0.37541783777592047  1.0000
  H   H95       1.0  0.1389558503840149  0.029498993452378393  0.8754187122110512  1.0000
  H   H96       1.0  0.9704942830303409  0.8610447838179952  0.6245831968681872  1.0000
  H   H97       1.0  0.15419227017806483  0.9026573909450307  0.18264188765706282  1.0000
  H   H98       1.0  0.09734206333190087  0.845804684421857  0.31735855212033226  1.0000
  H   H99       1.0  0.8458063751567051  0.09734049135099096  0.8173581409177475  1.0000
  H   H100      1.0  0.9026590124560485  0.1541928794306101  0.6826419910726715  1.0000
  H   H101      1.0  0.1530191574692878  0.7321000678109825  0.2257512473918625  1.0000
  H   H102      1.0  0.2678982994664024  0.8469777840615433  0.2742489401966851  1.0000
  H   H103      1.0  0.8469811190159148  0.2678949233954385  0.7742499208307695  1.0000
  H   H104      1.0  0.7321003309351821  0.15302448453394404  0.7257510703621649  1.0000
  H   H105      1.0  0.9467220907936421  0.10575535119723155  0.20772944494936504  1.0000
  H   H106      1.0  0.8942469609541489  0.053279484685511025  0.2922676274198467  1.0000
  H   H107      1.0  0.0532789808669776  0.8942429420667181  0.7922703480016724  1.0000
  H   H108      1.0  0.1057549197126022  0.9467184567727569  0.7077314375523047  1.0000
  H   H109      1.0  0.9933917272189772  0.21710095886499683  0.2506610716117095  1.0000
  H   H110      1.0  0.78290253379199  0.006607791449454085  0.24933676298322655  1.0000
  H   H111      1.0  0.006608518579959398  0.7829013370430288  0.74933742250677  1.0000
  H   H112      1.0  0.2170993521045546  0.9933886881610617  0.7506624229541432  1.0000
  H   H113      1.0  0.24018804149295644  0.21320219554381478  0.13898596648605385  1.0000
  H   H114      1.0  0.7867973303549646  0.7598135640477321  0.3610133977827204  1.0000
  H   H115      1.0  0.7598130200543309  0.7867982882231743  0.8610126103781187  1.0000
  H   H116      1.0  0.21320130899379558  0.2401857793398463  0.6389861649471913  1.0000
  H   H117      1.0  0.19216409352862474  0.10836246365673934  0.09461600636826972  1.0000
  H   H118      1.0  0.8916342575293539  0.8078405516267896  0.4053829938777442  1.0000
  H   H119      1.0  0.8078402254359957  0.8916329665863361  0.9053837546699062  1.0000
  H   H120      1.0  0.10836438333183197  0.19215879327318675  0.5946172586115285  1.0000
  C   C1        1.0  0.868018267585782  0.5514727743689607  0.3288111799467546  1.0000
  C   C2        1.0  0.4485231181713586  0.13198185327118495  0.1711903368750143  1.0000
  C   C3        1.0  0.1319811856526343  0.4485254885576637  0.6711887499259321  1.0000
  C   C4        1.0  0.5514747032241017  0.8680207671299768  0.8288104016627219  1.0000
  C   C5        1.0  0.8641691851966654  0.44910118882275896  0.396192808855318  1.0000
  C   C6        1.0  0.5508942376511285  0.13582632582527043  0.10380913034575917  1.0000
  C   C7        1.0  0.13583107780409878  0.550896723054393  0.6038067379181628  1.0000
  C   C8        1.0  0.44910358746170687  0.8641748312157417  0.8961910393978204  1.0000
  C   C9        1.0  0.9725322233831974  0.4190089769701046  0.3756921296001822  1.0000
  C   C10       1.0  0.5809892693783922  0.02746650452902345  0.12431103449682016  1.0000
  C   C11       1.0  0.027467223869216194  0.5809907470480766  0.6243073344276058  1.0000
  C   C12       1.0  0.41901017491286296  0.9725346836055095  0.8756893432047977  1.0000
  C   C13       1.0  0.058556016003031196  0.3338850377138129  0.3974811391897931  1.0000
  C   C14       1.0  0.6661141965857381  0.9414376980305121  0.10252269709773296  1.0000
  C   C15       1.0  0.9414442383968193  0.6661150661787758  0.6025178812561834  1.0000
  C   C16       1.0  0.33388524433439665  0.05856422027169828  0.8974772752415991  1.0000
  C   C17       1.0  0.033318884925158394  0.28076028776504103  0.4396432922228471  1.0000
  C   C18       1.0  0.7192412798258941  0.9666715969850308  0.060360273943679515  1.0000
  C   C19       1.0  0.9666813702309012  0.7192398168837429  0.5603560731028097  1.0000
  C   C20       1.0  0.280759776145338  0.033331081822183306  0.9396391561117173  1.0000
  C   C21       1.0  0.9252401700504789  0.31156802962357966  0.459833517133781  1.0000
  C   C22       1.0  0.6884307302673206  0.07474945179587421  0.0401693260345013  1.0000
  C   C23       1.0  0.07475927830440549  0.6884309619583249  0.5401653176172518  1.0000
  C   C24       1.0  0.3115695264011649  0.9252506543653071  0.9598307290505237  1.0000
  C   C25       1.0  0.8387005862561806  0.39605422348705605  0.43848606136246826  1.0000
  C   C26       1.0  0.603944161514363  0.16129170426690823  0.061515554826698314  1.0000
  C   C27       1.0  0.1612988662260264  0.6039440386833659  0.5615135236305309  1.0000
  C   C28       1.0  0.3960569000966102  0.8387102466412273  0.9384853152300326  1.0000
  C   C29       1.0  0.6824100747154205  0.5840042423655516  0.36686445719009014  1.0000
  C   C30       1.0  0.4159951782837438  0.31759033886310556  0.13313570543252956  1.0000
  C   C31       1.0  0.317589377420525  0.4159947529973492  0.6331361019593515  1.0000
  C   C32       1.0  0.5840026464828297  0.6824115513703788  0.8668654384674928  1.0000
  C   C33       1.0  0.6459177617233394  0.5413356256428159  0.33195427176703873  1.0000
  C   C34       1.0  0.4586664776202127  0.35408256526181253  0.16804533031641006  1.0000
  C   C35       1.0  0.3540808780353686  0.4586644516934371  0.6680466099989959  1.0000
  C   C36       1.0  0.5413321475515785  0.6459211651814414  0.8319545592772218  1.0000
  C   C37       1.0  0.5621691469878343  0.6130887145836754  0.3049867296032432  1.0000
  C   C38       1.0  0.38691198155625256  0.4378302853626297  0.19501306228903567  1.0000
  C   C39       1.0  0.43782948492617624  0.38691355552420953  0.6950139707149676  1.0000
  C   C40       1.0  0.6130890792985042  0.5621716647893039  0.8049874628880078  1.0000
  C   C41       1.0  0.5268743458215113  0.5746945732674218  0.27317153592419885  1.0000
  C   C42       1.0  0.42530278918516007  0.47312538938607657  0.2268285076908613  1.0000
  C   C43       1.0  0.4731251010846335  0.4253058839432314  0.7268289022600245  1.0000
  C   C44       1.0  0.5746966540036098  0.526876531184733  0.7731724992875119  1.0000
  C   C45       1.0  0.5752692574270525  0.46415451499291294  0.2666981279855919  1.0000
  C   C46       1.0  0.5358464703666996  0.42472987096395826  0.2333023565388929  1.0000
  C   C47       1.0  0.424728563968408  0.5358481054082487  0.7333026105521443  1.0000
  C   C48       1.0  0.4641529713096445  0.5752720480944545  0.7666979606801195  1.0000
  C   C49       1.0  0.6610234739621106  0.3930597224929357  0.293153606600555  1.0000
  C   C50       1.0  0.6069379131270337  0.3389729640187797  0.20684738088253612  1.0000
  C   C51       1.0  0.3389751650403809  0.6069403540871152  0.7068469302857994  1.0000
  C   C52       1.0  0.39306234429766107  0.6610271428985967  0.7931530190821693  1.0000
  C   C53       1.0  0.6953780412213533  0.43101653775779164  0.3255358470202908  1.0000
  C   C54       1.0  0.568983795478907  0.3046181591153001  0.1744649361427052  1.0000
  C   C55       1.0  0.3046205985373546  0.5689835395784612  0.674465034745744  1.0000
  C   C56       1.0  0.4310156488123411  0.6953830290192329  0.8255354415589127  1.0000
  C   C57       1.0  0.3133990662674719  0.29559358258924123  0.30237990819369304  1.0000
  C   C58       1.0  0.7044039169527351  0.6865999266867036  0.1976194962328465  1.0000
  C   C59       1.0  0.6866011784289936  0.7044094457550544  0.6976192152015418  1.0000
  C   C60       1.0  0.2955963386132722  0.3134009119107476  0.8023811881289337  1.0000
  C   C61       1.0  0.37659986082232416  0.37469426170705583  0.3417670948903366  1.0000
  C   C62       1.0  0.6253048635156588  0.6234006890368989  0.15823135508986044  1.0000
  C   C63       1.0  0.6234004033445969  0.6253043848749584  0.6582341157989477  1.0000
  C   C64       1.0  0.3746962025689058  0.3765997992672753  0.8417692910524013  1.0000
  C   C65       1.0  0.2713587594832774  0.4479263846531936  0.3298960804704621  1.0000
  C   C66       1.0  0.5520714188052764  0.7286394130956565  0.1701037101743168  1.0000
  C   C67       1.0  0.7286406892815547  0.552073340877385  0.6701040733166865  1.0000
  C   C68       1.0  0.4479288360045216  0.2713614247455993  0.8298966293077829  1.0000
  C   C69       1.0  0.22240603171233178  0.5541097278084307  0.34209483829666004  1.0000
  C   C70       1.0  0.4458905538885744  0.7775928368548435  0.15790468740559055  1.0000
  C   C71       1.0  0.7775926158910736  0.4458881567561831  0.6579062249171913  1.0000
  C   C72       1.0  0.5541097024336422  0.22240800249880976  0.8420963418358771  1.0000
  C   C73       1.0  0.281070009483443  0.5833777550625853  0.3667237765034913  1.0000
  C   C74       1.0  0.4166214789940454  0.7189304181739828  0.13327674199464926  1.0000
  C   C75       1.0  0.7189326836242245  0.4166205715634775  0.6332772590446256  1.0000
  C   C76       1.0  0.5833787739570653  0.28107115134735505  0.8667238818845251  1.0000
  C   C77       1.0  0.3849136327596341  0.509031623571289  0.37925496987472956  1.0000
  C   C78       1.0  0.49096490588407693  0.6150890456175516  0.12074351782132459  1.0000
  C   C79       1.0  0.6150882509319615  0.49096632091177383  0.6207454746161505  1.0000
  C   C80       1.0  0.5090361542144705  0.38491290377818643  0.8792566624760456  1.0000
  C   C81       1.0  0.4347651666916831  0.40326902478385335  0.36713224248368465  1.0000
  C   C82       1.0  0.5967269489614253  0.5652366791360206  0.13286532682708704  1.0000
  C   C83       1.0  0.565234294045176  0.5967277785636043  0.6328688429932544  1.0000
  C   C84       1.0  0.4032741137520262  0.4347645393358377  0.8671349139528888  1.0000
  C   C85       1.0  0.4936677733269049  0.17558511188236994  0.3302897766438307  1.0000
  C   C86       1.0  0.8244110495415737  0.5063314901636389  0.16970971903022306  1.0000
  C   C87       1.0  0.5063324885713811  0.8244135324310519  0.6697103994064053  1.0000
  C   C88       1.0  0.17559001503055777  0.4936689966281449  0.8302902373526782  1.0000
  C   C89       1.0  0.4922134890754464  0.1247868375058729  0.3807604498245143  1.0000
  C   C90       1.0  0.8752112136505373  0.5077842851161093  0.11923901302105124  1.0000
  C   C91       1.0  0.5077859649191864  0.8752114261769465  0.6192398249278458  1.0000
  C   C92       1.0  0.1247898535364982  0.4922154707517947  0.8807610038444554  1.0000
  C   C93       1.0  0.3995051108464267  0.15883122545893255  0.4131553564216903  1.0000
  C   C94       1.0  0.8411657044931216  0.6004917171834877  0.08684324199970925  1.0000
  C   C95       1.0  0.6004935285023336  0.841168117928646  0.5868442063082216  1.0000
  C   C96       1.0  0.1588345488042577  0.39950911914537107  0.9131564077230296  1.0000
  C   C97       1.0  0.4026898527013998  0.11022750645356187  0.4594138973307552  1.0000
  C   C98       1.0  0.8897698483961775  0.5973089840893878  0.04058587945464608  1.0000
  C   C99       1.0  0.5973079776412361  0.8897721887396912  0.5405863933780355  1.0000
  C   C100      1.0  0.11023040827230797  0.4026911220717934  0.9594141756303788  1.0000
  C   C101      1.0  0.4981983740723591  0.02507854031570388  0.4752463216965453  1.0000
  C   C102      1.0  0.9749198084227187  0.5018018661065115  0.024753602569873655  1.0000
  C   C103      1.0  0.5018010799222736  0.9749197233671155  0.5247539530558143  1.0000
  C   C104      1.0  0.025080450104454095  0.498197508374588  0.9752461681180764  1.0000
  C   C105      1.0  0.5901919410025868  0.9904582510805116  0.44190868016823276  1.0000
  C   C106      1.0  0.009539561041634696  0.4098064451100783  0.05809109009467051  1.0000
  C   C107      1.0  0.4098058971847464  0.009539251341109922  0.5580917919883819  1.0000
  C   C108      1.0  0.9904582677885754  0.5901932485707847  0.9419085108547595  1.0000
  C   C109      1.0  0.5872543347853919  0.039597489092116675  0.39586984427712946  1.0000
  C   C110      1.0  0.9604016525618205  0.41274374098929917  0.10413053953309513  1.0000
  C   C111      1.0  0.4127451192092408  0.9604007745907097  0.6041304304752304  1.0000
  C   C112      1.0  0.03959860486287431  0.5872563659280772  0.8958698604316102  1.0000
  C   C113      1.0  0.005823010746901497  0.6540052659708594  0.22539007906667768  1.0000
  C   C114      1.0  0.34599491812232935  0.9941787752370816  0.2746088647285277  1.0000
  C   C115      1.0  0.9941788669586842  0.34599413960376074  0.7746098995793106  1.0000
  C   C116      1.0  0.6540028916473799  0.005826034154729747  0.7253899679629756  1.0000
  C   C117      1.0  0.005938375863855998  0.7577489141536375  0.20027451819903774  1.0000
  C   C118      1.0  0.24224898011313906  0.9940636918908157  0.29972183141959624  1.0000
  C   C119      1.0  0.9940635066615753  0.24224829562455613  0.7997242623760389  1.0000
  C   C120      1.0  0.7577496446486975  0.0059393046037642325  0.7002767391379126  1.0000
  C   C121      1.0  0.9234435044752656  0.8267393307555222  0.17229439523781317  1.0000
  C   C122      1.0  0.17326023462926793  0.07655904331436862  0.3277021280616169  1.0000
  C   C123      1.0  0.07655837020547548  0.17326007179430292  0.8277042038894397  1.0000
  C   C124      1.0  0.8267367784525915  0.9234424625075234  0.6722973901421202  1.0000
  C   C125      1.0  0.9249668466872407  0.92073996604595  0.14704335190836562  1.0000
  C   C126      1.0  0.07926066263742369  0.07503821159823332  0.3529535638173302  1.0000
  C   C127      1.0  0.07503745617803759  0.0792591157917286  0.8529547271980464  1.0000
  C   C128      1.0  0.9207387756678145  0.924964437627864  0.6470463480393962  1.0000
  C   C129      1.0  0.008445824374881299  0.9487073801836842  0.1502136862897531  1.0000
  C   C130      1.0  0.051294316155953396  0.9915558746574434  0.3497847916169834  1.0000
  C   C131      1.0  0.9915568649517323  0.05129094266138886  0.849785624859955  1.0000
  C   C132      1.0  0.9487051299939819  0.008444581797014891  0.6502153016875598  1.0000
  C   C133      1.0  0.08963404231148077  0.8810698182223221  0.17938466294415895  1.0000
  C   C134      1.0  0.1189258824065504  0.9103679542073307  0.32061394445139524  1.0000
  C   C135      1.0  0.9103686619483112  0.11892411832327794  0.8206146662215092  1.0000
  C   C136      1.0  0.8810719468336144  0.0896324734221993  0.6793869755341578  1.0000
  C   C137      1.0  0.08892095608759118  0.7860684055025261  0.20384214579559773  1.0000
  C   C138      1.0  0.2139320132085274  0.9110768194948519  0.2961571111382072  1.0000
  C   C139      1.0  0.9110801219053  0.21392769347738752  0.7961571388438958  1.0000
  C   C140      1.0  0.7860674321851988  0.08892363620341123  0.7038426372866556  1.0000
  C   C141      1.0  0.020161117280935104  0.046029365559398586  0.12008201140163523  1.0000
  C   C142      1.0  0.9539705955496984  0.979842402057024  0.3799157773162138  1.0000
  C   C143      1.0  0.9798440103435481  0.9539664460704812  0.879917995814097  1.0000
  C   C144      1.0  0.04602804194037449  0.020157673010636805  0.6200840698107728  1.0000
  C   C145      1.0  0.9094883705807815  0.13579601435989735  0.10403514777910775  1.0000
  C   C146      1.0  0.8642061212549306  0.09051487500140355  0.39596179997624165  1.0000
  C   C147      1.0  0.0905159390267158  0.8642016071424194  0.8959637420518836  1.0000
  C   C148      1.0  0.13579090304273927  0.9094837078811722  0.6040383050376052  1.0000
  C   C149      1.0  0.09670667606586388  0.001204430270426825  0.07488894838154894  1.0000
  C   C150      1.0  0.9987958657104343  0.9032954459205343  0.4251096196276053  1.0000
  C   C151      1.0  0.9032960069284711  0.9987960868586753  0.9251108710797101  1.0000
  C   C152      1.0  0.0012027732920643003  0.0967046306595165  0.574890917258742  1.0000
  C   C153      1.0  0.06341538223995968  0.10137507579423749  0.14738444462208386  1.0000
  C   C154      1.0  0.8986263557204522  0.9365862275528161  0.3526133804599426  1.0000
  C   C155      1.0  0.9365881217325196  0.8986221673460761  0.8526155785500722  1.0000
  C   C156      1.0  0.1013755283174049  0.063410983737775  0.6473860898745019  1.0000
  C   C157      1.0  0.010340626146124498  0.13039541214607203  0.1922116951256642  1.0000
  C   C158      1.0  0.8696076825183423  0.9896602164605638  0.3077857098374893  1.0000
  C   C159      1.0  0.9896620657953858  0.8696021797751218  0.8077876765066566  1.0000
  C   C160      1.0  0.130395819941711  0.010337025167352503  0.692213623575306  1.0000
  C   C161      1.0  0.0366837804936608  0.19170437128877896  0.2165585470453878  1.0000
  C   C162      1.0  0.8082989512295952  0.9633154065255454  0.2834393211879558  1.0000
  C   C163      1.0  0.9633156574016225  0.8082975439886442  0.7834400457752155  1.0000
  C   C164      1.0  0.19170374332681206  0.03668145447176841  0.7165601109269633  1.0000
  C   C165      1.0  0.11874387069663328  0.22339930797680552  0.19711727430797776  1.0000
  C   C166      1.0  0.7766040160350655  0.8812557504707214  0.3028809031870809  1.0000
  C   C167      1.0  0.8812555698135539  0.7766018763767375  0.8028813789952312  1.0000
  C   C168      1.0  0.22339705562555415  0.11874254279322126  0.6971188897639568  1.0000
  C   C169      1.0  0.1760130126198547  0.18898769702644813  0.15390571798252495  1.0000
  C   C170      1.0  0.81101111520438  0.8239886970063423  0.346093696564509  1.0000
  C   C171      1.0  0.8239896785654393  0.8110098941385431  0.8460933087701082  1.0000
  C   C172      1.0  0.18898995831492726  0.17600886457752543  0.6539058119894536  1.0000
  C   C173      1.0  0.1482160261546426  0.1296991747775564  0.12894082847222424  1.0000
  C   C174      1.0  0.8703016448414899  0.8517855286163462  0.3710573974865314  1.0000
  C   C175      1.0  0.8517874822914207  0.8702966057588026  0.8710589707854699  1.0000
  C   C176      1.0  0.12970023919636728  0.14821168267424406  0.6289420728479133  1.0000
  C   C177      1.0  0.14110594053353506  0.29935524187784784  0.2199784104105192  1.0000
  C   C178      1.0  0.7006459760555188  0.8588955467374716  0.2800201315563272  1.0000
  C   C179      1.0  0.8588934958493368  0.7006466718871779  0.7800194926507233  1.0000
  C   C180      1.0  0.299353471953104  0.14110417803690478  0.7199796773511411  1.0000
  N   N1        1.0  0.23448677588524444  0.3950509679295778  0.3056966666875384  1.0000
  N   N2        1.0  0.6049472251606858  0.7655122977418287  0.19430267190514178  1.0000
  N   N3        1.0  0.7655126702646909  0.6049494885248805  0.6943034266170048  1.0000
  N   N4        1.0  0.3950538375527656  0.23448892073002983  0.805697568874827  1.0000
  N   N5        1.0  0.40045249512584746  0.27948924567728284  0.3232479128894782  1.0000
  N   N6        1.0  0.7205083779466503  0.5995463498595515  0.17675114940521305  1.0000
  N   N7        1.0  0.5995469570100979  0.7205097496856182  0.6767526462599566  1.0000
  N   N8        1.0  0.2794926855230102  0.40045486936850233  0.823249436254436  1.0000
  N   N9        1.0  0.9714626516036446  0.4850865987544567  0.33367051885311133  1.0000
  N   N10       1.0  0.5149126072815022  0.02853576657365421  0.16633259068926523  1.0000
  N   N11       1.0  0.028536789316490296  0.5149153195477612  0.6663294534862205  1.0000
  N   N12       1.0  0.48508602724740507  0.9714657726103577  0.8336681701115513  1.0000
  N   N13       1.0  0.8004988393159137  0.5339867362339065  0.3655633596325246  1.0000
  N   N14       1.0  0.46601200123161135  0.19949971309443268  0.13443839575751332  1.0000
  N   N15       1.0  0.19950061096134414  0.4660129908090695  0.6344374839139918  1.0000
  N   N16       1.0  0.5339882535781868  0.8005011247468232  0.8655619437245865  1.0000
  O   O1        1.0  0.9261499564874426  0.6341534552166125  0.2259435255978276  1.0000
  O   O2        1.0  0.3658443555446097  0.07385200016918256  0.2740549192163756  1.0000
  O   O3        1.0  0.0738478708940349  0.36584770409299244  0.7740576787848001  1.0000
  O   O4        1.0  0.6341518350466799  0.9261527781291007  0.7259437055170965  1.0000
  O   O5        1.0  0.0925971400049548  0.589612582210961  0.24528950990845308  1.0000
  O   O6        1.0  0.4103893732060939  0.9073990006667856  0.25471320695976374  1.0000
  O   O7        1.0  0.9074015005099624  0.41038749588148704  0.7547117167372621  1.0000
  O   O8        1.0  0.5896084448182605  0.09260434990206086  0.7452871262156793  1.0000
  O   O9        1.0  0.07004014396994049  0.34435361064537073  0.25441808499658697  1.0000
  O   O10       1.0  0.6556460541537488  0.9299622418693051  0.2455815453436118  1.0000
  O   O11       1.0  0.9299601063025874  0.6556472226587005  0.7455801852074162  1.0000
  O   O12       1.0  0.3443517732277214  0.07003891744030712  0.754419659039016  1.0000
  O   O13       1.0  0.2217144783294742  0.3175634544276776  0.20461501410460417  1.0000
  O   O14       1.0  0.6824405914575776  0.7782840023788395  0.29538319822796677  1.0000
  O   O15       1.0  0.7782825137695113  0.6824424316440979  0.7953817270457153  1.0000
  O   O16       1.0  0.31755561041320846  0.22171932012127377  0.7046183065081666  1.0000
  F   F1        1.0  0.8306492281108928  0.1606504517187589  0.1413504033053244  1.0000
  F   F2        1.0  0.839352149120522  0.16935472083277153  0.358646791515426  1.0000
  F   F3        1.0  0.1693542687094194  0.8393475178082426  0.858647490106144  1.0000
  F   F4        1.0  0.1606440609412232  0.830645675703238  0.6413539205120886  1.0000
  F   F5        1.0  0.9160654508994526  0.22953049486184077  0.08562300415460562  1.0000
  F   F6        1.0  0.7704733629175776  0.08393428624463443  0.4143751262064017  1.0000
  F   F7        1.0  0.08393885870804499  0.770467126640476  0.9143758856763855  1.0000
  F   F8        1.0  0.22952772855975917  0.9160588920645553  0.5856257798822428  1.0000
  F   F9        1.0  0.8725131820270845  0.10670783216115613  0.0707417685876308  1.0000
  F   F10       1.0  0.8932943292659558  0.12748751363376715  0.42925642373081996  1.0000
  F   F11       1.0  0.12749355163762738  0.8932901980404891  0.9292558509805391  1.0000
  F   F12       1.0  0.10670351153627418  0.8725092578639745  0.5707441089084072  1.0000
  F   F13       1.0  0.1012000625549447  0.0815352806351157  0.04118924489294072  1.0000
  F   F14       1.0  0.9184652036417658  0.8988024742580053  0.45880892737035606  1.0000
  F   F15       1.0  0.898803432816635  0.9184641545206346  0.9588102519517184  1.0000
  F   F16       1.0  0.08153099781907258  0.1012001142934409  0.5411912583296543  1.0000
  F   F17       1.0  0.0657427459538695  0.9406049581191881  0.05427825119837591  1.0000
  F   F18       1.0  0.05939664115068408  0.9342596781067912  0.44571879510234436  1.0000
  F   F19       1.0  0.9342647978831308  0.05939345498165956  0.9457203043067184  1.0000
  F   F20       1.0  0.9406036147615849  0.06574042729818783  0.5542809151030001  1.0000
  F   F21       1.0  0.20039514063813607  0.9358564170542324  0.08522391710999952  1.0000
  F   F22       1.0  0.0641436412383669  0.7996085777392139  0.4147731508770463  1.0000
  F   F23       1.0  0.7996115900654103  0.06414307726376492  0.9147746161320076  1.0000
  F   F24       1.0  0.9358541846306848  0.2003925800579936  0.5852273637462206  1.0000
