data_image0
_chemical_formula_structural       Zn2H46C48N8O12
_chemical_formula_sum              "Zn2 H46 C48 N8 O12"
_cell_length_a       14.656944877518988
_cell_length_b       16.067054162952875
_cell_length_c       19.193073477712247
_cell_angle_alpha    90.0254363519168
_cell_angle_beta     90.14889630652898
_cell_angle_gamma    89.98279589453551

_space_group_name_H-M_alt    "P 1"
_space_group_IT_number       1

loop_
  _space_group_symop_operation_xyz
  'x, y, z'

loop_
  _atom_site_type_symbol
  _atom_site_label
  _atom_site_symmetry_multiplicity
  _atom_site_fract_x
  _atom_site_fract_y
  _atom_site_fract_z
  _atom_site_occupancy
  Zn  Zn1       1.0  0.4032114643468389  0.499702431985618  0.5000858805078962  1.0000
  Zn  Zn2       1.0  0.5956723822748201  0.4981408805068456  0.5002777294848926  1.0000
  H   H1        1.0  0.35365883192465464  0.5040384268134944  0.2773567723449162  1.0000
  H   H2        1.0  0.6450060751783511  0.5261328919864283  0.281189578509867  1.0000
  H   H3        1.0  0.35302630306139077  0.5294521637496744  0.14838946325664892  1.0000
  H   H4        1.0  0.6456080017761464  0.5521424873700486  0.1521012224588247  1.0000
  H   H5        1.0  0.35281956544004334  0.5392918736177279  0.8495422441636293  1.0000
  H   H6        1.0  0.6464589858031289  0.5421058840315709  0.8507438712802511  1.0000
  H   H7        1.0  0.3542394547322373  0.514354515600644  0.7202998454163207  1.0000
  H   H8        1.0  0.6465689474542983  0.5171042197724985  0.7215018718212818  1.0000
  H   H9        1.0  0.43140170995338417  0.9236098007774914  0.6059533455009004  1.0000
  H   H10       1.0  0.5935823580348866  0.9354874948213376  0.5927615679303884  1.0000
  H   H11       1.0  0.649025445487588  0.9212051939398194  0.5123496876068003  1.0000
  H   H12       1.0  0.3566028072111961  0.9299739065444969  0.5336053867706028  1.0000
  H   H13       1.0  0.4110566698092127  0.0671528126299776  0.41684574109667233  1.0000
  H   H14       1.0  0.5264119380948316  0.07459614334744909  0.3949512930756498  1.0000
  H   H15       1.0  0.423668757812372  0.9231698976740147  0.4101116808111485  1.0000
  H   H16       1.0  0.543314631565451  0.9292874478171316  0.3995347553543098  1.0000
  H   H17       1.0  0.07316390806850848  0.40516914089548806  0.5699978961552645  1.0000
  H   H18       1.0  0.9162933434853214  0.3851565554260575  0.553326486114159  1.0000
  H   H19       1.0  0.9145102913471419  0.6199720644349612  0.5503168178272092  1.0000
  H   H20       1.0  0.06984051605611799  0.6309925475241657  0.5236083703120471  1.0000
  H   H21       1.0  0.9319954043300385  0.5319814384652233  0.6037961248141954  1.0000
  H   H22       1.0  0.0881036926722416  0.561960629199234  0.5938078137772749  1.0000
  H   H23       1.0  0.9128935353609858  0.4907155142274319  0.3834137230251571  1.0000
  H   H24       1.0  0.06188921436302758  0.4633238985164425  0.3866065825742027  1.0000
  H   H25       1.0  0.9286053968196196  0.37282496799480924  0.4623312457542638  1.0000
  H   H26       1.0  0.086097168773648  0.36660075565603734  0.4843815732905412  1.0000
  H   H27       1.0  0.9365469352567641  0.61852305373057  0.29345810894616164  1.0000
  H   H28       1.0  0.8236565801793103  0.5897294175710641  0.315795922963602  1.0000
  H   H29       1.0  0.856789760817314  0.6958997902139928  0.3188471020407206  1.0000
  H   H30       1.0  0.8459848790472293  0.6328810397325739  0.4374905831694846  1.0000
  H   H31       1.0  0.9569203564381609  0.6689387215645368  0.42126736778522667  1.0000
  H   H32       1.0  0.23304814931270806  0.523816576574049  0.36293838792519045  1.0000
  H   H33       1.0  0.15497153605981845  0.5188802084177483  0.29191219377838  1.0000
  H   H34       1.0  0.21709299517488734  0.6115716845608289  0.3090617568076226  1.0000
  H   H35       1.0  0.05700444827672158  0.6269766143342608  0.3467373663577078  1.0000
  H   H36       1.0  0.1305999684563943  0.635415609209865  0.41815656445449173  1.0000
  H   H37       1.0  0.41630018148719466  0.977245991228813  0.7042848904748666  1.0000
  H   H38       1.0  0.5303372706480258  0.0024924874091781  0.6825015646309964  1.0000
  H   H39       1.0  0.4679192214086  0.0671449395483279  0.739738997550397  1.0000
  H   H40       1.0  0.4622242823454242  0.1433170226717237  0.6310332791159752  1.0000
  H   H41       1.0  0.35582145143894184  0.10067353182232351  0.6464547573760058  1.0000
  H   H42       1.0  0.7616692221339034  0.15643254401500428  0.5480013800980004  1.0000
  H   H43       1.0  0.6603415273630728  0.21680393032809764  0.5556407779755118  1.0000
  H   H44       1.0  0.7243850526416649  0.19006437901922624  0.6310816355650389  1.0000
  H   H45       1.0  0.5934022162143504  0.09916180914217419  0.6301785985437435  1.0000
  H   H46       1.0  0.6918390397735193  0.03973346987175571  0.6135672790843074  1.0000
  C   C1        1.0  0.4973552999065942  0.3370883297460524  0.5017795500581883  1.0000
  C   C2        1.0  0.4987974773525534  0.5034490211227052  0.3643237390387882  1.0000
  C   C3        1.0  0.5003737045403439  0.6616806090676164  0.5013430247829761  1.0000
  C   C4        1.0  0.5007306987363335  0.5043004139203974  0.6359357434858808  1.0000
  C   C5        1.0  0.4170020192212147  0.5144491296636886  0.24918300698918466  1.0000
  C   C6        1.0  0.5817381427095467  0.526880922608612  0.2512648772765901  1.0000
  C   C7        1.0  0.41672146376001956  0.5284560499957749  0.1777674772810798  1.0000
  C   C8        1.0  0.5820326302836633  0.541149329232759  0.1798669021032779  1.0000
  C   C9        1.0  0.4992938800571378  0.5428280058409101  0.1425479374483913  1.0000
  C   C10       1.0  0.49928507344301193  0.5142715528965597  0.2866190233691697  1.0000
  C   C11       1.0  0.4990241301748099  0.5589247361370511  0.9329351269027485  1.0000
  C   C12       1.0  0.49890731572152447  0.5591072590334037  0.0674859883279453  1.0000
  C   C13       1.0  0.41685283267258905  0.5339991718327681  0.8211946060468378  1.0000
  C   C14       1.0  0.5827628496253324  0.5356094663260365  0.8218890819662263  1.0000
  C   C15       1.0  0.41755726025971274  0.5202687444360449  0.7497269281494496  1.0000
  C   C16       1.0  0.582900990056899  0.5218441040269822  0.7504055617477761  1.0000
  C   C17       1.0  0.5004362161572472  0.5148477262998838  0.7136693635926933  1.0000
  C   C18       1.0  0.4995772657398944  0.5426735878314022  0.8578420169245717  1.0000
  C   C19       1.0  0.4242154335729109  0.0461376595683731  0.558326086244719  1.0000
  C   C20       1.0  0.5982619141685106  0.04579550868930941  0.5279287743807686  1.0000
  C   C21       1.0  0.5902312945336591  0.9511236148128008  0.537080630413854  1.0000
  C   C22       1.0  0.42264997332521387  0.9506721859001174  0.5540057105306673  1.0000
  C   C23       1.0  0.5005569251906151  0.7517846140982842  0.5040970914404639  1.0000
  C   C24       1.0  0.5016020170870021  0.08156451639857211  0.5061348625702138  1.0000
  C   C25       1.0  0.4997824293205823  0.9177325050559161  0.5069034983912459  1.0000
  C   C26       1.0  0.48609864980539885  0.9507153721091798  0.43177823917570635  1.0000
  C   C27       1.0  0.47932374083996615  0.0465095302620568  0.4321811971815492  1.0000
  C   C28       1.0  0.5000632706653362  0.8273546030659559  0.5063167763262726  1.0000
  C   C29       1.0  0.49995717189108996  0.17164702641423443  0.5053931701156529  1.0000
  C   C30       1.0  0.4965644923534426  0.24705920180844743  0.5036806143839172  1.0000
  C   C31       1.0  0.9484357271237368  0.41190776931865264  0.5068267754971885  1.0000
  C   C32       1.0  0.05297594528290259  0.41527918949029907  0.5154881821432583  1.0000
  C   C33       1.0  0.948670417958894  0.5593106012643858  0.5529393104363436  1.0000
  C   C34       1.0  0.0525362518507819  0.569036392673468  0.5437462520353336  1.0000
  C   C35       1.0  0.9122021728388032  0.5013534272659895  0.4946730736839058  1.0000
  C   C36       1.0  0.08713909363120817  0.5021036659312516  0.4918364029148066  1.0000
  C   C37       1.0  0.05045984919444629  0.5207412556979493  0.4166969541737018  1.0000
  C   C38       1.0  0.9439732976125511  0.533187935230323  0.4217612457345865  1.0000
  C   C39       1.0  0.18589089810395618  0.5017419613758136  0.4942985831104849  1.0000
  C   C40       1.0  0.8133977921733261  0.4996858054836082  0.4968107313056506  1.0000
  C   C41       1.0  0.907120909648455  0.6211647332904137  0.4057174869647683  1.0000
  C   C42       1.0  0.8799670284013387  0.6320996546929718  0.3292030371538601  1.0000
  C   C43       1.0  0.10366787209832037  0.5908277593569338  0.3796003854429273  1.0000
  C   C44       1.0  0.18158035277829032  0.559108922883162  0.3336951211082066  1.0000
  C   C45       1.0  0.42605335713847126  0.08348277430202701  0.6330687847817772  1.0000
  C   C46       1.0  0.4625926149071373  0.0290039015032946  0.6923502727953732  1.0000
  C   C47       1.0  0.6463196617646219  0.0873452158484938  0.5913066184334923  1.0000
  C   C48       1.0  0.7008498056809813  0.16744674159477313  0.580065696953028  1.0000
  N   N1        1.0  0.5792589125311806  0.572697583081812  0.034657276014272  1.0000
  N   N2        1.0  0.41777110034011855  0.5684103239656795  0.034283504156739815  1.0000
  N   N3        1.0  0.5793495259153117  0.5728156097155263  0.9661168696029917  1.0000
  N   N4        1.0  0.4178810503670646  0.5680883202799265  0.9657496269894638  1.0000
  N   N5        1.0  0.26463411599695513  0.5006462075485345  0.499500762492147  1.0000
  N   N6        1.0  0.7344544650368547  0.49757249315569413  0.4988735522941426  1.0000
  N   N7        1.0  0.6688609338122189  0.06246346120977359  0.46725098459464925  1.0000
  N   N8        1.0  0.3314485027582846  0.07969335444003892  0.5257328543895241  1.0000
  O   O1        1.0  0.42014153574449853  0.37288944254658674  0.4986022199504418  1.0000
  O   O2        1.0  0.5758479040741448  0.3710928255390513  0.5036875583724906  1.0000
  O   O3        1.0  0.42113124740089336  0.5019968608772558  0.3938823538734653  1.0000
  O   O4        1.0  0.5760826440411576  0.49801892354592775  0.3944929647019961  1.0000
  O   O5        1.0  0.42232137030151745  0.6269273700129433  0.5014780384847485  1.0000
  O   O6        1.0  0.5780089939914388  0.6262492344786922  0.4991134271917019  1.0000
  O   O7        1.0  0.42332883961921636  0.49954063247917435  0.6059477252653309  1.0000
  O   O8        1.0  0.57832215184699  0.5022578729457196  0.6062581948392564  1.0000
  O   O9        1.0  0.6598137809596734  0.1258174569995916  0.4318008524552894  1.0000
  O   O10       1.0  0.7344689131523054  0.0142468659313835  0.463428643522569  1.0000
  O   O11       1.0  0.30950799446019767  0.1514491264827527  0.5408737827062852  1.0000
  O   O12       1.0  0.28734133175689885  0.03362622607820499  0.4863648496436141  1.0000
