data_image0
_chemical_formula_structural       MnH30C20S2N16O4
_chemical_formula_sum              "Mn1 H30 C20 S2 N16 O4"
_cell_length_a       8.654432186470997
_cell_length_b       8.853982934920332
_cell_length_c       10.566828143331474
_cell_angle_alpha    82.63859731833385
_cell_angle_beta     83.63108837095426
_cell_angle_gamma    69.8913130046789

_space_group_name_H-M_alt    "P 1"
_space_group_IT_number       1

loop_
  _space_group_symop_operation_xyz
  'x, y, z'

loop_
  _atom_site_type_symbol
  _atom_site_label
  _atom_site_symmetry_multiplicity
  _atom_site_fract_x
  _atom_site_fract_y
  _atom_site_fract_z
  _atom_site_occupancy
  Mn  Mn1       1.0  3.378601788706533e-07  0.4999990920001523  5.153649034594404e-06  1.0000
  H   H1        1.0  0.32330869158029446  0.990788239917393  0.13161741427151696  1.0000
  H   H2        1.0  0.6766951529919324  0.009212477589137803  0.868381445045749  1.0000
  H   H3        1.0  0.4387596203966311  0.7894921427808159  0.1844566518877784  1.0000
  H   H4        1.0  0.5612372358018263  0.21050861180653874  0.8155428062756017  1.0000
  H   H5        1.0  0.3944272271958981  0.9713141465128388  0.35433179320698827  1.0000
  H   H6        1.0  0.6055735223056189  0.028685383771019705  0.6456684070718381  1.0000
  H   H7        1.0  0.17796664549252478  0.03421440560565971  0.3468187284631341  1.0000
  H   H8        1.0  0.8220380746102905  0.9657802736556252  0.653179757927809  1.0000
  H   H9        1.0  0.17891347804712154  0.754561644221802  0.4164613679271625  1.0000
  H   H10       1.0  0.8210896558712123  0.24543425478768197  0.5835390169462258  1.0000
  H   H11       1.0  0.3969790129954588  0.6836436521290993  0.41778089434576055  1.0000
  H   H12       1.0  0.6030229235743576  0.316355864169644  0.5822163659121173  1.0000
  H   H13       1.0  0.38271848609462467  0.8421547764373261  0.5962654960008322  1.0000
  H   H14       1.0  0.6172791906755108  0.15784355881887546  0.4037332050262918  1.0000
  H   H15       1.0  0.16717392553648847  0.9378316153147852  0.5895198517494293  1.0000
  H   H16       1.0  0.832823344671027  0.06216792830616673  0.4104787544769408  1.0000
  H   H17       1.0  0.8269757299122489  0.8775981054518099  0.11233356496271801  1.0000
  H   H18       1.0  0.1730218146007587  0.12240747543756923  0.8876672078578024  1.0000
  H   H19       1.0  0.3278635073853734  0.5895559479747237  0.11041736257326559  1.0000
  H   H20       1.0  0.672134880038655  0.4104472057785245  0.8895798128977362  1.0000
  H   H21       1.0  0.3007819922451702  0.33306215219087687  0.76408311301946  1.0000
  H   H22       1.0  0.699214105786936  0.6669374002118647  0.2359165397523526  1.0000
  H   H23       1.0  0.04372199504685167  0.8280496820824441  0.7896481433569136  1.0000
  H   H24       1.0  0.9562799117371837  0.1719498446229295  0.2103529038519767  1.0000
  H   H25       1.0  0.13865433398470364  0.46823839210104284  0.3531844290862125  1.0000
  H   H26       1.0  0.8613467671205302  0.5317635487321652  0.6468154817834274  1.0000
  H   H27       1.0  0.33358466515787194  0.31002052512356226  0.3185333574739531  1.0000
  H   H28       1.0  0.6664164359473617  0.689981415709646  0.6814665533956868  1.0000
  H   H29       1.0  0.3243403032344574  0.45262947283521987  0.4272093086239863  1.0000
  H   H30       1.0  0.6756623766088055  0.5473712508514482  0.5727896505009653  1.0000
  C   C1        1.0  0.32096267172973114  0.8867828491897501  0.19938302036733543  1.0000
  C   C2        1.0  0.6790365139266471  0.11321789303733001  0.8006162381806731  1.0000
  C   C3        1.0  0.2927077878126029  0.9307013042946013  0.337030176672279  1.0000
  C   C4        1.0  0.7072926175316354  0.06929581283824154  0.6629693662779772  1.0000
  C   C5        1.0  0.28515793444869086  0.7885911772487121  0.4327647416429627  1.0000
  C   C6        1.0  0.7148436356245114  0.2114059337039933  0.5672347014996078  1.0000
  C   C7        1.0  0.26973559172154876  0.8263739894252141  0.5711795239517556  1.0000
  C   C8        1.0  0.7302609128731774  0.17362435461278386  0.4288202236208106  1.0000
  C   C9        1.0  0.9584706750009179  0.8349946821756405  0.1244146043239382  1.0000
  C   C10       1.0  0.0415264852887987  0.16501209927350402  0.8755832334825726  1.0000
  C   C11       1.0  0.21100430576777285  0.6864615066608692  0.12210548607939127  1.0000
  C   C12       1.0  0.7889917447518827  0.31354166205431977  0.8778928357447383  1.0000
  C   C13       1.0  0.26019157113739766  0.4635434835759187  0.7452326560020524  1.0000
  C   C14       1.0  0.7398091783641122  0.5364560467079402  0.25476754427677406  1.0000
  C   C15       1.0  0.12450497388590512  0.7120577982321523  0.7594583199293864  1.0000
  C   C16       1.0  0.8754922888751652  0.2879417479904591  0.2405412330347474  1.0000
  C   C17       1.0  0.3639254861620032  0.2636966646801113  0.0798228519100874  1.0000
  C   C18       1.0  0.6360838584582211  0.7362944021664293  0.9201869803130904  1.0000
  C   C19       1.0  0.2543822828535339  0.38756114327423313  0.3902034923411506  1.0000
  C   C20       1.0  0.7456191698554308  0.6124432081083244  0.609796129119303  1.0000
  S   S1        1.0  0.5479014350846043  0.19472617615581106  0.1295892957770164  1.0000
  S   S2        1.0  0.45211166774776507  0.8052745127228961  0.8704163389807887  1.0000
  N   N1        1.0  0.19428678797218157  0.8286012077094684  0.1642450919860465  1.0000
  N   N2        1.0  0.8057108263926125  0.17140074906249236  0.8357541715688938  1.0000
  N   N3        1.0  0.03334060934278681  0.9251689461044637  0.1664040629225738  1.0000
  N   N4        1.0  0.9666589353637604  0.0748342040703136  0.8335939594784989  1.0000
  N   N5        1.0  0.0631957057154651  0.6862323984619325  0.09605345482020057  1.0000
  N   N6        1.0  0.9368006889614693  0.31377318340426547  0.9039455243324993  1.0000
  N   N7        1.0  0.23740822860331445  0.6975848514501592  0.6594667241128818  1.0000
  N   N8        1.0  0.7625882908843024  0.30241348738452706  0.3405311299841713  1.0000
  N   N9        1.0  0.3263122926059766  0.5389431211756135  0.6487953076517882  1.0000
  N   N10       1.0  0.6736849627086557  0.46105642764865  0.35120519205009515  1.0000
  N   N11       1.0  0.13551813167839555  0.5649719966300211  0.8160783115027712  1.0000
  N   N12       1.0  0.8644811089368855  0.4350251266829589  0.18392133125517063  1.0000
  N   N13       1.0  0.22704814975539023  0.31444629675586805  0.04589802160614911  1.0000
  N   N14       1.0  0.7729489984752219  0.6855568891941176  0.9541087210500763  1.0000
  N   N15       1.0  0.21652409332987324  0.2796179946870937  0.4994176117623468  1.0000
  N   N16       1.0  0.7834762570554685  0.7203827413598493  0.5005815469779762  1.0000
  O   O1        1.0  0.0702091229796551  0.29241220594796863  0.5295271021656305  1.0000
  O   O2        1.0  0.9297916339683073  0.7075873217342233  0.4704721513754393  1.0000
  O   O3        1.0  0.3346610023338884  0.18094120036701614  0.5547230843790203  1.0000
  O   O4        1.0  0.665340168623139  0.8190571163487733  0.4452753172250397  1.0000
