data_image0
_chemical_formula_structural       Al2H14C26S2N2Cl2O16
_chemical_formula_sum              "Al2 H14 C26 S2 N2 Cl2 O16"
_cell_length_a       6.665020219898098
_cell_length_b       11.234717996270035
_cell_length_c       17.01819341170485
_cell_angle_alpha    88.83597385869794
_cell_angle_beta     81.59006724980972
_cell_angle_gamma    71.85310116136941

_space_group_name_H-M_alt    "P 1"
_space_group_IT_number       1

loop_
  _space_group_symop_operation_xyz
  'x, y, z'

loop_
  _atom_site_type_symbol
  _atom_site_label
  _atom_site_symmetry_multiplicity
  _atom_site_fract_x
  _atom_site_fract_y
  _atom_site_fract_z
  _atom_site_occupancy
  Al  Al1       1.0  0.5173932283912137  0.4896586926911225  0.4908784795316877  1.0000
  Al  Al2       1.0  0.012044448165738748  0.4936550593349125  0.4953537952504092  1.0000
  H   H1        1.0  0.2524843796357673  0.5701438502766791  0.4047729324114471  1.0000
  H   H2        1.0  0.7883879507145085  0.39138866699597946  0.5742858466384534  1.0000
  H   H3        1.0  0.9467707569909934  0.4137952628783595  0.7336637630091901  1.0000
  H   H4        1.0  0.9060226521743292  0.3971510411872146  0.8819481559166463  1.0000
  H   H5        1.0  0.43213689966678726  0.5424204241881299  0.8838196614683724  1.0000
  H   H6        1.0  0.6048312084326286  0.5848441370348851  0.09605928239659532  1.0000
  H   H7        1.0  0.26686934368798626  0.38949906310075744  0.10735581441294782  1.0000
  H   H8        1.0  0.1862498525249947  0.4003518594341955  0.25637016244662914  1.0000
  H   H9        1.0  0.8082266290684643  0.7772249285153023  0.630335967690705  1.0000
  H   H10       1.0  0.6145671259919042  0.2360209061767264  0.5951059668322572  1.0000
  H   H11       1.0  0.23028469742808264  0.0992120393530485  0.42011162930407414  1.0000
  H   H12       1.0  0.3400600625585142  0.8660314841530053  0.4321621269910382  1.0000
  H   H13       1.0  0.2876089070674014  0.77683337585691  0.7200361318290974  1.0000
  H   H14       1.0  0.5674010491277459  0.28591649349375814  0.7907860557309264  1.0000
  C   C1        1.0  0.6371752482434021  0.7194913495407037  0.5085286479091025  1.0000
  C   C2        1.0  0.8182706501794218  0.4928178314747882  0.3488865713349725  1.0000
  C   C3        1.0  0.380510936054499  0.2629596331767203  0.4864169222623219  1.0000
  C   C4        1.0  0.21827472086295066  0.4935980845912625  0.6369421539522122  1.0000
  C   C5        1.0  0.20709893569196675  0.4874264275294849  0.7251523462180245  1.0000
  C   C6        1.0  0.051405012171827004  0.44140112474466525  0.7677343104268247  1.0000
  C   C7        1.0  0.02837816119210864  0.43245624429494  0.8496629590297857  1.0000
  C   C8        1.0  0.16597200382409483  0.4699170531482936  0.8914384639213324  1.0000
  C   C9        1.0  0.32814351021785637  0.5121989203223478  0.8504740791022203  1.0000
  C   C10       1.0  0.34496495570275704  0.5238527112331824  0.7682984094039682  1.0000
  C   C11       1.0  0.7308633752577695  0.5436819851907657  0.1318852762956908  1.0000
  C   C12       1.0  0.9391473432486142  0.4865224825783372  0.09360231827655949  1.0000
  C   C13       1.0  0.10603785859687052  0.4342275769766389  0.13800809500926906  1.0000
  C   C14       1.0  0.060488047915001265  0.44022565709989436  0.2201897369022916  1.0000
  C   C15       1.0  0.8521778109457263  0.4964808286915029  0.26024767802901755  1.0000
  C   C16       1.0  0.6877284075188543  0.5502004767702006  0.21456097785038256  1.0000
  C   C17       1.0  0.5595880758104246  0.8599900311589935  0.5129172663070491  1.0000
  C   C18       1.0  0.6412805803572685  0.931469070304466  0.5609650803525597  1.0000
  C   C19       1.0  0.40892335502856286  0.9216567777199103  0.46535895361233065  1.0000
  C   C20       1.0  0.7656629559353051  0.8776779114379919  0.6213682661940398  1.0000
  C   C21       1.0  0.8281380755175293  0.9499723612502395  0.6715184816431545  1.0000
  C   C22       1.0  0.4404328903124368  0.12384609177431831  0.4976001519824892  1.0000
  C   C23       1.0  0.34843373689638224  0.052696539625131315  0.4580444764001684  1.0000
  C   C24       1.0  0.5818177542731819  0.06450481719323163  0.55227072787595  1.0000
  C   C25       1.0  0.6547363307920978  0.13568614577623353  0.6025162026317616  1.0000
  C   C26       1.0  0.7739048209973237  0.0817683800369977  0.6609207905212245  1.0000
  S   S1        1.0  0.952370513917416  0.8715589708931121  0.7525187299120191  1.0000
  S   S2        1.0  0.8543465414075091  0.18972252442190296  0.7144241968410939  1.0000
  N   N1        1.0  0.14986521866995878  0.4714123742707699  0.9752474634146111  1.0000
  N   N2        1.0  0.9618160649482379  0.486473984474813  0.009741377664916184  1.0000
  Cl  Cl1       1.0  0.5280423300534951  0.5966618389002747  0.725573279477679  1.0000
  Cl  Cl2       1.0  0.42845226390822705  0.6323351441726786  0.25592972621932125  1.0000
  O   O1        1.0  0.5002641838230846  0.6649382590706524  0.5005479697324802  1.0000
  O   O2        1.0  0.9726967689034255  0.4958394267715605  0.38403980146047456  1.0000
  O   O3        1.0  0.18317211196337987  0.3187004537111378  0.485203698899241  1.0000
  O   O4        1.0  0.39850164176306196  0.4892893234392163  0.5983202168279506  1.0000
  O   O5        1.0  0.5283262601896725  0.3135453947316833  0.4805511966975118  1.0000
  O   O6        1.0  0.053000431703829134  0.49840163834389284  0.6062268863792255  1.0000
  O   O7        1.0  0.8362863830242164  0.667121356497667  0.5091367733728234  1.0000
  O   O8        1.0  0.6396238006625483  0.4850446574543597  0.38237598952869695  1.0000
  O   O9        1.0  0.2481942977215112  0.5449375670187849  0.45976389974111953  1.0000
  O   O10       1.0  0.7811511614326323  0.43772009975936754  0.5250058665672485  1.0000
  O   O11       1.0  0.19591755414315784  0.8656537732066881  0.7266737031992465  1.0000
  O   O12       1.0  0.8680730634539703  0.9512117449615828  0.8220042817013536  1.0000
  O   O13       1.0  0.941023717218329  0.7453601769451481  0.7522644039388027  1.0000
  O   O14       1.0  0.6969243618599424  0.21680601912629532  0.7974507127188204  1.0000
  O   O15       1.0  0.06559349410198224  0.13388049867589305  0.7325759127267943  1.0000
  O   O16       1.0  0.8023195807683908  0.3056585242952963  0.6716211362857933  1.0000
