data_image0
_chemical_formula_structural       Zn16H32C96S16O64
_chemical_formula_sum              "Zn16 H32 C96 S16 O64"
_cell_length_a       19.656827744914196
_cell_length_b       19.70611713015851
_cell_length_c       33.34763873096225
_cell_angle_alpha    79.08436221904586
_cell_angle_beta     79.2276744756481
_cell_angle_gamma    63.977015797025075

_space_group_name_H-M_alt    "P 1"
_space_group_IT_number       1

loop_
  _space_group_symop_operation_xyz
  'x, y, z'

loop_
  _atom_site_type_symbol
  _atom_site_label
  _atom_site_symmetry_multiplicity
  _atom_site_fract_x
  _atom_site_fract_y
  _atom_site_fract_z
  _atom_site_occupancy
  Zn  Zn1       1.0  0.0571591480974263  0.39992431583849714  0.47878409976748054  1.0000
  Zn  Zn2       1.0  0.9838634035305134  0.4827321586638862  0.560704108647613  1.0000
  Zn  Zn3       1.0  0.05822163918437441  0.5609411715732124  0.4820913653149574  1.0000
  Zn  Zn4       1.0  0.9007604712564826  0.5554015769227265  0.480063978109257  1.0000
  Zn  Zn5       1.0  0.6949266187672122  0.35034895680782807  0.2713789245441162  1.0000
  Zn  Zn6       1.0  0.6897627626983578  0.19054419281639673  0.26706626578949516  1.0000
  Zn  Zn7       1.0  0.7697011980796377  0.2664829941066671  0.19066425960453864  1.0000
  Zn  Zn8       1.0  0.8489624978592757  0.1955392204485237  0.27295850210649764  1.0000
  Zn  Zn9       1.0  0.2663673964947435  0.7663706651368258  0.68928976328678  1.0000
  Zn  Zn10      1.0  0.3485621043670689  0.6949063445024705  0.7715901510464463  1.0000
  Zn  Zn11      1.0  0.19257396819959635  0.8466580761161854  0.771332528813886  1.0000
  Zn  Zn12      1.0  0.1907099198615398  0.6870277381731569  0.766543905976377  1.0000
  Zn  Zn13      1.0  0.560672358086549  0.060093771451434616  0.9834900023591401  1.0000
  Zn  Zn14      1.0  0.4010683521539916  0.05486330872469852  0.9779940022930234  1.0000
  Zn  Zn15      1.0  0.554014046398713  0.901875610342792  0.9779083194698046  1.0000
  Zn  Zn16      1.0  0.4842476383445132  0.9836003301987263  0.060394694774558395  1.0000
  H   H1        1.0  0.953633023641906  0.24906136702875883  0.3513682861855117  1.0000
  H   H2        1.0  0.7467645506054552  0.4557859894974215  0.35116109742295276  1.0000
  H   H3        1.0  0.0010328536424566  0.29781206332587834  0.3995041801332562  1.0000
  H   H4        1.0  0.09769157823483708  0.597409226757044  0.7000312880274109  1.0000
  H   H5        1.0  0.2014192324799353  0.7012547897911505  0.5966215069369339  1.0000
  H   H6        1.0  0.04997248901657509  0.550205524162891  0.6511831090414263  1.0000
  H   H7        1.0  0.46255446863910515  0.24073238884894738  0.3412400739126511  1.0000
  H   H8        1.0  0.47961795798410367  0.7024915542738557  0.6012490124273597  1.0000
  H   H9        1.0  0.202434131640679  0.9796029975372422  0.6016939674187327  1.0000
  H   H10       1.0  0.9487448218862654  0.9695932344841153  0.3482571859456271  1.0000
  H   H11       1.0  0.5498645740684011  0.04998371731165463  0.15273375818348003  1.0000
  H   H12       1.0  0.6532719103782297  0.15342392328920357  0.04895957528102458  1.0000
  H   H13       1.0  0.5985961419887572  0.09847848211776282  0.20029178237457756  1.0000
  H   H14       1.0  0.547938690105461  0.7696458874383796  0.14848582001027918  1.0000
  H   H15       1.0  0.16264615540018207  0.1412569865210713  0.0407159689016936  1.0000
  H   H16       1.0  0.5011933851337673  0.7961244216163339  0.8988118183305928  1.0000
  H   H17       1.0  0.2945865088872921  0.0031627235448823464  0.8987757735913036  1.0000
  H   H18       1.0  0.4517071930105131  0.7495846003114865  0.8506182309908112  1.0000
  H   H19       1.0  0.3009843718788474  0.28022366664028914  0.9019311056852644  1.0000
  H   H20       1.0  0.787466576626599  0.009074541189058023  0.9088445921273236  1.0000
  H   H21       1.0  0.8104909609506734  0.5272560699549659  0.4189805070474648  1.0000
  H   H22       1.0  0.13571108658747016  0.6359779459064187  0.5265358307031888  1.0000
  H   H23       1.0  0.7233404451526155  0.22313653580233953  0.1145464024081235  1.0000
  H   H24       1.0  0.2219873425145735  0.9399558006203106  0.8311359838011967  1.0000
  H   H25       1.0  0.3257825553984616  0.5426448512774585  0.3985392678698644  1.0000
  H   H26       1.0  0.756502562769576  0.539729874132846  0.6844623547468061  1.0000
  H   H27       1.0  0.04025673365427449  0.25620819874399814  0.6842031957476492  1.0000
  H   H28       1.0  0.7429348896621163  0.8152514852996691  0.38796666770410576  1.0000
  H   H29       1.0  0.7102538138248774  0.4931483896473098  0.06555114114670603  1.0000
  H   H30       1.0  0.148578344368083  0.07574288059488053  0.22083356423393496  1.0000
  H   H31       1.0  0.5068942253176657  0.43404981089297234  0.8621554613584339  1.0000
  H   H32       1.0  0.9241429357765722  0.7069337627202475  0.8518231991696721  1.0000
  C   C1        1.0  0.06165392535307029  0.31595605288545403  0.5622575326745717  1.0000
  C   C2        1.0  0.06944871027383927  0.570231375294597  0.5693957142047453  1.0000
  C   C3        1.0  0.18408706937463384  0.4405862694340925  0.4386311208201762  1.0000
  C   C4        1.0  0.9360276902203282  0.6843907692962009  0.43872433590829735  1.0000
  C   C5        1.0  0.930866777243324  0.42995297053082043  0.43084526908970844  1.0000
  C   C6        1.0  0.8163711065341701  0.5608169115052634  0.5625702342691028  1.0000
  C   C7        1.0  0.5658511039124077  0.3113596443505102  0.31120936975857216  1.0000
  C   C8        1.0  0.6808819427331302  0.1800874027200551  0.18070382718511263  1.0000
  C   C9        1.0  0.6894593077101162  0.4332921231420813  0.1875580063695708  1.0000
  C   C10       1.0  0.9357389921622996  0.1871453402710727  0.18986293567936488  1.0000
  C   C11       1.0  0.8184732569963841  0.3210468119829459  0.31991514164077733  1.0000
  C   C12       1.0  0.8113443690332504  0.06627660293461449  0.31166974876690995  1.0000
  C   C13       1.0  0.4335427996277943  0.6896437119072589  0.6882752162263657  1.0000
  C   C14       1.0  0.3190644557534553  0.8200118890131451  0.8193545304689849  1.0000
  C   C15       1.0  0.1888900722221152  0.933418116409932  0.6886186676692462  1.0000
  C   C16       1.0  0.0656300349083523  0.8090072911661397  0.8112996968609282  1.0000
  C   C17       1.0  0.18128031998459448  0.6802907370554794  0.6797565220127382  1.0000
  C   C18       1.0  0.3137149201177322  0.5653468228947531  0.8113901824575649  1.0000
  C   C19       1.0  0.43830532393097593  0.18374698006415013  0.9386794543776632  1.0000
  C   C20       1.0  0.4295260484082917  0.9310610674801727  0.9302440909494011  1.0000
  C   C21       1.0  0.6837396578958986  0.9389095177266004  0.9386147355701765  1.0000
  C   C22       1.0  0.5612187048071178  0.8164310701364671  0.06142198616471009  1.0000
  C   C23       1.0  0.5702126935210429  0.07006254999778604  0.06932774472424093  1.0000
  C   C24       1.0  0.31625434528636726  0.06150903998561571  0.06121535655754681  1.0000
  C   C25       1.0  0.9011947030465562  0.4033106613832375  0.4023327881040829  1.0000
  C   C26       1.0  0.847374210283995  0.34966727272527015  0.34853200615639685  1.0000
  C   C27       1.0  0.8284838235234914  0.44865246597574804  0.38850853166623267  1.0000
  C   C28       1.0  0.9195099346774497  0.3044778864727392  0.36202759537876966  1.0000
  C   C29       1.0  0.8024788198521974  0.42088425883562786  0.3615964767497529  1.0000
  C   C30       1.0  0.9454826611509546  0.33153933252307854  0.388577253329366  1.0000
  C   C31       1.0  0.09864418545159029  0.5989574039011746  0.5970306173309438  1.0000
  C   C32       1.0  0.15232914668385428  0.6520049715669884  0.6510402379342253  1.0000
  C   C33       1.0  0.14197073886275288  0.6420409642667337  0.581259914466898  1.0000
  C   C34       1.0  0.10946052171519939  0.6093131529958172  0.6668875611980098  1.0000
  C   C35       1.0  0.16832445277786687  0.668209788509337  0.6087664894450028  1.0000
  C   C36       1.0  0.08324278919499759  0.5833984967713448  0.6399104441047286  1.0000
  C   C37       1.0  0.3044637486781597  0.45597122190187633  0.40103638894575505  1.0000
  C   C38       1.0  0.44581545522039784  0.2974643107348811  0.3490645845698451  1.0000
  C   C39       1.0  0.2585222464932285  0.416444448235069  0.4139373340989039  1.0000
  C   C40       1.0  0.4911381142227781  0.3367798279993934  0.33629316064000403  1.0000
  C   C41       1.0  0.3777685607751166  0.3406120923990272  0.3726614021522607  1.0000
  C   C42       1.0  0.37273882523941637  0.4122310650668553  0.37737690381366923  1.0000
  C   C43       1.0  0.7264401822950858  0.5755535265998476  0.6303658982270904  1.0000
  C   C44       1.0  0.5242861212094497  0.6736018199238031  0.6213568298296509  1.0000
  C   C45       1.0  0.7424102930476124  0.5852184170240877  0.5876090508747751  1.0000
  C   C46       1.0  0.5086139244394515  0.6640485145010192  0.6637058543443004  1.0000
  C   C47       1.0  0.6035721707986496  0.6414200866771652  0.6090598956494874  1.0000
  C   C48       1.0  0.6467123233632605  0.6079018161600658  0.6425062280680792  1.0000
  C   C49       1.0  0.075835424154242  0.22604317473209784  0.630190763568038  1.0000
  C   C50       1.0  0.17363106914233836  0.02419919307352103  0.6216906247612428  1.0000
  C   C51       1.0  0.08565871947570258  0.2419791727406562  0.5874045706678785  1.0000
  C   C52       1.0  0.16387482835703077  0.008528014299848532  0.6640535657606604  1.0000
  C   C53       1.0  0.14166160825092788  0.10333359993749983  0.6092191217021182  1.0000
  C   C54       1.0  0.1080832746376643  0.1464385658755631  0.6425283766222237  1.0000
  C   C55       1.0  0.8418921655548812  0.8006792434433053  0.3971381266298835  1.0000
  C   C56       1.0  0.9042024451959281  0.9494101879349018  0.35264229696809224  1.0000
  C   C57       1.0  0.9108408963464  0.7584150931094632  0.4137044301839269  1.0000
  C   C58       1.0  0.8357769141540885  0.9912279499461575  0.33636524981739063  1.0000
  C   C59       1.0  0.9067602776426539  0.8798846332783585  0.37474539125615547  1.0000
  C   C60       1.0  0.8398670147019446  0.8702627305825955  0.37482028423410446  1.0000
  C   C61       1.0  0.6528905428083148  0.1527121015380006  0.15169727238464498  1.0000
  C   C62       1.0  0.5987786898389373  0.09890919298590722  0.09803804147199463  1.0000
  C   C63       1.0  0.6684887486129512  0.16859353624533935  0.1084176560636507  1.0000
  C   C64       1.0  0.5829675304585179  0.08308423930810699  0.14087931687677718  1.0000
  C   C65       1.0  0.6410055939239996  0.1411878900072808  0.08204873708127282  1.0000
  C   C66       1.0  0.6099517445482404  0.1099304784172547  0.16704438586550913  1.0000
  C   C67       1.0  0.6745399588995937  0.5234141192617443  0.11957320984356562  1.0000
  C   C68       1.0  0.5767422893721417  0.7252304986522518  0.12837795072933733  1.0000
  C   C69       1.0  0.6647785155052545  0.5072340411458571  0.16234513114689256  1.0000
  C   C70       1.0  0.5863756149666128  0.7412393922587629  0.08602837759458032  1.0000
  C   C71       1.0  0.6086854963968591  0.6460096404891973  0.14070907813552944  1.0000
  C   C72       1.0  0.6422376398550966  0.6030840414513251  0.10732582984923054  1.0000
  C   C73       1.0  0.08251328362593567  0.12315464064335659  0.17869488688387483  1.0000
  C   C74       1.0  0.1704062516734339  0.12466521218299682  0.0731208629734965  1.0000
  C   C75       1.0  0.010350068514931398  0.1621470844475894  0.1653474879425545  1.0000
  C   C76       1.0  0.24176284670090098  0.08603175581858126  0.08649416214908  1.0000
  C   C77       1.0  0.11216647289913338  0.13834340371604983  0.10658162943411043  1.0000
  C   C78       1.0  0.14064333105114457  0.10966089483676458  0.14490081771828764  1.0000
  C   C79       1.0  0.34623733377509325  0.8495172893812397  0.8476887513229345  1.0000
  C   C80       1.0  0.400694233561019  0.9024827092547126  0.9015431919526125  1.0000
  C   C81       1.0  0.30116864070876653  0.922008307811872  0.8614388704822106  1.0000
  C   C82       1.0  0.4456360556625113  0.8305159170942531  0.8881029093202527  1.0000
  C   C83       1.0  0.3293233305032928  0.9476225095649297  0.8883517515137099  1.0000
  C   C84       1.0  0.4182095184781716  0.8049901690875673  0.8615103857965494  1.0000
  C   C85       1.0  0.4079494025896437  0.44893156941164847  0.8528922455949369  1.0000
  C   C86       1.0  0.34555135407285315  0.30036823497656673  0.8975247373282328  1.0000
  C   C87       1.0  0.3390029704655646  0.49118238218267163  0.8363244482615642  1.0000
  C   C88       1.0  0.41395229162150565  0.25859519704635403  0.9138166621512057  1.0000
  C   C89       1.0  0.34308637599929875  0.3697482778851083  0.8752904191374783  1.0000
  C   C90       1.0  0.41000483399300686  0.3793429093340564  0.8751833876303581  1.0000
  C   C91       1.0  0.9452926523563363  0.7937251936727917  0.8490547370383512  1.0000
  C   C92       1.0  0.8040963677428793  0.9523760285667391  0.9010069448178084  1.0000
  C   C93       1.0  0.9912953690530769  0.8331555965964199  0.8361054980085569  1.0000
  C   C94       1.0  0.7586062122986518  0.9132336923547446  0.9137134313254478  1.0000
  C   C95       1.0  0.872145597909487  0.9090844578583486  0.8774462374920378  1.0000
  C   C96       1.0  0.877069878205205  0.8375058233868845  0.8727353428722611  1.0000
  S   S1        1.0  0.2988850036627325  0.3266382047872869  0.39722534087553635  1.0000
  S   S2        1.0  0.4515924777743904  0.42646738764926795  0.35280558859629  1.0000
  S   S3        1.0  0.6605210315062422  0.6333312151560688  0.5626640146440779  1.0000
  S   S4        1.0  0.5898350390464273  0.6158560128946888  0.6890221008980717  1.0000
  S   S5        1.0  0.1337939248547002  0.16016734531390855  0.5627128742960109  1.0000
  S   S6        1.0  0.11576426747435417  0.08965798457180804  0.6891464753740594  1.0000
  S   S7        1.0  0.9723702095002408  0.8036632760575911  0.4019583281421504  1.0000
  S   S8        1.0  0.7739518985467343  0.9465827154187849  0.34770036701919343  1.0000
  S   S9        1.0  0.6165257275019725  0.588944728102227  0.1871499273334507  1.0000
  S   S10       1.0  0.6343890410297774  0.6602223835930735  0.06079781564842786  1.0000
  S   S11       1.0  0.0140254929906689  0.1819430145990779  0.1118820870998931  1.0000
  S   S12       1.0  0.2388637135479996  0.06588560483164936  0.1397857490206817  1.0000
  S   S13       1.0  0.2774987793229968  0.44593420366993536  0.8480522399522599  1.0000
  S   S14       1.0  0.4759146598457845  0.303080616364774  0.9023353734021667  1.0000
  S   S15       1.0  0.9510817518234801  0.9229322201640362  0.8528693666541826  1.0000
  S   S16       1.0  0.79805548604795  0.8234981615969801  0.8972469384244592  1.0000
  O   O1        1.0  0.00048373509996220025  0.4988980008826259  0.50025001037406  1.0000
  O   O2        1.0  0.07827832422724158  0.3148181193407282  0.5231658644799779  1.0000
  O   O3        1.0  0.0315561087413414  0.5316093802898224  0.5853079996514835  1.0000
  O   O4        1.0  0.1553868775414884  0.5068656022386906  0.45008738180877816  1.0000
  O   O5        1.0  0.026648113753274996  0.374744141233016  0.5811738815104306  1.0000
  O   O6        1.0  0.15416026264966828  0.39247105642440516  0.4465586394170629  1.0000
  O   O7        1.0  0.0846392579918955  0.5866805324329436  0.5301691102555566  1.0000
  O   O8        1.0  0.0027969345536150002  0.6583276328925366  0.4501566252937224  1.0000
  O   O9        1.0  0.8869946702606696  0.496159826478916  0.4427660002475448  1.0000
  O   O10       1.0  0.8903460475798183  0.6520666122195208  0.44714110323888434  1.0000
  O   O11       1.0  0.9964069389736068  0.3874891744737782  0.44201309110239617  1.0000
  O   O12       1.0  0.875604923839873  0.5264303283097078  0.5813489669261074  1.0000
  O   O13       1.0  0.814735425251186  0.5765961478611389  0.5234352458278195  1.0000
  O   O14       1.0  0.7501138237013051  0.2504351983810764  0.25069966818993816  1.0000
  O   O15       1.0  0.59672663464017  0.35836528185027566  0.3028929698673011  1.0000
  O   O16       1.0  0.6647037409508911  0.16468646602914566  0.21908122752257242  1.0000
  O   O17       1.0  0.7254497671046137  0.37414783783754785  0.16889997757193945  1.0000
  O   O18       1.0  0.592824276662405  0.24494241733678745  0.3000787220219365  1.0000
  O   O19       1.0  0.6725179610996362  0.43472689037245976  0.22660031460702607  1.0000
  O   O20       1.0  0.7207200879703705  0.2185732216147899  0.1648401180757517  1.0000
  O   O21       1.0  0.8778657765060699  0.2221243861139755  0.16948199222073865  1.0000
  O   O22       1.0  0.8617329792096838  0.25491129208653274  0.309466163424851  1.0000
  O   O23       1.0  0.9341201753600499  0.17246347216065086  0.2288865619778022  1.0000
  O   O24       1.0  0.7531491224578488  0.36471609115815073  0.3082495197201141  1.0000
  O   O25       1.0  0.7448769307142057  0.093602526616536  0.2999825913440546  1.0000
  O   O26       1.0  0.8582161293601586  0.09706488774381247  0.30421590781697455  1.0000
  O   O27       1.0  0.2498899712845953  0.7490729363706593  0.7496325233797734  1.0000
  O   O28       1.0  0.37550472444546296  0.7250466784173354  0.6685607071853994  1.0000
  O   O29       1.0  0.3621676294488624  0.7551867941803967  0.8077966657593406  1.0000
  O   O30       1.0  0.1723295270192651  0.9331331186589227  0.727671392977733  1.0000
  O   O31       1.0  0.43374994458533667  0.6738767775946285  0.7273135296212061  1.0000
  O   O32       1.0  0.2245737961184773  0.8756932341140952  0.6689280842321209  1.0000
  O   O33       1.0  0.25195426219621453  0.8629371989359812  0.8079877022007836  1.0000
  O   O34       1.0  0.09537402993556299  0.857417117095771  0.8036171285902327  1.0000
  O   O35       1.0  0.16597633835186087  0.663011337437915  0.7181862519253173  1.0000
  O   O36       1.0  0.09452451074611899  0.7431342348973545  0.7994935672891117  1.0000
  O   O37       1.0  0.2190388754715187  0.7194305244112089  0.6635120174011959  1.0000
  O   O38       1.0  0.3595581842837631  0.5975022497242577  0.8032850003180486  1.0000
  O   O39       1.0  0.24709282238134014  0.5914521680310544  0.7998812653665155  1.0000
  O   O40       1.0  0.4999056713320869  0.00019037107524156113  0.9999652649220466  1.0000
  O   O41       1.0  0.5051216427608551  0.1560459290656268  0.9498683816586039  1.0000
  O   O42       1.0  0.38622779305377003  0.9966338983631929  0.9414074929183724  1.0000
  O   O43       1.0  0.6526607245040736  0.8920108025763157  0.946707272513109  1.0000
  O   O44       1.0  0.39089614613171614  0.1534806089277083  0.9467531644546126  1.0000
  O   O45       1.0  0.6567896818482096  0.005210711641034047  0.9497903210400691  1.0000
  O   O46       1.0  0.4953726114643259  0.8874490086312717  0.9413162088003447  1.0000
  O   O47       1.0  0.5770262756958572  0.8165307874374719  0.02238300699109891  1.0000
  O   O48       1.0  0.5318584013099822  0.031546444463522616  0.0856550537640501  1.0000
  O   O49       1.0  0.5261501630934402  0.8743229738565009  0.08108062698804731  1.0000
  O   O50       1.0  0.5864070675112955  0.08609651126804614  0.030824126169832787  1.0000
  O   O51       1.0  0.3156123583690231  0.0779836608631825  0.022337651753794305  1.0000
  O   O52       1.0  0.37482544446574906  0.025813108508337748  0.08073563172538908  1.0000
  O   O53       1.0  0.7824177610010848  0.5179751460409252  0.400004830251916  1.0000
  O   O54       1.0  0.15939197526579107  0.6592325578033211  0.5407018168781477  1.0000
  O   O55       1.0  0.7088643604134076  0.20922790221192125  0.09108525372624852  1.0000
  O   O56       1.0  0.23172551907131114  0.9681671956450585  0.8497802481674411  1.0000
  O   O57       1.0  0.2850681331393119  0.5267313054190127  0.4103334070721799  1.0000
  O   O58       1.0  0.7809525736997925  0.5397736673365262  0.6562132309711258  1.0000
  O   O59       1.0  0.040063369367288694  0.28048017605578934  0.6558797018163461  1.0000
  O   O60       1.0  0.7852801944612152  0.7770290329492229  0.4022432573745292  1.0000
  O   O61       1.0  0.7103849258063589  0.4689849065644083  0.0938845352857953  1.0000
  O   O62       1.0  0.09399238894007308  0.10159860593983443  0.2188684394586105  1.0000
  O   O63       1.0  0.46466206996368703  0.47249467744154583  0.8478672862805183  1.0000
  O   O64       1.0  0.9646717550065558  0.7229658296757012  0.8397546279584275  1.0000
