data_image0
_chemical_formula_structural       Cu4H52C84N16O16
_chemical_formula_sum              "Cu4 H52 C84 N16 O16"
_cell_length_a       10.218056941607564
_cell_length_b       12.867196255238024
_cell_length_c       21.085839219585957
_cell_angle_alpha    90.00024369109371
_cell_angle_beta     89.99883248583095
_cell_angle_gamma    90.00092097713316

_space_group_name_H-M_alt    "P 1"
_space_group_IT_number       1

loop_
  _space_group_symop_operation_xyz
  'x, y, z'

loop_
  _atom_site_type_symbol
  _atom_site_label
  _atom_site_symmetry_multiplicity
  _atom_site_fract_x
  _atom_site_fract_y
  _atom_site_fract_z
  _atom_site_occupancy
  Cu  Cu1       1.0  0.2943573462493703  0.09217342075061909  0.9999981573054271  1.0000
  Cu  Cu2       1.0  0.2056561370315252  0.5921872999336769  0.49999356201134043  1.0000
  Cu  Cu3       1.0  0.7056543053484674  0.9078304577572283  0.9999999629423825  1.0000
  Cu  Cu4       1.0  0.7943253713352973  0.4078149274906692  0.4999978820567391  1.0000
  H   H1        1.0  0.0363697580886324  0.11775207377298359  9.513127424e-07  1.0000
  H   H2        1.0  0.499869155989039  0.6724979075316212  0.3914515418577267  1.0000
  H   H3        1.0  0.9964592108071885  0.7875774553282254  0.21831239042892042  1.0000
  H   H4        1.0  0.9998664874235318  0.8275085576516898  0.8914441967458089  1.0000
  H   H5        1.0  0.5001270330590158  0.327529966579732  0.6085546038309531  1.0000
  H   H6        1.0  0.0035643792635652997  0.21240067968357573  0.7816714650699906  1.0000
  H   H7        1.0  0.1242248734625662  0.4312835816902662  0.2603679161874908  1.0000
  H   H8        1.0  0.5162430699918589  0.7868367024555667  0.1738479413497771  1.0000
  H   H9        1.0  0.3758017991802447  0.9313390216344073  0.2396261065581271  1.0000
  H   H10       1.0  0.39312757105826535  0.8558726515305749  0.3477041093355524  1.0000
  H   H11       1.0  0.8456990697899445  0.4819161930064552  0.356195023539513  1.0000
  H   H12       1.0  0.15429516171978014  0.5181023550678816  0.6438111221746752  1.0000
  H   H13       1.0  0.5035713738721554  0.287612950837186  0.7183173257768942  1.0000
  H   H14       1.0  0.6542842827219532  0.9819222186866338  0.1437994579191511  1.0000
  H   H15       1.0  0.6068696946270224  0.14411264980392957  0.3477127841281913  1.0000
  H   H16       1.0  0.49642872979537606  0.7124125917760721  0.2816916653733088  1.0000
  H   H17       1.0  0.1542944939866544  0.5180715602332383  0.3561986664026691  1.0000
  H   H18       1.0  0.5035981993842995  0.2875865394844652  0.28169775794255253  1.0000
  H   H19       1.0  0.624224075685959  0.06864163814698539  0.2396362407009747  1.0000
  H   H20       1.0  0.3457509344575556  0.018043092743724298  0.1437811658604176  1.0000
  H   H21       1.0  0.4964244128247089  0.7124055848565405  0.718323563470932  1.0000
  H   H22       1.0  0.9998694021404972  0.8274967885097907  0.108543415357822  1.0000
  H   H23       1.0  0.375775048110505  0.9313419371559204  0.760354728890249  1.0000
  H   H24       1.0  0.00013950865271539998  0.1725015530349623  0.8914518223746909  1.0000
  H   H25       1.0  0.1069170868435521  0.35579709760663286  0.1522975080258249  1.0000
  H   H26       1.0  0.5001213766153967  0.3274911229709758  0.39146341050013683  1.0000
  H   H27       1.0  0.9836939301904694  0.2868366804586984  0.3261731164266592  1.0000
  H   H28       1.0  0.10689350434392957  0.35586342552738176  0.8477192009455337  1.0000
  H   H29       1.0  0.0162939881560575  0.7131599729561771  0.3261641543552258  1.0000
  H   H30       1.0  0.1242367510067055  0.43134837682173804  0.7396488161206634  1.0000
  H   H31       1.0  0.4998806839872643  0.6725165447465145  0.6085484261373963  1.0000
  H   H32       1.0  0.845687992641615  0.4819089064906378  0.6438017884405696  1.0000
  H   H33       1.0  0.6242080905629451  0.0686686459897103  0.760374822184609  1.0000
  H   H34       1.0  0.0035553652020894003  0.21241922277984313  0.21832466752455557  1.0000
  H   H35       1.0  0.9964290797612706  0.7876039883013988  0.7816767357955284  1.0000
  H   H36       1.0  0.5363461735433219  0.38225821725716014  0.5000087775871407  1.0000
  H   H37       1.0  0.5162669002898072  0.7868351108439241  0.8261691437787206  1.0000
  H   H38       1.0  0.4837762634564129  0.213145355880215  0.1738488576083697  1.0000
  H   H39       1.0  0.00015025250635150003  0.17248278935973355  0.1085529378944159  1.0000
  H   H40       1.0  0.9636381741485069  0.8822509307909172  0.9999938121801718  1.0000
  H   H41       1.0  0.016264090738729902  0.7131795361122283  0.6738235447130662  1.0000
  H   H42       1.0  0.39311768518531665  0.8558654853660453  0.6522829281331183  1.0000
  H   H43       1.0  0.893121182891349  0.6441616082508118  0.8477043688592615  1.0000
  H   H44       1.0  0.6068578523202319  0.1441381248542228  0.6523010879880076  1.0000
  H   H45       1.0  0.8930850681632095  0.6441395791302326  0.1522803054429858  1.0000
  H   H46       1.0  0.4636421860687961  0.6177618851828156  0.49999926520996507  1.0000
  H   H47       1.0  0.34569429002677055  0.0180986607820302  0.856185820910582  1.0000
  H   H48       1.0  0.4837482256357006  0.2131849543185709  0.8261601014096271  1.0000
  H   H49       1.0  0.8757801220952144  0.568688336093075  0.7396292186041222  1.0000
  H   H50       1.0  0.9837119861862151  0.28682282513236146  0.6738225468808351  1.0000
  H   H51       1.0  0.6542853780472413  0.9819264934047354  0.8562074319951449  1.0000
  H   H52       1.0  0.8757555230326235  0.5686655082125539  0.2603540098552912  1.0000
  C   C1        1.0  0.9049359161017066  0.23945342019010946  0.3066349483314639  1.0000
  C   C2        1.0  0.09503286985820843  0.7605526931544161  0.6933626611746178  1.0000
  C   C3        1.0  0.18579432859899472  0.8634605423623398  0.7797407917989716  1.0000
  C   C4        1.0  0.7298283891264249  0.7747849034353534  0.09450902146667771  1.0000
  C   C5        1.0  0.8228473468365821  0.09565451213506289  0.8443916960230808  1.0000
  C   C6        1.0  0.30687333110994797  0.8414905533965747  0.6814168560853133  1.0000
  C   C7        1.0  0.796226615104743  0.6164078752973693  0.24186299561248598  1.0000
  C   C8        1.0  0.6931101342102509  0.15849457630208258  0.318577433470054  1.0000
  C   C9        1.0  0.2962458548747975  0.8835988561352719  0.7418627704582832  1.0000
  C   C10       1.0  0.9155011597095071  0.12069730272951767  0.10945793778208208  1.0000
  C   C11       1.0  0.2925462914679642  0.2780667336581927  0.8431853478552824  1.0000
  C   C12       1.0  0.22987011759483525  0.7252365443104763  0.4054819492828372  1.0000
  C   C13       1.0  0.18582255111651594  0.8634488030470421  0.22024349671453788  1.0000
  C   C14       1.0  0.5844920328857839  0.6974450769820137  0.7460296561010153  1.0000
  C   C15       1.0  0.2701918925033339  0.22518981240346386  0.0945234736664275  1.0000
  C   C16       1.0  0.6771441059273401  0.595646747191168  0.344385460026956  1.0000
  C   C17       1.0  0.7074653461669271  0.7219527956911589  0.8431785873204872  1.0000
  C   C18       1.0  0.7037368203460872  0.11640835602932499  0.7418775011399106  1.0000
  C   C19       1.0  0.8228485047933418  0.09564807346642107  0.155613324459857  1.0000
  C   C20       1.0  0.3068893376417278  0.8414973063465536  0.3185690735110285  1.0000
  C   C21       1.0  0.6771538769993697  0.5956606117085812  0.6556104451550269  1.0000
  C   C22       1.0  0.7962516774560557  0.6164278567881637  0.7581260610824643  1.0000
  C   C23       1.0  0.6857848428280421  0.6365479555139758  0.2797462317808979  1.0000
  C   C24       1.0  0.7391837431763691  0.0228497336545601  0.1257132899233255  1.0000
  C   C25       1.0  0.22984410429326374  0.7252324445834829  0.5945040681389102  1.0000
  C   C26       1.0  0.8068757953433234  0.658529898692521  0.8185740743480139  1.0000
  C   C27       1.0  0.915493420131533  0.19743887011954797  0.7539663108132046  1.0000
  C   C28       1.0  0.27016388497317223  0.22523053595256204  0.9054957015169407  1.0000
  C   C29       1.0  0.6931058721706834  0.15850958412743668  0.6814304326640936  1.0000
  C   C30       1.0  0.20376370157921295  0.38360523256076107  0.7581384076327923  1.0000
  C   C31       1.0  0.20376701956005416  0.3835502783715298  0.2418772388083923  1.0000
  C   C32       1.0  0.31422050667120527  0.36343094180490704  0.2797562229729067  1.0000
  C   C33       1.0  0.8141950091048499  0.13654246223961047  0.22025397193225874  1.0000
  C   C34       1.0  0.09505836340245821  0.7605452876262575  0.3066268086345687  1.0000
  C   C35       1.0  0.7608044692089566  0.5228446031597541  0.37428265568194513  1.0000
  C   C36       1.0  0.7298512709525583  0.7747813282392996  0.9054888366978915  1.0000
  C   C37       1.0  0.4155325363581284  0.3025377212769769  0.2539864485165566  1.0000
  C   C38       1.0  0.26084514915739737  0.9771254245028304  0.1256966132897688  1.0000
  C   C39       1.0  0.1771713503349304  0.9043360576686368  0.1556006960727672  1.0000
  C   C40       1.0  0.4638769410860277  0.44583320994928494  0.500004012482961  1.0000
  C   C41       1.0  0.9049417393881498  0.23945227673952726  0.6933646351954081  1.0000
  C   C42       1.0  0.9154982222005899  0.12070595033079459  0.8905451797802542  1.0000
  C   C43       1.0  0.41548496645628313  0.37931765195749273  0.6094591362247569  1.0000
  C   C44       1.0  0.20746222228182637  0.7780665089241693  0.6568129942671632  1.0000
  C   C45       1.0  0.760804683023622  0.5228479404579146  0.625712060263659  1.0000
  C   C46       1.0  0.7391843129607878  0.022853487707393993  0.8742929331570365  1.0000
  C   C47       1.0  0.9638919671516959  0.05417999430883919  0.9999999745499224  1.0000
  C   C48       1.0  0.7701143267806432  0.27476568312467714  0.5945118660072737  1.0000
  C   C49       1.0  0.2608065734193232  0.9771649284731154  0.8742781540313018  1.0000
  C   C50       1.0  0.5845033930357246  0.6207001189352397  0.3905436898011986  1.0000
  C   C51       1.0  0.7925075566470599  0.22193794264845923  0.6568202230535789  1.0000
  C   C52       1.0  0.3228530766663837  0.40434083858777825  0.3443942776410863  1.0000
  C   C53       1.0  0.08451166720388412  0.8792908368650529  0.10944910943592129  1.0000
  C   C54       1.0  0.6857991693500693  0.6365596281044075  0.7202513451722368  1.0000
  C   C55       1.0  0.2391829115992081  0.4771723905615345  0.6257196961046533  1.0000
  C   C56       1.0  0.292572923954225  0.2780167906214501  0.15683372310661528  1.0000
  C   C57       1.0  0.4155112987782418  0.30257773754011197  0.7460304168852545  1.0000
  C   C58       1.0  0.08449053678894812  0.802568513581889  0.7539641290944346  1.0000
  C   C59       1.0  0.322845232248504  0.40437180087300806  0.6556178402383566  1.0000
  C   C60       1.0  0.7074410893580209  0.7219502600731786  0.1568184266871171  1.0000
  C   C61       1.0  0.08450775114397403  0.8793025931688517  0.8905391969580947  1.0000
  C   C62       1.0  0.23918269713974644  0.4771418523070493  0.374289817272242  1.0000
  C   C63       1.0  0.5950359006237137  0.7394631857643644  0.8066303795211596  1.0000
  C   C64       1.0  0.03611400780222599  0.9458237874392381  0.9999962117238396  1.0000
  C   C65       1.0  0.7037454398202174  0.11639093656114602  0.2581305704926606  1.0000
  C   C66       1.0  0.29627013335194624  0.8835977572438194  0.2581210563808654  1.0000
  C   C67       1.0  0.9154880359321426  0.19744537143336763  0.2460320575300656  1.0000
  C   C68       1.0  0.20748569571362205  0.7780658391155624  0.3431745406274445  1.0000
  C   C69       1.0  0.41549103156265943  0.3792943388593883  0.3905534548489058  1.0000
  C   C70       1.0  0.5950213677008663  0.7394666087289888  0.19337567992049287  1.0000
  C   C71       1.0  0.8141932102156988  0.1365472069599818  0.7797498439225521  1.0000
  C   C72       1.0  0.17714964091440072  0.9043580397944806  0.8443809649064136  1.0000
  C   C73       1.0  0.4050004124387669  0.2605157266168092  0.1933852506941349  1.0000
  C   C74       1.0  0.40496992787279845  0.26055427085488947  0.8066295173273517  1.0000
  C   C75       1.0  0.7925094993471548  0.2219271696829067  0.3431831924460552  1.0000
  C   C76       1.0  0.536109461110442  0.5541845609609054  0.5000007105758044  1.0000
  C   C77       1.0  0.1931371833270816  0.3414947219174067  0.8185848000478018  1.0000
  C   C78       1.0  0.19315366664150702  0.3414334702471748  0.1814339679248675  1.0000
  C   C79       1.0  0.5845120076644221  0.6207141059959154  0.6094541135086544  1.0000
  C   C80       1.0  0.7701246812048127  0.2747550166655657  0.4054916443602893  1.0000
  C   C81       1.0  0.31420840999827254  0.3634705925489143  0.7202580169381037  1.0000
  C   C82       1.0  0.5844858689048422  0.6974485822357863  0.2539766772948155  1.0000
  C   C83       1.0  0.08452038370015201  0.8025516996706229  0.2460227615818269  1.0000
  C   C84       1.0  0.806847261386679  0.6585176087860207  0.1814170775247064  1.0000
  N   N1        1.0  0.7781939858601136  0.003913417011581499  0.9336986538841144  1.0000
  N   N2        1.0  0.2218032821559319  0.9961019558488146  0.9336862956436889  1.0000
  N   N3        1.0  0.7217980350645021  0.5039071868791751  0.5663053927042228  1.0000
  N   N4        1.0  0.8851812948003187  0.06506249291394539  0.05669068760302309  1.0000
  N   N5        1.0  0.11482468017185711  0.9349420660042184  0.9433054986707035  1.0000
  N   N6        1.0  0.6148216232412693  0.5650643790606082  0.44330999652107295  1.0000
  N   N7        1.0  0.8851757647233571  0.06507111173493028  0.9433136864467357  1.0000
  N   N8        1.0  0.3851638002535439  0.43495261466804175  0.5566928295425413  1.0000
  N   N9        1.0  0.7781938850509322  0.0039119291014842  0.0663060967270397  1.0000
  N   N10       1.0  0.1148341247235649  0.934927229804451  0.056681077021302394  1.0000
  N   N11       1.0  0.2781831776978478  0.4961076385760064  0.5663106043172874  1.0000
  N   N12       1.0  0.7217993097331288  0.503906246471594  0.4336912732802318  1.0000
  N   N13       1.0  0.3851633582157064  0.4349347129512606  0.44331768829090384  1.0000
  N   N14       1.0  0.6148269584062618  0.5650737319132658  0.5566875089700503  1.0000
  N   N15       1.0  0.22182960446998126  0.9960717125847863  0.0662927896454022  1.0000
  N   N16       1.0  0.2781824946150451  0.4960880460937672  0.4336969591711579  1.0000
  O   O1        1.0  0.8426430807993981  0.7746080879597201  0.0709581216397979  1.0000
  O   O2        1.0  0.3688002009957145  0.1763612804709424  0.930660618371249  1.0000
  O   O3        1.0  0.1573746535995966  0.22537095691623676  0.0709759398478127  1.0000
  O   O4        1.0  0.6311940302966974  0.8236510502023648  0.0693398363200259  1.0000
  O   O5        1.0  0.157351150551996  0.22540346558722038  0.9290484983266367  1.0000
  O   O6        1.0  0.8426665526040723  0.7746032924075125  0.9290358962895269  1.0000
  O   O7        1.0  0.3688246420948076  0.1763279716515527  0.0693479706769438  1.0000
  O   O8        1.0  0.13123213662372282  0.6763692468892016  0.43065034297273286  1.0000
  O   O9        1.0  0.1312064715411339  0.6763717847306336  0.5693344131945324  1.0000
  O   O10       1.0  0.6573080238713658  0.2745774425765716  0.4290411214725651  1.0000
  O   O11       1.0  0.8687503502393314  0.32362754032237706  0.5693382555714592  1.0000
  O   O12       1.0  0.6572961009418564  0.27459321526781366  0.5709667034769339  1.0000
  O   O13       1.0  0.34268540754464993  0.7254105665437863  0.4290313801181327  1.0000
  O   O14       1.0  0.3426627187872455  0.725402246981076  0.5709564880096281  1.0000
  O   O15       1.0  0.6312165640859533  0.8236478319787324  0.9306591229409946  1.0000
  O   O16       1.0  0.8687593781677663  0.32362577970861384  0.43065750532637986  1.0000
