data_image0
_chemical_formula_structural       K4H16C16N36O20
_chemical_formula_sum              "K4 H16 C16 N36 O20"
_cell_length_a       6.651182351000984
_cell_length_b       9.899366337850267
_cell_length_c       16.48502041946152
_cell_angle_alpha    107.18658025300734
_cell_angle_beta     89.99995717540111
_cell_angle_gamma    90.00005421357928

_space_group_name_H-M_alt    "P 1"
_space_group_IT_number       1

loop_
  _space_group_symop_operation_xyz
  'x, y, z'

loop_
  _atom_site_type_symbol
  _atom_site_label
  _atom_site_symmetry_multiplicity
  _atom_site_fract_x
  _atom_site_fract_y
  _atom_site_fract_z
  _atom_site_occupancy
  K   K1        1.0  0.08561463724979032  0.7855198122302341  0.8434701234712635  1.0000
  K   K2        1.0  0.5856175866466417  0.7144820727345973  0.6565309189091834  1.0000
  K   K3        1.0  0.9143832974035178  0.2144805360830944  0.1565297183337222  1.0000
  K   K4        1.0  0.41437884451351453  0.2855193346018936  0.3434709303288841  1.0000
  H   H1        1.0  0.6650017357683212  0.8054250167180543  0.9850099028719017  1.0000
  H   H2        1.0  0.16500526594397516  0.6945747964765873  0.5149907479100193  1.0000
  H   H3        1.0  0.3349961988899892  0.1945806163044637  0.01498844863721871  1.0000
  H   H4        1.0  0.8349956756874093  0.3054202682240188  0.485011797607406  1.0000
  H   H5        1.0  0.7823116148335032  0.6391001779618578  0.9578450386893922  1.0000
  H   H6        1.0  0.282313822767776  0.8608996982104529  0.5421549802880891  1.0000
  H   H7        1.0  0.217689326807843  0.3609033403012845  0.04215293820424652  1.0000
  H   H8        1.0  0.717690125849984  0.13909748015551324  0.4578467264272845  1.0000
  H   H9        1.0  0.0456425388450086  0.48330156600929547  0.8976842111733632  1.0000
  H   H10       1.0  0.5456453121659665  0.0167003016770124  0.6023164076540864  1.0000
  H   H11       1.0  0.9543568993009474  0.5166998396845417  0.10231581793905063  1.0000
  H   H12       1.0  0.4543571329630467  0.9833000471853663  0.39768404085886294  1.0000
  H   H13       1.0  0.9326307809030114  0.4947464653548935  0.8161125215493144  1.0000
  H   H14       1.0  0.43262923450421203  0.005253496584778401  0.6838870331664852  1.0000
  H   H15       1.0  0.0673686572412535  0.5052517681986544  0.18388694564035293  1.0000
  H   H16       1.0  0.5673702036406355  0.9947468522767836  0.3161134153467843  1.0000
  C   C1        1.0  0.607417057909018  0.5620881134688959  0.16223592446709031  1.0000
  C   C2        1.0  0.10741733665249599  0.9379105281454586  0.33776382124416676  1.0000
  C   C3        1.0  0.3925838837284417  0.4379111769173391  0.8377631233215511  1.0000
  C   C4        1.0  0.8925851084754087  0.062088763884645494  0.6622370466696453  1.0000
  C   C5        1.0  0.6236850152183351  0.6915625058602543  0.06960041883510831  1.0000
  C   C6        1.0  0.12368795497909701  0.8084350871841792  0.43039913608807734  1.0000
  C   C7        1.0  0.37631592642681966  0.3084399506402207  0.9303925170833837  1.0000
  C   C8        1.0  0.8763159936331776  0.1915599808041719  0.5696070496796963  1.0000
  C   C9        1.0  0.4803240584592388  0.7921728410761446  0.12444800066020895  1.0000
  C   C10       1.0  0.9803266042802433  0.7078249456438003  0.375552084675576  1.0000
  C   C11       1.0  0.51967838667197  0.2078285635228596  0.8755508150349911  1.0000
  C   C12       1.0  0.019678847830164204  0.29217329010266724  0.6244498093472259  1.0000
  C   C13       1.0  0.4059945230909747  0.9163557664732592  0.10195121354165339  1.0000
  C   C14       1.0  0.9059983600500772  0.5836419805437956  0.39804949440377163  1.0000
  C   C15       1.0  0.5940019080713627  0.0836456386719391  0.8980482088626333  1.0000
  C   C16       1.0  0.09400258158407133  0.4163551972735391  0.6019516056034817  1.0000
  N   N1        1.0  0.6361547015947764  0.4624970088650215  0.20117875511468242  1.0000
  N   N2        1.0  0.13615449636640162  0.0375016532263714  0.2988211590529559  1.0000
  N   N3        1.0  0.3638477435380524  0.5375033361626008  0.798817446439152  1.0000
  N   N4        1.0  0.8638479487593146  0.9624976409950251  0.70118213569463  1.0000
  N   N5        1.0  0.5272537273049096  0.5057658507406586  0.2742125997745292  1.0000
  N   N6        1.0  0.027252782119006703  0.9942327474631797  0.22578716308622407  1.0000
  N   N7        1.0  0.4727487178262494  0.4942323800745997  0.7257838338725904  1.0000
  N   N8        1.0  0.9727481595163071  0.005768660970169  0.7742158995682473  1.0000
  N   N9        1.0  0.43261949908752945  0.6247147203773339  0.28355172076880564  1.0000
  N   N10       1.0  0.9326180526425035  0.8752840984363887  0.21644916878888415  1.0000
  N   N11       1.0  0.5673799390583555  0.37528245360483947  0.7164451322795032  1.0000
  N   N12       1.0  0.0673798820086589  0.12471836792406783  0.7835546878819386  1.0000
  N   N13       1.0  0.48116734744417045  0.6616693258197374  0.21306013823741676  1.0000
  N   N14       1.0  0.9811702334117741  0.838329518737055  0.2869401342255102  1.0000
  N   N15       1.0  0.5188335941954919  0.3383310203031229  0.7869372767334752  1.0000
  N   N16       1.0  0.018832211714496304  0.1616697749365201  0.7130625538136357  1.0000
  N   N17       1.0  0.6845583042750009  0.5765769074354382  0.09047804694267826  1.0000
  N   N18       1.0  0.1845629442390191  0.9234217759537632  0.40952168226526453  1.0000
  N   N19       1.0  0.3154426373630345  0.4234244982588038  0.9095219821695723  1.0000
  N   N20       1.0  0.8154410043809436  0.07657645814883551  0.5904783916323595  1.0000
  N   N21       1.0  0.4123360713393184  0.7763050396856103  0.1957553472477258  1.0000
  N   N22       1.0  0.912338767513127  0.7236937681453242  0.30424554664875814  1.0000
  N   N23       1.0  0.5876633668093447  0.22369530534120222  0.8042408543064355  1.0000
  N   N24       1.0  0.08766367761204921  0.27630552662389357  0.695758354807275  1.0000
  N   N25       1.0  0.6940115392368752  0.7142675404234781  0.9996487228054607  1.0000
  N   N26       1.0  0.19401522191705572  0.785733345312913  0.5003515023695045  1.0000
  N   N27       1.0  0.3059848919227477  0.285734925388745  0.0003545271570715191  1.0000
  N   N28       1.0  0.8059842162305203  0.2142670008095422  0.49964591260155095  1.0000
  N   N29       1.0  0.28351860057297534  0.8898535667214702  0.030526870222985347  1.0000
  N   N30       1.0  0.7835208421108676  0.6101462276363276  0.4694730251221984  1.0000
  N   N31       1.0  0.7164793340819884  0.11014783787631188  0.969471945472698  1.0000
  N   N32       1.0  0.21647859603230302  0.38985200701286976  0.5305276554843559  1.0000
  N   N33       1.0  0.44553722464967654  0.05180899779718831  0.1524919072341007  1.0000
  N   N34       1.0  0.9455371466022341  0.448189831283777  0.3475073340388023  1.0000
  N   N35       1.0  0.5544607100041788  0.9481913499683261  0.8475073278624451  1.0000
  N   N36       1.0  0.05446229154259191  0.551809459649874  0.6524923204584496  1.0000
  O   O1        1.0  0.23686443689455672  0.9837706086322484  0.9961689541592379  1.0000
  O   O2        1.0  0.736867386894339  0.5162281860973579  0.5038314939415544  1.0000
  O   O3        1.0  0.7631304907768028  0.016231853344820003  0.003830048844349702  1.0000
  O   O4        1.0  0.2631305477561909  0.48376899117133826  0.49616899935757897  1.0000
  O   O5        1.0  0.22878902509926752  0.7627730909965394  0.9994053165287867  1.0000
  O   O6        1.0  0.7287892797622462  0.7372256988115069  0.5005945265914208  1.0000
  O   O7        1.0  0.7712104130488912  0.2372293704339299  0.0005930797658705966  1.0000
  O   O8        1.0  0.2712116618719023  0.26277147900582787  0.4994065734158326  1.0000
  O   O9        1.0  0.35807015198247427  0.15886831789937622  0.1429235595325267  1.0000
  O   O10       1.0  0.8580684050630156  0.3411304649114584  0.3570769138692996  1.0000
  O   O11       1.0  0.6419277826713811  0.841132029866138  0.857075675564019  1.0000
  O   O12       1.0  0.14192802609599653  0.658867769736922  0.6429237667375816  1.0000
  O   O13       1.0  0.5757696652156526  0.06524740301136941  0.21121326149855693  1.0000
  O   O14       1.0  0.07577002777590278  0.434751225284721  0.28878545217032336  1.0000
  O   O15       1.0  0.42422676594723197  0.9347540015860074  0.7887855541972899  1.0000
  O   O16       1.0  0.9242279068757356  0.565247008816243  0.7112146217279474  1.0000
  O   O17       1.0  0.9182032286657531  0.5136477641665351  0.877534094264803  1.0000
  O   O18       1.0  0.4182039621054941  0.9863532424259136  0.6224654762406489  1.0000
  O   O19       1.0  0.0817947059870008  0.48635152676671106  0.12246556023260519  1.0000
  O   O20       1.0  0.5817969795336495  0.013649220100603498  0.3775341334707393  1.0000
