data_image0
_chemical_formula_structural       ZnH22C24N4O10
_chemical_formula_sum              "Zn1 H22 C24 N4 O10"
_cell_length_a       7.313382720550124
_cell_length_b       7.835645025734354
_cell_length_c       11.151316303831415
_cell_angle_alpha    85.77422169467846
_cell_angle_beta     73.62515638270382
_cell_angle_gamma    62.73588240146001

_space_group_name_H-M_alt    "P 1"
_space_group_IT_number       1

loop_
  _space_group_symop_operation_xyz
  'x, y, z'

loop_
  _atom_site_type_symbol
  _atom_site_label
  _atom_site_symmetry_multiplicity
  _atom_site_fract_x
  _atom_site_fract_y
  _atom_site_fract_z
  _atom_site_occupancy
  Zn  Zn1       1.0  2.4819136999883698e-08  8.03682731000329e-07  0.5000003942674525  1.0000
  H   H1        1.0  0.14810620304787392  0.19063801056979202  0.6116895525804296  1.0000
  H   H2        1.0  0.8518906467747343  0.8093650445595201  0.3883110367224419  1.0000
  H   H3        1.0  0.9474547977077491  0.15859825115027348  0.6971985047075293  1.0000
  H   H4        1.0  0.05254420736888217  0.8414033605761306  0.3028017598766795  1.0000
  H   H5        1.0  0.07457000875717776  0.4564708212639276  0.2648596452819234  1.0000
  H   H6        1.0  0.9254304518027183  0.5435279129548647  0.7351405041751563  1.0000
  H   H7        1.0  0.3847933431214869  0.2186918017232813  0.815726802216794  1.0000
  H   H8        1.0  0.6152049587015682  0.7813083719126438  0.18427277606430445  1.0000
  H   H9        1.0  0.750664532292042  0.4979929283356484  0.5288769325359368  1.0000
  H   H10       1.0  0.24933732432657515  0.502008670106754  0.47112190184341785  1.0000
  H   H11       1.0  0.7508351198182978  0.7102512184771753  0.5778359854172025  1.0000
  H   H12       1.0  0.2491638817755232  0.28975038926344604  0.4221633832723485  1.0000
  H   H13       1.0  0.17414458845549777  0.6590969586536487  0.10577046246657318  1.0000
  H   H14       1.0  0.8258544480748071  0.3409017842000353  0.8942308500402659  1.0000
  H   H15       1.0  0.16346140359598854  0.8427769526745124  0.9602263145828048  1.0000
  H   H16       1.0  0.8365361739682412  0.15722466370099403  0.03977421715650564  1.0000
  H   H17       1.0  0.37084455266689537  0.9526538740595923  0.7386807123240615  1.0000
  H   H18       1.0  0.6291565762100858  0.0473491631366088  0.26131817961885423  1.0000
  H   H19       1.0  0.5781607578916663  0.35324620266275286  0.7042190760213103  1.0000
  H   H20       1.0  0.4218418089461479  0.6467568418416718  0.2957822364504707  1.0000
  H   H21       1.0  0.30308634210518187  0.011209643129575403  0.9800441882764589  1.0000
  H   H22       1.0  0.6969098009810253  0.9887919699234898  0.01995481882864415  1.0000
  C   C1        1.0  0.14659260228318516  0.4027193951412259  0.1669610400794213  1.0000
  C   C2        1.0  0.8534092892719158  0.5972793384142392  0.833039738117222  1.0000
  C   C3        1.0  0.2902113190101899  0.4488516411628965  0.9514148164560581  1.0000
  C   C4        1.0  0.7097891345840779  0.5511470850843381  0.0485835412117126  1.0000
  C   C5        1.0  0.3233362719404981  0.2682633914463821  0.9144478491884414  1.0000
  C   C6        1.0  0.6766613056237389  0.7317382249291312  0.08555268255086897  1.0000
  C   C7        1.0  0.6488127230429015  0.6485314697779644  0.5654688226089561  1.0000
  C   C8        1.0  0.3511877025805035  0.35147012932776533  0.4345293830308351  1.0000
  C   C9        1.0  0.20016366767173838  0.5178994471820317  0.07714230154299881  1.0000
  C   C10       1.0  0.7998367614344777  0.48210215590948013  0.9228567999914574  1.0000
  C   C11       1.0  0.1415161240226084  0.08581252531168103  0.227864709542331  1.0000
  C   C12       1.0  0.8584843679909611  0.9141833400343984  0.7721364878373862  1.0000
  C   C13       1.0  0.27879674009012223  0.7607845904582079  0.8751176803959028  1.0000
  C   C14       1.0  0.7212122681300953  0.23921409593702245  0.12487638665729153  1.0000
  C   C15       1.0  0.1861338720802124  0.2181152664310062  0.1324672085332921  1.0000
  C   C16       1.0  0.8138644367084636  0.781884915176484  0.8675341615371153  1.0000
  C   C17       1.0  0.5218584903405272  0.762236054484852  0.4726414888523252  1.0000
  C   C18       1.0  0.4781390872237096  0.23776556189066161  0.5273590428869923  1.0000
  C   C19       1.0  0.37908842313523666  0.8147032872810341  0.7680471346833214  1.0000
  C   C20       1.0  0.6209113795559987  0.1852911559176817  0.2319569599719031  1.0000
  C   C21       1.0  0.49100200968204166  0.5001045263526082  0.744438756968009  1.0000
  C   C22       1.0  0.5090006026490672  0.4998927604774934  0.25556017187575714  1.0000
  C   C23       1.0  0.2721577553739465  0.15466415998608332  0.005696687571926899  1.0000
  C   C24       1.0  0.7278412497026853  0.8453374517403133  0.9943035770122818  1.0000
  N   N1        1.0  0.5096337547550576  0.6507859636623722  0.6887368458100837  1.0000
  N   N2        1.0  0.49036810534637  0.34921563876579853  0.31126288446392175  1.0000
  N   N3        1.0  0.3499554971068405  0.5642567508546181  0.8593575347231664  1.0000
  N   N4        1.0  0.6500463944482603  0.43574198270084  0.1406432434734768  1.0000
  O   O1        1.0  0.6246939255042466  0.8164265018794269  0.3795676966152471  1.0000
  O   O2        1.0  0.3753007655815209  0.18357799266701846  0.6204323215116432  1.0000
  O   O3        1.0  0.15528191759010931  0.9313058936754786  0.18693343957696126  1.0000
  O   O4        1.0  0.8447207227118553  0.0686885202961278  0.8130656412947773  1.0000
  O   O5        1.0  0.005533943630403821  0.2002194125484067  0.6128141632486788  1.0000
  O   O6        1.0  0.9944621784505756  0.7997850813347115  0.3871864836177608  1.0000
  O   O7        1.0  0.0940466709206831  0.13806898610325646  0.34280037137126845  1.0000
  O   O8        1.0  0.9059516309023721  0.8619311875326688  0.6571992069098229  1.0000
  O   O9        1.0  0.33341763903987254  0.7835683171749322  0.4932726992506389  1.0000
  O   O10       1.0  0.6665821007440088  0.2164318637692233  0.5067292995593249  1.0000
