data_image0
_chemical_formula_structural       Co2H6C8N16
_chemical_formula_sum              "Co2 H6 C8 N16"
_cell_length_a       5.842211663428715
_cell_length_b       7.83120822665972
_cell_length_c       9.015835152406957
_cell_angle_alpha    87.02690234650642
_cell_angle_beta     81.99646689198522
_cell_angle_gamma    68.05441247859642

_space_group_name_H-M_alt    "P 1"
_space_group_IT_number       1

loop_
  _space_group_symop_operation_xyz
  'x, y, z'

loop_
  _atom_site_type_symbol
  _atom_site_label
  _atom_site_symmetry_multiplicity
  _atom_site_fract_x
  _atom_site_fract_y
  _atom_site_fract_z
  _atom_site_occupancy
  Co  Co1       1.0  0.1961552363034186  0.6074347856350144  1.5081702962006872e-05  1.0000
  Co  Co2       1.0  0.8038520379516427  0.39255623069082196  0.9999849048824886  1.0000
  H   H1        1.0  0.9362673922646245  0.7035002231820826  0.345879235294646  1.0000
  H   H2        1.0  0.3601842177105894  0.7031877982612967  0.6539625870530514  1.0000
  H   H3        1.0  0.06373258970084807  0.296501807393156  0.6541231142846513  1.0000
  H   H4        1.0  0.639814776052006  0.2968128560291632  0.34603767920174283  1.0000
  H   H5        1.0  0.7225985756475666  0.00010892670898949998  0.48819694225100824  1.0000
  H   H6        1.0  0.2773997547468453  0.9998931042190192  0.5118022127540627  1.0000
  C   C1        1.0  0.9046363622110077  0.8354642310006213  0.2902741028174631  1.0000
  C   C2        1.0  0.25992092284566576  0.8352015853041621  0.7095932198107704  1.0000
  C   C3        1.0  0.09536087728113062  0.16453642388761125  0.7097274142679808  1.0000
  C   C4        1.0  0.7400787856348215  0.1647976922262515  0.2904059349913055  1.0000
  C   C5        1.0  0.7839488023617703  0.00012155385444150008  0.36881961676463965  1.0000
  C   C6        1.0  0.21604881331475653  0.9998818538336139  0.6311806496931497  1.0000
  C   C7        1.0  0.9473566971207532  4.922565193509998e-05  0.07767804846788096  1.0000
  C   C8        1.0  0.052642985684876395  0.9999500519397274  0.9223222176854192  1.0000
  N   N1        1.0  0.9862666327508619  0.8347273639362527  0.14275966619324273  1.0000
  N   N2        1.0  0.17888918568878848  0.8345796766068148  0.8571274480047535  1.0000
  N   N3        1.0  0.013731347134019203  0.16527191413068454  0.8572396280882657  1.0000
  N   N4        1.0  0.8211122770621627  0.16541960032582642  0.1428704559666798  1.0000
  N   N5        1.0  0.07183287049659975  0.42923617452680674  0.12574821757750243  1.0000
  N   N6        1.0  0.49905186444337324  0.42919624247669225  0.8742611042109871  1.0000
  N   N7        1.0  0.9281764571887547  0.5707575941848334  0.8742526016033026  1.0000
  N   N8        1.0  0.5009482082454609  0.5707989054325964  0.125737078414808  1.0000
  N   N9        1.0  0.12219752386359056  0.362860579521076  0.2468134209649833  1.0000
  N   N10       1.0  0.5150042867083326  0.36279341331385956  0.7532306105863071  1.0000
  N   N11       1.0  0.877801182715224  0.6371442042067557  0.7531844834124398  1.0000
  N   N12       1.0  0.4849968118342644  0.6372099932399068  0.246768265561407  1.0000
  N   N13       1.0  0.168286587680356  0.2957179742450792  0.3628679252721696  1.0000
  N   N14       1.0  0.5360090763363985  0.29561018308882586  0.6371861127525662  1.0000
  N   N15       1.0  0.8317055341111156  0.7042854357875398  0.6371460958385029  1.0000
  N   N16       1.0  0.46399675002366797  0.7043945980029278  0.36280234289741026  1.0000
