data_image0
_chemical_formula_structural       Cd4H32C36N28Cl4O4
_chemical_formula_sum              "Cd4 H32 C36 N28 Cl4 O4"
_cell_length_a       8.21566106040385
_cell_length_b       8.215664148361356
_cell_length_c       17.974958811993147
_cell_angle_alpha    94.48645707657958
_cell_angle_beta     94.4860577463775
_cell_angle_gamma    92.88710387043129

_space_group_name_H-M_alt    "P 1"
_space_group_IT_number       1

loop_
  _space_group_symop_operation_xyz
  'x, y, z'

loop_
  _atom_site_type_symbol
  _atom_site_label
  _atom_site_symmetry_multiplicity
  _atom_site_fract_x
  _atom_site_fract_y
  _atom_site_fract_z
  _atom_site_occupancy
  Cd  Cd1       1.0  0.3786186212669236  0.9197650520007912  0.8078035565749675  1.0000
  Cd  Cd2       1.0  0.08023715164458879  0.6213840305503525  0.6921996386027518  1.0000
  Cd  Cd3       1.0  0.6213815823656573  0.0802352409044076  0.19219657694956996  1.0000
  Cd  Cd4       1.0  0.9197642328822225  0.3786150686470222  0.3078016072727651  1.0000
  H   H1        1.0  0.9968758887984916  0.8243696335265228  0.9414222620045722  1.0000
  H   H2        1.0  0.1756323911209918  0.0031285378083936006  0.558578168364761  1.0000
  H   H3        1.0  0.0031271053483337002  0.1756379717967889  0.058576521494110516  1.0000
  H   H4        1.0  0.8243654696008774  0.9968730025263145  0.4414235996976715  1.0000
  H   H5        1.0  0.42897155140364157  0.23433729745110551  0.8977543174514155  1.0000
  H   H6        1.0  0.765661714605521  0.5710276650106252  0.6022458176587407  1.0000
  H   H7        1.0  0.5710300249532592  0.765665470252401  0.10224705035783903  1.0000
  H   H8        1.0  0.234335895128325  0.4289701476399302  0.3977530428382111  1.0000
  H   H9        1.0  0.24570795822910443  0.17428071652858532  0.8914972328863872  1.0000
  H   H10       1.0  0.8257181834194752  0.7542936685693393  0.6085031726802159  1.0000
  H   H11       1.0  0.7542946995838945  0.8257195991249022  0.10850353525022172  1.0000
  H   H12       1.0  0.17428203204469384  0.24570663617146954  0.39149751797067023  1.0000
  H   H13       1.0  0.8552452473410526  0.9514242427175291  0.8238627070731115  1.0000
  H   H14       1.0  0.0485805228605898  0.14475740152474262  0.676139297963289  1.0000
  H   H15       1.0  0.1447565492945344  0.0485833808206522  0.17613715193540713  1.0000
  H   H16       1.0  0.9514210013845316  0.855244155178987  0.323862586327735  1.0000
  H   H17       1.0  0.813983954045206  0.5442115809731123  0.15511521342072146  1.0000
  H   H18       1.0  0.4557743479058231  0.1860156647823104  0.34488641081222243  1.0000
  H   H19       1.0  0.18601734992122934  0.45578511989593556  0.8448881796710312  1.0000
  H   H20       1.0  0.5442159702762908  0.813982150637017  0.6551138886066001  1.0000
  H   H21       1.0  0.9318738658260557  0.6691146890939309  0.048956105559774706  1.0000
  H   H22       1.0  0.33087564707002304  0.06812313850164742  0.45104614293520484  1.0000
  H   H23       1.0  0.068124564805025  0.3308746165077636  0.9510447376733923  1.0000
  H   H24       1.0  0.6691195794729266  0.9318747224142503  0.5489554257077672  1.0000
  H   H25       1.0  0.40967242508551743  0.5576467133602209  0.14531492570032614  1.0000
  H   H26       1.0  0.4423442460781501  0.5903295632517784  0.3546792574564749  1.0000
  H   H27       1.0  0.5903307837589508  0.4423425075463925  0.8546810583671559  1.0000
  H   H28       1.0  0.5576533802727182  0.40966942489173874  0.6453174151796619  1.0000
  H   H29       1.0  0.2707684431945836  0.43510946531056055  0.2464968782278875  1.0000
  H   H30       1.0  0.5648860031081994  0.7292357971551411  0.25349865751842776  1.0000
  H   H31       1.0  0.7292352250850058  0.5648883272792774  0.753499947477991  1.0000
  H   H32       1.0  0.43510722164329246  0.2707717645174484  0.746499816037357  1.0000
  C   C1        1.0  0.2662825692754538  0.7066334949075496  0.030131804443435294  1.0000
  C   C2        1.0  0.2933659170963025  0.7337149793293423  0.4698674260180412  1.0000
  C   C3        1.0  0.7337210184437524  0.29336189935396106  0.9698671684786792  1.0000
  C   C4        1.0  0.7066365252234375  0.2662816441468081  0.5301321059321324  1.0000
  C   C5        1.0  0.459258760057395  0.7895150140895028  0.9688353543391984  1.0000
  C   C6        1.0  0.2104879305800154  0.5407451238678008  0.5311653389709579  1.0000
  C   C7        1.0  0.5407444045170776  0.21049392058963434  0.031168483941201003  1.0000
  C   C8        1.0  0.7895097312656105  0.45925389978253156  0.46883300504422465  1.0000
  C   C9        1.0  0.7933111428252032  0.9071051672764769  0.8701534469834729  1.0000
  C   C10       1.0  0.09289789519728228  0.20669416993852252  0.6298486166921862  1.0000
  C   C11       1.0  0.20669067747356  0.09290247993292412  0.129847526277743  1.0000
  C   C12       1.0  0.9071035817214934  0.793307339422789  0.3701510390934431  1.0000
  C   C13       1.0  0.6180730460594005  0.8276101710773108  0.9428993988645619  1.0000
  C   C14       1.0  0.17239220159646612  0.38193078524099633  0.557102193607939  1.0000
  C   C15       1.0  0.3819326532558732  0.17240118467844212  0.05710292681167322  1.0000
  C   C16       1.0  0.8276031291700361  0.6180694976744477  0.4428983420714944  1.0000
  C   C17       1.0  0.9458808137950638  0.5509293590761147  0.1510558515055749  1.0000
  C   C18       1.0  0.4490597591810753  0.054122847933506114  0.34894468737708456  1.0000
  C   C19       1.0  0.054119134064066494  0.4490660424875871  0.8489441194406526  1.0000
  C   C20       1.0  0.5509309544927986  0.9458823163336734  0.651056413035555  1.0000
  C   C21       1.0  0.013384975581445208  0.6221575153337043  0.09192967470107762  1.0000
  C   C22       1.0  0.37783828446322326  0.9866013917217842  0.40806935896645774  1.0000
  C   C23       1.0  0.9866051152758215  0.37783659607268316  0.9080688314049612  1.0000
  C   C24       1.0  0.6221626809086586  0.013390334956518804  0.5919299716625448  1.0000
  C   C25       1.0  0.18363487743315687  0.6308490246643289  0.08887084595122023  1.0000
  C   C26       1.0  0.3691477229620546  0.8163712874743042  0.4111285835361685  1.0000
  C   C27       1.0  0.8163672854499566  0.3691426837991117  0.9111274091679465  1.0000
  C   C28       1.0  0.6308552545677628  0.18363514235606002  0.5888723878233366  1.0000
  C   C29       1.0  0.27742216811735426  0.5605118368747598  0.14555250629063474  1.0000
  C   C30       1.0  0.4394822929534357  0.7225760648406949  0.35444577002110134  1.0000
  C   C31       1.0  0.7225760636374757  0.4394749520425521  0.8544449128952751  1.0000
  C   C32       1.0  0.5605214344840874  0.27742178692717095  0.645553841316513  1.0000
  C   C33       1.0  0.20046873619203603  0.4912468788389149  0.20236279165517604  1.0000
  C   C34       1.0  0.5087495830325607  0.7995343696809555  0.29763349906330216  1.0000
  C   C35       1.0  0.7995334078133353  0.5087459696106648  0.7976316042241295  1.0000
  C   C36       1.0  0.4912460153389802  0.20047081641158832  0.7023677563207898  1.0000
  N   N1        1.0  0.31951758286873394  0.8220680852774437  0.9295378681449552  1.0000
  N   N2        1.0  0.1779303475572078  0.680485099786786  0.5704623650301671  1.0000
  N   N3        1.0  0.6804878203928979  0.1779371799726448  0.07046536856108793  1.0000
  N   N4        1.0  0.8220661452257757  0.3195151294069661  0.4295354237603847  1.0000
  N   N5        1.0  0.1950064029928811  0.7697286380210072  0.9688845931885552  1.0000
  N   N6        1.0  0.23026647490678437  0.8049980220543134  0.5311151496879845  1.0000
  N   N7        1.0  0.8049970686711915  0.23026432240536113  0.03111485557075611  1.0000
  N   N8        1.0  0.7697337690059882  0.19500347001504548  0.4688839102284349  1.0000
  N   N9        1.0  0.43207509304131253  0.7181151213625657  0.031840786095791905  1.0000
  N   N10       1.0  0.2818865266802675  0.5679280055777128  0.46815899886135537  1.0000
  N   N11       1.0  0.5679264193722274  0.2818864235055615  0.9681605410688835  1.0000
  N   N12       1.0  0.7181148862951474  0.4320722809482264  0.5318406162796949  1.0000
  N   N13       1.0  0.7618502251201136  0.7961656204593339  0.977047070567707  1.0000
  N   N14       1.0  0.20383236252447287  0.23815382765110377  0.5229524397223316  1.0000
  N   N15       1.0  0.23815537475703508  0.20384447695423097  0.0229535430849097  1.0000
  N   N16       1.0  0.7961581356561352  0.7618476444387454  0.47704742450387994  1.0000
  N   N17       1.0  0.8713386551467011  0.8475527564805889  0.9297458630924357  1.0000
  N   N18       1.0  0.15244905208017195  0.1286642473428969  0.5702541947664415  1.0000
  N   N19       1.0  0.12866558383771579  0.15245487797028554  0.07025407340180582  1.0000
  N   N20       1.0  0.8475474359173844  0.8713348181935033  0.429746339011274  1.0000
  N   N21       1.0  0.632459924945465  0.8972964901895683  0.8768710927440966  1.0000
  N   N22       1.0  0.10270696247957288  0.36754391943573234  0.6231300666813128  1.0000
  N   N23       1.0  0.36754181957834214  0.1027099223488506  0.12312928274619142  1.0000
  N   N24       1.0  0.8972920554733576  0.6324564035199388  0.376871699479409  1.0000
  N   N25       1.0  0.0369617057502367  0.48801181444507347  0.20618361025987045  1.0000
  N   N26       1.0  0.5119812061483486  0.9630374945868356  0.2938160440635684  1.0000
  N   N27       1.0  0.9630443834757401  0.5119836499071441  0.7938182257797167  1.0000
  N   N28       1.0  0.4880175608165588  0.036959100684683215  0.7061828145316726  1.0000
  Cl  Cl1       1.0  0.38456306562848414  0.6154366135391387  0.750000427066958  1.0000
  Cl  Cl2       1.0  0.6154370456121397  0.3845612692021236  0.25000129654746683  1.0000
  Cl  Cl3       1.0  0.07650033428825509  0.9235008777031481  0.749998744695816  1.0000
  Cl  Cl4       1.0  0.9235022240866186  0.07649817960815142  0.2500003114171677  1.0000
  O   O1        1.0  0.3361277705405854  0.18735425641446574  0.8598521850640426  1.0000
  O   O2        1.0  0.8126479506946325  0.6638714692671217  0.6401475689704486  1.0000
  O   O3        1.0  0.6638737300413665  0.8126472766180515  0.14014858497428415  1.0000
  O   O4        1.0  0.1873521013880506  0.3361263542961126  0.3598513690122332  1.0000
