data_image0
_chemical_formula_structural       Cu2H12C20N24
_chemical_formula_sum              "Cu2 H12 C20 N24"
_cell_length_a       6.9830550925329575
_cell_length_b       9.488318709526942
_cell_length_c       9.704405692048512
_cell_angle_alpha    94.52349623981935
_cell_angle_beta     89.99881550440898
_cell_angle_gamma    89.99974255887915

_space_group_name_H-M_alt    "P 1"
_space_group_IT_number       1

loop_
  _space_group_symop_operation_xyz
  'x, y, z'

loop_
  _atom_site_type_symbol
  _atom_site_label
  _atom_site_symmetry_multiplicity
  _atom_site_fract_x
  _atom_site_fract_y
  _atom_site_fract_z
  _atom_site_occupancy
  Cu  Cu1       1.0  0.5000148214949578  0.4999838585926355  0.4999868385155536  1.0000
  Cu  Cu2       1.0  0.9999930628681358  0.5000024212796106  0.9999927009616698  1.0000
  H   H1        1.0  0.898919346525169  0.6383411396315992  0.5727784912303235  1.0000
  H   H2        1.0  0.39895494677168847  0.3616715695116639  0.9272249052044046  1.0000
  H   H3        1.0  0.10110027203725022  0.3616478963518476  0.42720571666741597  1.0000
  H   H4        1.0  0.6010417591396334  0.6383259623990868  0.0727618643136267  1.0000
  H   H5        1.0  0.06455021325409402  0.857045767113874  0.5010324905195986  1.0000
  H   H6        1.0  0.5645938548047627  0.14295419575528  0.9990231504462698  1.0000
  H   H7        1.0  0.9354364679905988  0.14295552945132073  0.4989854199125859  1.0000
  H   H8        1.0  0.4353956906955504  0.8570489378979715  0.0009804391460264033  1.0000
  H   H9        1.0  0.5889152708250622  0.9521128648711683  0.2650538906159738  1.0000
  H   H10       1.0  0.08890502728459641  0.04790574633099  0.2349309570121747  1.0000
  H   H11       1.0  0.411104347500853  0.047882849650591204  0.7349482313265909  1.0000
  H   H12       1.0  0.9110945423434916  0.9521007562341951  0.7650831372242664  1.0000
  C   C1        1.0  0.38609536246731596  0.7033513448460481  0.3198237868969755  1.0000
  C   C2        1.0  0.886102316598539  0.2966376817685301  0.1802017641396461  1.0000
  C   C3        1.0  0.6139314159672652  0.2966392229612822  0.6801852464847896  1.0000
  C   C4        1.0  0.11389868528446816  0.70337165557347  0.8197949760811766  1.0000
  C   C5        1.0  0.8319222504472492  0.7079671788942293  0.5027006375843044  1.0000
  C   C6        1.0  0.33192904142770646  0.2920359545922366  0.9973321724684395  1.0000
  C   C7        1.0  0.16806729502859952  0.2920159700029501  0.49730692872292787  1.0000
  C   C8        1.0  0.668069096442814  0.7079680184461736  0.0026601294229849086  1.0000
  C   C9        1.0  0.5701172779998984  0.7577851755827113  0.3685810256706716  1.0000
  C   C10       1.0  0.07010629496922151  0.2422447231312078  0.13143571967188447  1.0000
  C   C11       1.0  0.42988372383258894  0.242216861429668  0.6314204379870175  1.0000
  C   C12       1.0  0.9299018669153442  0.7577733276613118  0.8685749317665028  1.0000
  C   C13       1.0  0.9220164183123887  0.8293934563675549  0.46164510623434307  1.0000
  C   C14       1.0  0.4220079889371534  0.17063223136052133  0.0383768498920176  1.0000
  C   C15       1.0  0.07797026310525014  0.1706002035429393  0.5383599869508444  1.0000
  C   C16       1.0  0.5779801246456702  0.8293696672074377  0.9616173912412833  1.0000
  C   C17       1.0  0.6610076021687449  0.8810461945855935  0.3318044986154405  1.0000
  C   C18       1.0  0.16099457380756385  0.11896852545130093  0.1682211719426761  1.0000
  C   C19       1.0  0.33899196734526543  0.1189520495335827  0.6682194158557166  1.0000
  C   C20       1.0  0.8390035638724102  0.8810388956673308  0.8317857618983027  1.0000
  N   N1        1.0  0.3181789667822558  0.5872047108145753  0.3760486822004125  1.0000
  N   N2        1.0  0.8181727271113034  0.4127865205086252  0.1239595817282932  1.0000
  N   N3        1.0  0.6818206030887383  0.41278561967628496  0.623947969754681  1.0000
  N   N4        1.0  0.18182684288920112  0.5872173140382699  0.876025497516366  1.0000
  N   N5        1.0  0.1590990844331088  0.5494428962392632  0.3076506219540533  1.0000
  N   N6        1.0  0.659088142762407  0.4505702451446466  0.19234716024623566  1.0000
  N   N7        1.0  0.8408904611219513  0.4505591012431297  0.692348778191679  1.0000
  N   N8        1.0  0.34090999521556153  0.5494388350169926  0.8076361665349266  1.0000
  N   N9        1.0  0.27194314728323843  0.7386399226520197  0.2171726081854501  1.0000
  N   N10       1.0  0.7718874375155738  0.2613825835102475  0.2828547598770328  1.0000
  N   N11       1.0  0.7280635826614418  0.2613495288342237  0.7828332677260263  1.0000
  N   N12       1.0  0.22811786045070195  0.738628907456345  0.7171441683706021  1.0000
  N   N13       1.0  0.13137878941891054  0.6405377446285173  0.2121025136002146  1.0000
  N   N14       1.0  0.6313398790868591  0.35949268957755726  0.2879070563078159  1.0000
  N   N15       1.0  0.868613620137552  0.3594622574763592  0.7879029528969852  1.0000
  N   N16       1.0  0.36866255492190453  0.6405249457733931  0.7120819272759248  1.0000
  N   N17       1.0  0.6580047548418123  0.6727719947890874  0.4551088584819212  1.0000
  N   N18       1.0  0.15801723086357103  0.3272455005606075  0.04489538195922899  1.0000
  N   N19       1.0  0.3419862228254048  0.3272130307685118  0.544886450607528  1.0000
  N   N20       1.0  0.841986635031816  0.6727628786555755  0.9551064550349578  1.0000
  N   N21       1.0  0.8372335692323177  0.9155411392450573  0.3774030032254103  1.0000
  N   N22       1.0  0.33724899951416637  0.08447846707186099  0.122604551354847  1.0000
  N   N23       1.0  0.16275168014301042  0.0844546347412205  0.6226022144256688  1.0000
  N   N24       1.0  0.6627419780723474  0.9155267015124409  0.8773950354591307  1.0000
