data_image0
_chemical_formula_structural       Zn8H52C28S8N8O32
_chemical_formula_sum              "Zn8 H52 C28 S8 N8 O32"
_cell_length_a       7.939002034
_cell_length_b       8.604554063778277
_cell_length_c       23.503
_cell_angle_alpha    90.0
_cell_angle_beta     90.0
_cell_angle_gamma    113.83285004762666

_space_group_name_H-M_alt    "P 1"
_space_group_IT_number       1

loop_
  _space_group_symop_operation_xyz
  'x, y, z'

loop_
  _atom_site_type_symbol
  _atom_site_label
  _atom_site_symmetry_multiplicity
  _atom_site_fract_x
  _atom_site_fract_y
  _atom_site_fract_z
  _atom_site_occupancy
  Zn  Zn1       1.0  0.8756440438846129  0.3413961106216802  0.1036671914223746  1.0000
  Zn  Zn2       1.0  0.6243568776878947  0.6586067092850101  0.6036680423775707  1.0000
  Zn  Zn3       1.0  0.12435826539379494  0.6586067092850101  0.8963319576224292  1.0000
  Zn  Zn4       1.0  0.3756441719863518  0.3413961106216802  0.3963323831000309  1.0000
  Zn  Zn5       1.0  0.5203392764865102  0.5173445666557797  0.2428728247457741  1.0000
  Zn  Zn6       1.0  0.9796592726528034  0.4826557122221259  0.7428732502233757  1.0000
  Zn  Zn7       1.0  0.4796595475296713  0.48265317119334117  0.7571271752542259  1.0000
  Zn  Zn8       1.0  0.020337588569574905  0.5173432961413909  0.2571271752542259  1.0000
  H   H1        1.0  0.23298316415171882  0.7316739919454989  0.1419631536399635  1.0000
  H   H2        1.0  0.2670176039848827  0.268325016418018  0.6419631536399634  1.0000
  H   H3        1.0  0.7670162162789824  0.268325016418018  0.8580364208824419  1.0000
  H   H4        1.0  0.7329848520686539  0.7316752624598946  0.35803727183763806  1.0000
  H   H5        1.0  0.4102486808012672  0.7380278344178561  0.05940730970514349  1.0000
  H   H6        1.0  0.08975138414569267  0.2619724444600492  0.5594073097051435  1.0000
  H   H7        1.0  0.589751256043954  0.2619724444600492  0.9405922648172549  1.0000
  H   H8        1.0  0.9102498123036824  0.7380278344178561  0.4405926902948565  1.0000
  H   H9        1.0  0.5153416988566522  0.7022349029779065  0.1225018082797931  1.0000
  H   H10       1.0  0.9846593694909843  0.2977653758999991  0.6225013828021986  1.0000
  H   H11       1.0  0.48465823798856184  0.2977653758999991  0.8774981917202068  1.0000
  H   H12       1.0  0.015341826958390899  0.7022349029779065  0.37749861719780137  1.0000
  H   H13       1.0  0.19542692321584804  0.986342249168288  0.1298715057652231  1.0000
  H   H14       1.0  0.30457258531659903  0.013656759195228596  0.6298715057652231  1.0000
  H   H15       1.0  0.8045724572148532  0.013656759195228596  0.8701280687571822  1.0000
  H   H16       1.0  0.6954273515286149  0.9863435196826769  0.37012806875718235  1.0000
  H   H17       1.0  0.2337335784737533  0.9051957654916547  0.0634395609071206  1.0000
  H   H18       1.0  0.2662659300586868  0.0948032428718619  0.563439986384715  1.0000
  H   H19       1.0  0.7662670615611094  0.0948032428718619  0.936560013615285  1.0000
  H   H20       1.0  0.7337334503720145  0.9051957654916547  0.436560013615285  1.0000
  H   H21       1.0  0.7801141259302258  0.9513687995109164  0.10307875590350328  1.0000
  H   H22       1.0  0.7198856828132493  0.04863147936698908  0.6030791813810978  1.0000
  H   H23       1.0  0.2198858109149882  0.04863147936698908  0.896919967663706  1.0000
  H   H24       1.0  0.28011425403196444  0.9513687995109164  0.3969208186189022  1.0000
  H   H25       1.0  0.6731390644124886  0.9914065195331785  0.0416610645449538  1.0000
  H   H26       1.0  0.8268607443309863  0.008593759344734097  0.5416610645449538  1.0000
  H   H27       1.0  0.3268596128285637  0.008593759344734097  0.9583385099774517  1.0000
  H   H28       1.0  0.1731404521183961  0.9914065195331785  0.4583389354550462  1.0000
  H   H29       1.0  0.6092201816891532  0.18152982575636398  0.19955963068544239  1.0000
  H   H30       1.0  0.8907796270543145  0.8184704531215414  0.699560056163044  1.0000
  H   H31       1.0  0.3907810147602219  0.8184704531215414  0.8004399438369559  1.0000
  H   H32       1.0  0.1092203097908993  0.18152982575636398  0.3004403693145576  1.0000
  H   H33       1.0  0.7363520798471088  0.0534251301664739  0.19361060290175658  1.0000
  H   H34       1.0  0.7636477288963592  0.9465751487114389  0.6936110283793582  1.0000
  H   H35       1.0  0.26364856018774663  0.9465738781970499  0.8063885461430473  1.0000
  H   H36       1.0  0.23635346755301617  0.0534251301664739  0.30638939709824337  1.0000
  H   H37       1.0  0.4961051895893861  0.16244924062342384  0.0495889886397478  1.0000
  H   H38       1.0  0.00389431894305394  0.8375497677400927  0.5495889886397478  1.0000
  H   H39       1.0  0.5038947472558277  0.8375510382544817  0.9504105858826506  1.0000
  H   H40       1.0  0.99610506148764  0.16244924062342384  0.4504110113602522  1.0000
  H   H41       1.0  0.46363440501667  0.23656088611380705  0.1174373484236071  1.0000
  H   H42       1.0  0.036365659930289944  0.7634393927640983  0.6174377739012016  1.0000
  H   H43       1.0  0.5363655318285441  0.7634393927640983  0.8825626515763929  1.0000
  H   H44       1.0  0.963634276914924  0.23656088611380705  0.3825626515763929  1.0000
  H   H45       1.0  0.4640603638850038  0.812920846259068  0.21277028464451317  1.0000
  H   H46       1.0  0.035939701061956  0.18707943261884444  0.7127702846445132  1.0000
  H   H47       1.0  0.5359390165456972  0.18707816210444855  0.7872292898778852  1.0000
  H   H48       1.0  0.9640614953874193  0.812920846259068  0.2872297153554868  1.0000
  H   H49       1.0  0.3350583428544098  0.9399938841629873  0.2140365059779583  1.0000
  H   H50       1.0  0.16494172209255006  0.06000639471491809  0.7140373569331544  1.0000
  H   H51       1.0  0.6649415939908112  0.06000639471491809  0.7859626430668456  1.0000
  H   H52       1.0  0.8350594743568254  0.9399938841629873  0.2859630685444401  1.0000
  C   C1        1.0  0.07199026984687155  0.5783788075135021  0.0152827298642748  1.0000
  C   C2        1.0  0.42800853549592693  0.42162147136441047  0.5152840062970654  1.0000
  C   C3        1.0  0.9280085541693099  0.4216189303356258  0.9847159937029345  1.0000
  C   C4        1.0  0.5719926609534483  0.5783788075135021  0.48471727013572513  1.0000
  C   C5        1.0  0.4835872334263627  0.7959467739873884  0.0984738118538075  1.0000
  C   C6        1.0  0.01641409112475149  0.20405350489051693  0.5984738118538075  1.0000
  C   C7        1.0  0.5164139630230126  0.20405350489051693  0.901525762668598  1.0000
  C   C8        1.0  0.9835858457204623  0.7959467739873884  0.4015261881461925  1.0000
  C   C9        1.0  0.2978482812597392  0.9650624036235056  0.10348466153256909  1.0000
  C   C10       1.0  0.20215122727270096  0.034936604740010986  0.6034850870101707  1.0000
  C   C11       1.0  0.7021510991709619  0.034936604740010986  0.8965149129898293  1.0000
  C   C12       1.0  0.7978481531579932  0.9650624036235056  0.39651491298982927  1.0000
  C   C13       1.0  0.6550681494813942  0.961498610755086  0.0871820618644463  1.0000
  C   C14       1.0  0.8449334752807546  0.0385029386372153  0.5871820618644392  1.0000
  C   C15       1.0  0.3449323437783321  0.0385029386372153  0.9128175126579591  1.0000
  C   C16       1.0  0.15506772116862783  0.9614973402406973  0.4128179381355537  1.0000
  C   C17       1.0  0.6145635432665983  0.0704004729525423  0.17844530485469787  1.0000
  C   C18       1.0  0.8854375250810307  0.9295998059253703  0.6784457303322995  1.0000
  C   C19       1.0  0.3854376531827768  0.9295998059253703  0.821553844190106  1.0000
  C   C20       1.0  0.1145631149538247  0.07039920243814628  0.3215542696677005  1.0000
  C   C21       1.0  0.47282823749820585  0.128977538976919  0.0947798153427257  1.0000
  C   C22       1.0  0.02717182744875394  0.8710227399009935  0.5947802408203202  1.0000
  C   C23       1.0  0.527171699347015  0.8710227399009935  0.9052197591796797  1.0000
  C   C24       1.0  0.9728281093964599  0.128977538976919  0.4052201846572743  1.0000
  C   C25       1.0  0.4376750574935073  0.9117338325507942  0.1901421095179359  1.0000
  C   C26       1.0  0.0623268234721266  0.08826771684150707  0.6901425349955304  1.0000
  C   C27       1.0  0.5623261389558678  0.0882664463271183  0.8098570395268679  1.0000
  C   C28       1.0  0.9376743729772488  0.9117325620363983  0.3098578904820641  1.0000
  S   S1        1.0  0.8498703361068396  0.660347314001491  0.1579062247372676  1.0000
  S   S2        1.0  0.6501314354304384  0.3396516943620256  0.6579070756924636  1.0000
  S   S3        1.0  0.15013086034253578  0.3396529648764214  0.8420937752627324  1.0000
  S   S4        1.0  0.3498679450002626  0.660347314001491  0.3420933497851308  1.0000
  S   S5        1.0  0.1537189070413945  0.2836956995275059  0.1880985406118398  1.0000
  S   S6        1.0  0.34627934188688414  0.7163033088360109  0.6880993915670359  1.0000
  S   S7        1.0  0.846277954180984  0.7163033088360109  0.8119014593881602  1.0000
  S   S8        1.0  0.6537205949583297  0.2836969700418948  0.3119014593881602  1.0000
  N   N1        1.0  0.3520463958789648  0.839425046982079  0.1340735225290359  1.0000
  N   N2        1.0  0.14795437225763663  0.1605739613814379  0.6340735225290359  1.0000
  N   N3        1.0  0.6479542441558908  0.1605739613814379  0.8659260519933625  1.0000
  N   N4        1.0  0.8520468241917386  0.8394263174964747  0.3659264774709641  1.0000
  N   N5        1.0  0.6378227858424241  0.1071335850422628  0.1165017231842711  1.0000
  N   N6        1.0  0.8621770229010439  0.8928666938356429  0.6165021486618727  1.0000
  N   N7        1.0  0.3621771510027899  0.8928666938356429  0.8834974258605257  1.0000
  N   N8        1.0  0.13782417354833146  0.1071335850422628  0.3834982768157289  1.0000
  O   O1        1.0  0.06590415887499995  0.2609217290582037  0.1286465557588414  1.0000
  O   O2        1.0  0.43409449969266933  0.7390810908484864  0.6286469812364359  1.0000
  O   O3        1.0  0.9340938151764104  0.7390798203340976  0.8713534442411586  1.0000
  O   O4        1.0  0.5659052903774154  0.2609217290582037  0.3713538697187602  1.0000
  O   O5        1.0  0.74846372398644  0.4683001701115187  0.1447772624771275  1.0000
  O   O6        1.0  0.7515330091341924  0.531698838251998  0.6447798153427229  1.0000
  O   O7        1.0  0.25153747246293523  0.5317001087663866  0.8552218865676692  1.0000
  O   O8        1.0  0.24846566810686005  0.4683014406259147  0.3552223120452708  1.0000
  O   O9        1.0  0.07598166854696586  0.5740006149200736  0.0689188614219489  1.0000
  O   O10       1.0  0.4240181028497362  0.42600474601540117  0.5689209888099356  1.0000
  O   O11       1.0  0.924016158729316  0.4260034755010125  0.9310790111900644  1.0000
  O   O12       1.0  0.5759839128784138  0.5740031559488585  0.4310811385780511  1.0000
  O   O13       1.0  0.7181813496050468  0.6950399799783185  0.1990269327319893  1.0000
  O   O14       1.0  0.7818174930845245  0.3049552168420248  0.6990273582095908  1.0000
  O   O15       1.0  0.28181384237377927  0.3049552168420248  0.8009726417904091  1.0000
  O   O16       1.0  0.21818021810263133  0.6950399799783185  0.3009726417904091  1.0000
  O   O17       1.0  0.3096066825635689  0.4658620529940548  0.1886308130876913  1.0000
  O   O18       1.0  0.1903928259688712  0.5341369553694617  0.6886312385652928  1.0000
  O   O19       1.0  0.6903939574712867  0.5341369553694617  0.8113691869123087  1.0000
  O   O20       1.0  0.8096065544618299  0.4658620529940548  0.3113696123899103  1.0000
  O   O21       1.0  0.02000684403687818  0.6750624116849195  0.1939131174743665  1.0000
  O   O22       1.0  0.47999310482094876  0.3249289735922502  0.6939143939071641  1.0000
  O   O23       1.0  0.9799925363938159  0.3249365966785973  0.8060868825256335  1.0000
  O   O24       1.0  0.52000516278072  0.6750674937424819  0.3060860315704375  1.0000
  O   O25       1.0  0.007389067809633252  0.29702593652409337  0.22964302429477357  1.0000
  O   O26       1.0  0.49261114391245553  0.7029718013250346  0.729643449772368  1.0000
  O   O27       1.0  0.9926101658459391  0.7029756128682081  0.7703569757052264  1.0000
  O   O28       1.0  0.5073901993120488  0.29702593652409337  0.270357401182828  1.0000
  O   O29       1.0  0.17647035063005492  0.7001639645196105  0.984236905926906  1.0000
  O   O30       1.0  0.3235308271459375  0.2998388553870796  0.4842381823596966  1.0000
  O   O31       1.0  0.8235301426296786  0.2998375848726909  0.0157622431178979  1.0000
  O   O32       1.0  0.6764725949615028  0.7001665055483954  0.515763094073094  1.0000
