data_image0
_chemical_formula_structural       Dy4H28C32N4O32
_chemical_formula_sum              "Dy4 H28 C32 N4 O32"
_cell_length_a       7.465459334620819
_cell_length_b       9.840838186006872
_cell_length_c       14.688774140443535
_cell_angle_alpha    89.99997946100774
_cell_angle_beta     97.79913568316216
_cell_angle_gamma    90.00013689759692

_space_group_name_H-M_alt    "P 1"
_space_group_IT_number       1

loop_
  _space_group_symop_operation_xyz
  'x, y, z'

loop_
  _atom_site_type_symbol
  _atom_site_label
  _atom_site_symmetry_multiplicity
  _atom_site_fract_x
  _atom_site_fract_y
  _atom_site_fract_z
  _atom_site_occupancy
  Dy  Dy1       1.0  0.3539393462324725  0.45553452211477463  0.6423870801620097  1.0000
  Dy  Dy2       1.0  0.14606152214089718  0.9555363992893081  0.8576130394938983  1.0000
  Dy  Dy3       1.0  0.646058389432028  0.5444632655713947  0.3576136944147947  1.0000
  Dy  Dy4       1.0  0.8539403000367615  0.04446138840143022  0.1423846222231404  1.0000
  H   H1        1.0  0.20854027927854452  0.3801456156371544  0.149787229640836  1.0000
  H   H2        1.0  0.2914584239709583  0.8801457307985031  0.3502123700389888  1.0000
  H   H3        1.0  0.7914655439408165  0.6198582690971721  0.8502168443117099  1.0000
  H   H4        1.0  0.7085379658124682  0.11985713775465713  0.649787627853783  1.0000
  H   H5        1.0  0.1684338671506396  0.38176110882448466  0.85388313382262  1.0000
  H   H6        1.0  0.331577600133862  0.8817583568541427  0.6461163977855617  1.0000
  H   H7        1.0  0.8315679244996943  0.6182376950389212  0.14611792971417967  1.0000
  H   H8        1.0  0.668429611699139  0.11823536614647172  0.3538836903034053  1.0000
  H   H9        1.0  0.39274390017378386  0.716586672259169  0.020389209548909496  1.0000
  H   H10       1.0  0.1072542948082926  0.21658213246207234  0.4796103948313259  1.0000
  H   H11       1.0  0.6072592678975826  0.2834141639534096  0.979609228852041  1.0000
  H   H12       1.0  0.8927407002336168  0.7834166713941572  0.5203942692891771  1.0000
  H   H13       1.0  0.0365318028400026  0.729188749118926  0.7082812848840662  1.0000
  H   H14       1.0  0.46346700406135005  0.22919004222271872  0.7917194253205082  1.0000
  H   H15       1.0  0.9634672970339722  0.27081107091603235  0.2917182252848036  1.0000
  H   H16       1.0  0.5365307377136759  0.7708107939844454  0.2082806688922929  1.0000
  H   H17       1.0  0.9219860444873903  0.8652216795224705  0.6802869777313559  1.0000
  H   H18       1.0  0.5780142022811675  0.365222251536821  0.8197137966030965  1.0000
  H   H19       1.0  0.07801168507291581  0.13477712433711997  0.31971447720938784  1.0000
  H   H20       1.0  0.4219849036985864  0.634777568498322  0.1802850332018124  1.0000
  H   H21       1.0  0.7594856325084366  0.946525550633617  0.7938571555931233  1.0000
  H   H22       1.0  0.7405121507149419  0.446528512787289  0.7061447844926931  1.0000
  H   H23       1.0  0.2405174867103739  0.05347122088305413  0.20614672571952034  1.0000
  H   H24       1.0  0.25948152897162663  0.5534733395896512  0.2938557011240448  1.0000
  H   H25       1.0  0.7905879599488727  0.057964052934949  0.8698206321703735  1.0000
  H   H26       1.0  0.7094126840138557  0.5579671825899412  0.6301802473140014  1.0000
  H   H27       1.0  0.2094083992961799  0.9420327185756607  0.1301827675422587  1.0000
  H   H28       1.0  0.2905850760753523  0.44203162127057305  0.3698178058069743  1.0000
  C   C1        1.0  0.2280866640514034  0.42974610032020183  0.0853955235167163  1.0000
  C   C2        1.0  0.2719121994327836  0.929743097106645  0.41460339437378474  1.0000
  C   C3        1.0  0.7719205355826732  0.5702557520688746  0.9146059253000514  1.0000
  C   C4        1.0  0.7280841781327752  0.07025570675173042  0.5853979642469511  1.0000
  C   C5        1.0  0.1752478787474629  0.36540399400042395  0.0009837008701794041  1.0000
  C   C6        1.0  0.324756192772405  0.8654010429902077  0.4990156041493917  1.0000
  C   C7        1.0  0.8247498630338796  0.634600906901156  0.9990163933425648  1.0000
  C   C8        1.0  0.6752415612078623  0.1345957285229176  0.5009831293355589  1.0000
  C   C9        1.0  0.2049793291160427  0.43141136705559574  0.9201455180518819  1.0000
  C   C10       1.0  0.29502553859042985  0.931409599315707  0.5798528501654658  1.0000
  C   C11       1.0  0.7950197402290301  0.5685884529784391  0.07985739393675569  1.0000
  C   C12       1.0  0.7049749132719757  0.06858615602605062  0.4201467563234615  1.0000
  C   C13       1.0  0.2802523317635206  0.561475558651445  0.926056210602475  1.0000
  C   C14       1.0  0.2197513680446549  0.06147143942576613  0.5739442093379664  1.0000
  C   C15       1.0  0.7197535280842048  0.43852426138958134  0.0739437811664132  1.0000
  C   C16       1.0  0.7802490654988362  0.9385232997418386  0.42605743824283576  1.0000
  C   C17       1.0  0.33045339892866826  0.6166642342730881  0.013376685580354307  1.0000
  C   C18       1.0  0.16955125773259277  0.11666183726133281  0.48662204254353  1.0000
  C   C19       1.0  0.6695483988306067  0.3833366019377139  0.9866236975924636  1.0000
  C   C20       1.0  0.83045187369936  0.8833359504293202  0.513380478041192  1.0000
  C   C21       1.0  0.0912557471835598  0.22679046065229616  0.9985982836883806  1.0000
  C   C22       1.0  0.40875255285866535  0.7267889427700569  0.5013990186414503  1.0000
  C   C23       1.0  0.9087568848463193  0.7732073270479559  0.0014008289526330046  1.0000
  C   C24       1.0  0.5912452011216018  0.27320782874306104  0.4985997148435075  1.0000
  C   C25       1.0  0.3095648931415623  0.6418651013470866  0.8425374482401082  1.0000
  C   C26       1.0  0.190440463436758  0.14186901365290794  0.6574569424344077  1.0000
  C   C27       1.0  0.6904369107219138  0.3581347186903019  0.1574622545687703  1.0000
  C   C28       1.0  0.809568106506248  0.858130806390726  0.3425425616105287  1.0000
  C   C29       1.0  0.5448787781510092  0.03156056509273951  0.9605885081967853  1.0000
  C   C30       1.0  0.9551204317529881  0.5315540312202531  0.5394122757265052  1.0000
  C   C31       1.0  0.4551068323233096  0.9684514490142605  0.03940663695210839  1.0000
  C   C32       1.0  0.04488271189840991  0.46844883733879084  0.46058888413023874  1.0000
  N   N1        1.0  0.30746743399176063  0.5524471017240701  0.0914014344748963  1.0000
  N   N2        1.0  0.19252889283031743  0.05244580424148639  0.4085987586662795  1.0000
  N   N3        1.0  0.692528974110587  0.4475567830032504  0.9085965223260005  1.0000
  N   N4        1.0  0.8074634165410045  0.94755401578648  0.5914036717223466  1.0000
  O   O1        1.0  0.0272959373707167  0.18947472036875726  0.07020900883148327  1.0000
  O   O2        1.0  0.4727103158753962  0.6894812226189162  0.42978777242798566  1.0000
  O   O3        1.0  0.9727112866738495  0.8105190026322336  0.9297897185295839  1.0000
  O   O4        1.0  0.5272888084232791  0.3105196135903868  0.5702090162850482  1.0000
  O   O5        1.0  0.09140560354088478  0.15761649428368688  0.9259602320398768  1.0000
  O   O6        1.0  0.40860519162549735  0.6576068083429905  0.5740365845540438  1.0000
  O   O7        1.0  0.9086042939848086  0.8423904389756491  0.07404208978077519  1.0000
  O   O8        1.0  0.5914007414852736  0.34238894700585126  0.4259552428474507  1.0000
  O   O9        1.0  0.30860524108698684  0.5785747797182454  0.7676574530220748  1.0000
  O   O10       1.0  0.19139851795635818  0.07856646011380522  0.7323422860630798  1.0000
  O   O11       1.0  0.6913844009405635  0.42143215352363234  0.2323407025427144  1.0000
  O   O12       1.0  0.8086087122018809  0.9214323437553918  0.2676557609339625  1.0000
  O   O13       1.0  0.33233769703329596  0.7696479342331699  0.8517412095258974  1.0000
  O   O14       1.0  0.16766935364978514  0.2696365670720127  0.6482593970722091  1.0000
  O   O15       1.0  0.6676708668055158  0.23035290198388492  0.1482589748829781  1.0000
  O   O16       1.0  0.8323364817637681  0.7303561397530489  0.3517433161525858  1.0000
  O   O17       1.0  0.4474299258287999  0.04931304887212922  0.8841289075261614  1.0000
  O   O18       1.0  0.052561580441320595  0.5493077693025655  0.6158692851558882  1.0000
  O   O19       1.0  0.5525529562186834  0.9506898196692721  0.1158687664386733  1.0000
  O   O20       1.0  0.9474361735389464  0.4506890022105524  0.38412944832906243  1.0000
  O   O21       1.0  0.7109978185996723  0.06199307950379313  0.9789725895043873  1.0000
  O   O22       1.0  0.7889960901182393  0.5619943803432221  0.5210264475363003  1.0000
  O   O23       1.0  0.2889823411535986  0.9380179184234548  0.021026932912192802  1.0000
  O   O24       1.0  0.21100977584315928  0.4380105205660102  0.478972863868556  1.0000
  O   O25       1.0  0.9988886947570493  0.8156842891846738  0.7325073637302993  1.0000
  O   O26       1.0  0.501104619788876  0.31568881257741316  0.7674949715195466  1.0000
  O   O27       1.0  0.0011104112227045  0.18431553085046914  0.2674914660746168  1.0000
  O   O28       1.0  0.4988917577829924  0.6843140559753709  0.23250638710113236  1.0000
  O   O29       1.0  0.8333591146991424  0.026180229430529806  0.8120213705441088  1.0000
  O   O30       1.0  0.6666373867176106  0.5261802016355477  0.6879778601657873  1.0000
  O   O31       1.0  0.16664399231126484  0.9738185744329829  0.18798387149641366  1.0000
  O   O32       1.0  0.33335092772725966  0.47381961839063547  0.3120174776232858  1.0000
