data_image0
_chemical_formula_structural       Li6H42C39O15
_chemical_formula_sum              "Li6 H42 C39 O15"
_cell_length_a       10.09358465119228
_cell_length_b       11.341770582220315
_cell_length_c       11.34397336439523
_cell_angle_alpha    120.01281834577976
_cell_angle_beta     90.03150769385094
_cell_angle_gamma    90.01147634069271

_space_group_name_H-M_alt    "P 1"
_space_group_IT_number       1

loop_
  _space_group_symop_operation_xyz
  'x, y, z'

loop_
  _atom_site_type_symbol
  _atom_site_label
  _atom_site_symmetry_multiplicity
  _atom_site_fract_x
  _atom_site_fract_y
  _atom_site_fract_z
  _atom_site_occupancy
  Li  Li1       1.0  0.9746070475947166  0.10675241453520098  0.08349902037943481  1.0000
  Li  Li2       1.0  0.6410176545716624  0.9165394837123699  0.023474134535881364  1.0000
  Li  Li3       1.0  0.3076514432659891  0.9764977477064459  0.8928203729795712  1.0000
  Li  Li4       1.0  0.1022771061909538  0.828342611258989  0.9038023088713061  1.0000
  Li  Li5       1.0  0.7689352377195106  0.09625055515397204  0.924834853172392  1.0000
  Li  Li6       1.0  0.4356702071342581  0.07536948230761449  0.1713762982362184  1.0000
  H   H1        1.0  0.9315653088217317  0.12530088974583004  0.3212654665816714  1.0000
  H   H2        1.0  0.5977972058630242  0.6785878889731262  0.8041433227409341  1.0000
  H   H3        1.0  0.2640537092822726  0.19566765015805027  0.874245932573139  1.0000
  H   H4        1.0  0.17533295170392188  0.7367935293513309  0.3102685938316014  1.0000
  H   H5        1.0  0.8414440461301138  0.6903716985295458  0.4271023595122968  1.0000
  H   H6        1.0  0.5079788797321498  0.573279710344579  0.2629126389441012  1.0000
  H   H7        1.0  0.1376754104115321  0.8394411288833793  0.5613416907835004  1.0000
  H   H8        1.0  0.8044164210528564  0.4391874963235337  0.2785719526143637  1.0000
  H   H9        1.0  0.4709632988951142  0.7215116201132901  0.1602023080436369  1.0000
  H   H10       1.0  0.14075490803043073  0.7440297216193982  0.0981533622161805  1.0000
  H   H11       1.0  0.8066740553779538  0.9024210115191237  0.6465554137815277  1.0000
  H   H12       1.0  0.4733836467807322  0.35382511748788653  0.2556082501755128  1.0000
  H   H13       1.0  0.9044221095728063  0.23174920348955647  0.57010558714002  1.0000
  H   H14       1.0  0.5714893809297692  0.429518867436549  0.6617111766447934  1.0000
  H   H15       1.0  0.2371080555318201  0.3381106914072517  0.7677045532934484  1.0000
  H   H16       1.0  0.9343297715576429  0.22144391594230223  0.7830536266574556  1.0000
  H   H17       1.0  0.6019058319719761  0.21665860148901558  0.4384003583425695  1.0000
  H   H18       1.0  0.26755152868605586  0.5614395478397468  0.7780868097396834  1.0000
  H   H19       1.0  0.8945747234349781  0.6856420054287965  0.8368141703374049  1.0000
  H   H20       1.0  0.5615906777624105  0.16305752413559557  0.8486775145197144  1.0000
  H   H21       1.0  0.22844227748353063  0.15139511278415793  0.3145568862852032  1.0000
  H   H22       1.0  0.9069305946808228  0.49416870102702143  0.6426428446235449  1.0000
  H   H23       1.0  0.5739976213703883  0.3576718046507564  0.8522997921770568  1.0000
  H   H24       1.0  0.24134416270829465  0.148229263064401  0.5057013656826115  1.0000
  H   H25       1.0  0.0750366374105127  0.48032829193053317  0.6828815031627969  1.0000
  H   H26       1.0  0.7420129935807794  0.31756874471026453  0.798002704752996  1.0000
  H   H27       1.0  0.4093859779131462  0.20252943395362877  0.519621618096096  1.0000
  H   H28       1.0  0.0339426773059301  0.578244426917031  0.6032601371220707  1.0000
  H   H29       1.0  0.7012174871279341  0.3967250398436447  0.9755650447669595  1.0000
  H   H30       1.0  0.36835561385453264  0.024909830566052393  0.4213554791951211  1.0000
  H   H31       1.0  0.20346498242324876  0.18879795613175787  0.14844655109467914  1.0000
  H   H32       1.0  0.8701839653112489  0.8516124634401192  0.04050626915665841  1.0000
  H   H33       1.0  0.5366067165479079  0.9597116522316821  0.8112116219711468  1.0000
  H   H34       1.0  0.20050526486319598  0.4074566715589468  0.3426907382868407  1.0000
  H   H35       1.0  0.8667100736361563  0.6574189669892189  0.06476504977483427  1.0000
  H   H36       1.0  0.5336046256272482  0.9353995259622604  0.5926427121432738  1.0000
  H   H37       1.0  0.023762687686826205  0.39215178521194344  0.3430871358428149  1.0000
  H   H38       1.0  0.6899661480156993  0.6570183712353026  0.04882546851139581  1.0000
  H   H39       1.0  0.35682542752243057  0.9510588657863219  0.6077725314919319  1.0000
  H   H40       1.0  0.10380287827536701  0.405514472896634  0.20934958357251082  1.0000
  H   H41       1.0  0.7700799328095655  0.7906968232567663  0.1961266271833466  1.0000
  H   H42       1.0  0.43689539715567355  0.8039425758682838  0.5944105793956709  1.0000
  C   C1        1.0  0.04342020181039889  0.0177261412516572  0.8087011494738052  1.0000
  C   C2        1.0  0.7104940596889264  0.19138177269890377  0.2092435101762291  1.0000
  C   C3        1.0  0.3768068330044159  0.7907618028709605  0.9819611390005676  1.0000
  C   C4        1.0  0.03327714536175821  0.9358066662502794  0.19473767637313713  1.0000
  C   C5        1.0  0.6993260048781806  0.8054532771919509  0.7414230644597525  1.0000
  C   C6        1.0  0.36586393797701083  0.25863085792604323  0.06379059177479722  1.0000
  C   C7        1.0  0.003507819279036501  0.03933279613617198  0.4414244034588037  1.0000
  C   C8        1.0  0.6699915036768473  0.5586539132024907  0.5981584252411308  1.0000
  C   C9        1.0  0.3360952956002876  0.4018261134887594  0.9602645684091796  1.0000
  C   C10       1.0  0.9860462886305538  0.0411197454146759  0.3190680336982652  1.0000
  C   C11       1.0  0.6522278277508917  0.6809827155583646  0.7222670183775008  1.0000
  C   C12       1.0  0.31848259579411586  0.2776888575980081  0.9585312894140401  1.0000
  C   C13       1.0  0.12198060775768478  0.8218893533156545  0.3127738304908689  1.0000
  C   C14       1.0  0.7880994209520296  0.6877247083862839  0.5095889121459224  1.0000
  C   C15       1.0  0.45462658695808494  0.4906478380935012  0.177777403731433  1.0000
  C   C16       1.0  0.072288560613039  0.9270180341032912  0.43937556735120625  1.0000
  C   C17       1.0  0.738679961028879  0.5609552652186025  0.4880115806472957  1.0000
  C   C18       1.0  0.4049643035559143  0.5120710985406873  0.07259510719875807  1.0000
  C   C19       1.0  0.08791195379350109  0.9251355305666988  0.5619221626194388  1.0000
  C   C20       1.0  0.7547008341928957  0.4384263817197008  0.36361121531194845  1.0000
  C   C21       1.0  0.4210305539801951  0.6364492368233668  0.07449429594484512  1.0000
  C   C22       1.0  0.037205012804747604  0.028629309467476095  0.6836692187991105  1.0000
  C   C23       1.0  0.7042822545416172  0.31649633703923996  0.3452249044891573  1.0000
  C   C24       1.0  0.37040799716938017  0.6547478714788678  0.970979830595155  1.0000
  C   C25       1.0  0.1038305732054923  0.8261631775132584  0.19490617458160384  1.0000
  C   C26       1.0  0.7698343341166165  0.8055406068837525  0.6317704018414432  1.0000
  C   C27       1.0  0.43647535986914926  0.368494724047494  0.17348184802948202  1.0000
  C   C28       1.0  0.955559372199609  0.14603781353964249  0.5684379730005205  1.0000
  C   C29       1.0  0.622489418314771  0.43144217845116367  0.5777734858843717  1.0000
  C   C30       1.0  0.2882702038831866  0.422128763016623  0.853498034089391  1.0000
  C   C31       1.0  0.9714968611082779  0.14048448497159427  0.6859579342258115  1.0000
  C   C32       1.0  0.6387004874170898  0.31396775010269096  0.4546894234654673  1.0000
  C   C33       1.0  0.3045286507113687  0.54522426961757  0.8590903528313021  1.0000
  C   C34       1.0  0.0012829178959635  0.5487967972749672  0.6775265071885246  1.0000
  C   C35       1.0  0.6683784334617755  0.32266692739774777  0.8717751890384025  1.0000
  C   C36       1.0  0.3356109147789041  0.12867983217428494  0.4510643882521421  1.0000
  C   C37       1.0  0.11216319356970672  0.36364399211657866  0.2782903074779455  1.0000
  C   C38       1.0  0.7784734147695856  0.7218040954765924  0.08528337699279835  1.0000
  C   C39       1.0  0.4452734196618024  0.9147913422158352  0.6363241976384018  1.0000
  O   O1        1.0  0.0095488307329461  0.9333741500886673  0.0777517578827584  1.0000
  O   O2        1.0  0.6755599635129456  0.9223853648935073  0.8560376392377904  1.0000
  O   O3        1.0  0.3423656726791577  0.1440255463624709  0.06620786687177832  1.0000
  O   O4        1.0  0.13052452240425785  0.9403657469434845  0.8167591125006979  1.0000
  O   O5        1.0  0.7977046681749514  0.1833034010431049  0.1239153616361932  1.0000
  O   O6        1.0  0.4639978232293629  0.8761322180091469  0.059454635861541864  1.0000
  O   O7        1.0  0.9593036242439795  0.08499934637006848  0.9027844773227615  1.0000
  O   O8        1.0  0.626216837302394  0.09732070935777408  0.18228196561349821  1.0000
  O   O9        1.0  0.2927487544871141  0.817687163789493  0.9146804113125597  1.0000
  O   O10       1.0  0.9881080596657482  0.6673241387763297  0.8099879110149004  1.0000
  O   O11       1.0  0.6551339659191768  0.18999864498229607  0.8573170657835476  1.0000
  O   O12       1.0  0.3220469664742254  0.14296989448945396  0.33279390350339366  1.0000
  O   O13       1.0  0.11888680715431829  0.21763917316822293  0.2037283779819603  1.0000
  O   O14       1.0  0.785420839700187  0.7965186053051311  0.01405525580086223  1.0000
  O   O15       1.0  0.45201641255636826  0.9861842055642354  0.7823160300031518  1.0000
