data_image0
_chemical_formula_structural       Hg2H24C28Br4N4O8
_chemical_formula_sum              "Hg2 H24 C28 Br4 N4 O8"
_cell_length_a       4.913437052337616
_cell_length_b       11.662297124081483
_cell_length_c       15.324131598996138
_cell_angle_alpha    103.85943798238873
_cell_angle_beta     90.00266092684576
_cell_angle_gamma    102.16007237414958

_space_group_name_H-M_alt    "P 1"
_space_group_IT_number       1

loop_
  _space_group_symop_operation_xyz
  'x, y, z'

loop_
  _atom_site_type_symbol
  _atom_site_label
  _atom_site_symmetry_multiplicity
  _atom_site_fract_x
  _atom_site_fract_y
  _atom_site_fract_z
  _atom_site_occupancy
  Hg  Hg1       1.0  0.47391322115669954  6.262330860810005e-05  0.250042228768116  1.0000
  Hg  Hg2       1.0  0.5260855901895952  0.999936595414731  0.7499576857761097  1.0000
  H   H1        1.0  0.2568431255006232  0.5660813971227087  0.5148612548157274  1.0000
  H   H2        1.0  0.6906952821666011  0.4339590444049649  0.9851350578667134  1.0000
  H   H3        1.0  0.7431581736521267  0.43391872682882854  0.4851381725699965  1.0000
  H   H4        1.0  0.3093039817519524  0.5660410795485403  0.014864369504209688  1.0000
  H   H5        1.0  0.5531610976572026  0.6013212640664279  0.4493996272137365  1.0000
  H   H6        1.0  0.9518127829327838  0.39865803483339585  0.05057395597307848  1.0000
  H   H7        1.0  0.4468381662613439  0.3986788598870775  0.5505998001571867  1.0000
  H   H8        1.0  0.04818648098576977  0.6013420891201166  0.9494254713978448  1.0000
  H   H9        1.0  0.9218453086246541  0.24863621000452696  0.3371696254332334  1.0000
  H   H10       1.0  0.6732715887671077  0.751327640574985  0.16277635672428659  1.0000
  H   H11       1.0  0.07815440766275836  0.7513648186779066  0.6628299672384299  1.0000
  H   H12       1.0  0.326727222579187  0.24867157814835378  0.8372235578199392  1.0000
  H   H13       1.0  0.824955071810521  0.04497486537068341  0.07331794847908668  1.0000
  H   H14       1.0  0.7798036289050713  0.9549582090395743  0.42663031336827106  1.0000
  H   H15       1.0  0.17504577476997712  0.9550243533506804  0.9266819660799398  1.0000
  H   H16       1.0  0.22019721787881963  0.045041010183034316  0.5733689487167124  1.0000
  H   H17       1.0  0.25368269853522923  0.17494092858279936  0.029620891282562005  1.0000
  H   H18       1.0  0.07858764150278566  0.82503225186219  0.47036698322655457  1.0000
  H   H19       1.0  0.7463161128110657  0.8250582901405398  0.9703790232616638  1.0000
  H   H20       1.0  0.9214132050777125  0.17496696685917357  0.5296329313324718  1.0000
  H   H21       1.0  0.5272716027914582  0.3495258749702542  0.15039773536391715  1.0000
  H   H22       1.0  0.17776658422637573  0.650480418246829  0.3495996183729772  1.0000
  H   H23       1.0  0.4727272087582221  0.6504733442543298  0.8496015267062659  1.0000
  H   H24       1.0  0.8222347149263809  0.3495197057047079  0.6503998090127465  1.0000
  C   C1        1.0  0.4093643813494339  0.41170691227903694  0.3234117756670827  1.0000
  C   C2        1.0  0.9978189795100789  0.5882977983948193  0.1765859514164063  1.0000
  C   C3        1.0  0.5906348825691197  0.5882932116744757  0.6765876517038405  1.0000
  C   C4        1.0  0.0021802844084745847  0.4117023255586929  0.823413475954524  1.0000
  C   C5        1.0  0.4156453800197326  0.5295440605523964  0.4736218330456977  1.0000
  C   C6        1.0  0.8860542789525497  0.4704616557025929  0.02637724968551682  1.0000
  C   C7        1.0  0.5843543362676797  0.4704569681300441  0.5263777596259729  1.0000
  C   C8        1.0  0.11394498496599678  0.5295384682509193  0.9736221776854064  1.0000
  C   C9        1.0  0.24397252101283579  0.3122892640030699  0.2519998210260041  1.0000
  C   C10       1.0  0.9318741484026842  0.6877527891108812  0.24797168223069116  1.0000
  C   C11       1.0  0.7560267429057106  0.6877108599504426  0.747999606344919  1.0000
  C   C12       1.0  0.06812669838120661  0.31224643011172765  0.7520275798542854  1.0000
  C   C13       1.0  0.00257465668413907  0.2359790261863211  0.27007790359532885  1.0000
  C   C14       1.0  0.7667093330543794  0.764034482123691  0.22986969426356293  1.0000
  C   C15       1.0  0.9974246070310216  0.7640210972659391  0.7299221762496442  1.0000
  C   C16       1.0  0.2332919660983777  0.23596564182784618  0.7701297331221608  1.0000
  C   C17       1.0  0.9501157509901359  0.12186803283186261  0.12226023537417058  1.0000
  C   C18       1.0  0.8281808151672363  0.8780965372109435  0.37769703126431853  1.0000
  C   C19       1.0  0.04988351272502446  0.8781320906203969  0.8777398444707952  1.0000
  C   C20       1.0  0.17182048378212758  0.1219035862393483  0.6223030485954553  1.0000
  C   C21       1.0  0.18771534781227928  0.19457682596853224  0.09852716102849257  1.0000
  C   C22       1.0  0.9930552181961333  0.8054054926857789  0.4014563049942551  1.0000
  C   C23       1.0  0.8122854987682188  0.8054223927528238  0.9014727535305338  1.0000
  C   C24       1.0  0.00694562838437207  0.19459372603557765  0.5985436095647712  1.0000
  C   C25       1.0  0.3384738150639421  0.2904334141047329  0.16465451908587878  1.0000
  C   C26       1.0  0.04817732037882651  0.7096075898281881  0.33531809180245625  1.0000
  C   C27       1.0  0.6615274836820362  0.7095667088443064  0.8353462132479377  1.0000
  C   C28       1.0  0.9518239787739231  0.2903925341233489  0.6646813355832676  1.0000
  Br  Br1       1.0  0.29593788308639535  0.871172044987574  0.09401710954669076  1.0000
  Br  Br2       1.0  0.42688686578089374  0.12910822361870802  0.4062131513944748  1.0000
  Br  Br3       1.0  0.7040634158629757  0.1288280784627176  0.9059829703130757  1.0000
  Br  Br4       1.0  0.5731123979342669  0.870891899833552  0.5937869284504983  1.0000
  N   N1        1.0  0.8615097118997566  0.1423265052687626  0.20642808624339884  1.0000
  N   N2        1.0  0.7192436361291356  0.8576599789862059  0.29351996647734063  1.0000
  N   N3        1.0  0.1384879689500663  0.8576745229144008  0.7935721588875068  1.0000
  N   N4        1.0  0.2807576628202355  0.14234014446407878  0.7064801133824331  1.0000
  O   O1        1.0  0.6497805284247348  0.4626627779378367  0.31632246273107967  1.0000
  O   O2        1.0  0.1870636948441557  0.5372338755302621  0.18370739395016494  1.0000
  O   O3        1.0  0.3502187352904258  0.5373373455144305  0.6836776171138864  1.0000
  O   O4        1.0  0.8129351167055247  0.4627653436943219  0.8162918681200108  1.0000
  O   O5        1.0  0.2636282361498417  0.43856349143941736  0.3984010785159028  1.0000
  O   O6        1.0  0.8251508703421067  0.5614496592317906  0.10161082772892628  1.0000
  O   O7        1.0  0.7363689925345013  0.5614366325160702  0.6015983488402197  1.0000
  O   O8        1.0  0.17485088077273755  0.438551368446177  0.8983900699056304  1.0000
