data_image0
_chemical_formula_structural       Zn2H12C22N2O10
_chemical_formula_sum              "Zn2 H12 C22 N2 O10"
_cell_length_a       9.759037506493796
_cell_length_b       11.050015315627382
_cell_length_c       11.903869021705434
_cell_angle_alpha    89.81249004417253
_cell_angle_beta     88.15842617185146
_cell_angle_gamma    91.11480564431471

_space_group_name_H-M_alt    "P 1"
_space_group_IT_number       1

loop_
  _space_group_symop_operation_xyz
  'x, y, z'

loop_
  _atom_site_type_symbol
  _atom_site_label
  _atom_site_symmetry_multiplicity
  _atom_site_fract_x
  _atom_site_fract_y
  _atom_site_fract_z
  _atom_site_occupancy
  Zn  Zn1       1.0  0.36287773586633415  0.49428847663682524  0.5061137667739786  1.0000
  Zn  Zn2       1.0  0.6510242795542212  0.49946475988422645  0.4966880832084187  1.0000
  H   H1        1.0  0.72670450287022  0.8892587332603771  0.47042028372447225  1.0000
  H   H2        1.0  0.13349886248271048  0.7053066456084878  0.6829229754427502  1.0000
  H   H3        1.0  0.8602864537649211  0.5747851887395541  0.7547268606489156  1.0000
  H   H4        1.0  0.8765431412402547  0.7128065719804726  0.6757505135926536  1.0000
  H   H5        1.0  0.726364628942946  0.11379972684843413  0.4740427976536168  1.0000
  H   H6        1.0  0.18412918151296506  0.07618525776080531  0.4474253843753573  1.0000
  H   H7        1.0  0.22258210236686435  0.9068423941311041  0.646183468003187  1.0000
  H   H8        1.0  0.8840496190482765  0.4040723655885615  0.3475591147411663  1.0000
  H   H9        1.0  0.1419865745866957  0.40029811268259163  0.3524494402611751  1.0000
  H   H10       1.0  0.12086105117739271  0.5669805979746768  0.7617438961903886  1.0000
  H   H11       1.0  0.2331786284943576  0.21101783814353334  0.6110993779575864  1.0000
  H   H12       1.0  0.2170052993324418  0.7765567385433697  0.46766721554628526  1.0000
  C   C1        1.0  0.5075974338530641  0.7324911439264451  0.49983240773899956  1.0000
  C   C2        1.0  0.5090214312151673  0.8669617377366521  0.5024059245162249  1.0000
  C   C3        1.0  0.6306262494802509  0.9363320470211676  0.4848152276556377  1.0000
  C   C4        1.0  0.6302926622504542  0.06278228736598383  0.4860872841645972  1.0000
  C   C5        1.0  0.5080280089945218  0.127443469661479  0.5017794840614229  1.0000
  C   C6        1.0  0.38825757083916557  0.057614710443729705  0.5156207692320365  1.0000
  C   C7        1.0  0.23319034128638086  0.06236328488350299  0.5288276814605055  1.0000
  C   C8        1.0  0.23875650452409755  0.920895788092047  0.5545557439618136  1.0000
  C   C9        1.0  0.932111854582523  0.5508258920990982  0.5787534647230785  1.0000
  C   C10       1.0  0.9387596098576411  0.445851090760577  0.4162828466383672  1.0000
  C   C11       1.0  0.08136128128933959  0.4431530368765026  0.41919017909469153  1.0000
  C   C12       1.0  0.5027101000441617  0.5009153395093335  0.720792495809043  1.0000
  C   C13       1.0  0.07484465982675197  0.5472973156279155  0.5822930616923685  1.0000
  C   C14       1.0  0.08039146004287552  0.6172088858047077  0.6908674959114975  1.0000
  C   C15       1.0  0.917711242307959  0.621917029809893  0.6864066643199038  1.0000
  C   C16       1.0  0.5071901740202877  0.2619656401070429  0.503848664889972  1.0000
  C   C17       1.0  0.5079727116349702  0.4915857981576011  0.2822688204620079  1.0000
  C   C18       1.0  0.5018328970289687  0.49990213155463453  0.8421594097336395  1.0000
  C   C19       1.0  0.5018806250489618  0.49722935062926144  0.9449816846921593  1.0000
  C   C20       1.0  0.5027173430156537  0.49431385636268027  0.05833413364160121  1.0000
  C   C21       1.0  0.5042475371172941  0.49182731985438727  0.16106854572627333  1.0000
  C   C22       1.0  0.3898381378523084  0.9320852917681393  0.521566308166939  1.0000
  N   N1        1.0  0.8607985976702395  0.5006139559425121  0.49738239399563616  1.0000
  N   N2        1.0  0.1526485061684753  0.49436837169885456  0.5039334280655865  1.0000
  O   O1        1.0  0.3914931923885873  0.6796372525145673  0.4845284884207288  1.0000
  O   O2        1.0  0.6205844277953005  0.6797118186044456  0.5126152826965793  1.0000
  O   O3        1.0  0.3883674791199708  0.5205089738312765  0.6757519787237172  1.0000
  O   O4        1.0  0.6173173056156003  0.482029830285569  0.6707054771885552  1.0000
  O   O5        1.0  0.39274195783912796  0.3114331653155419  0.5302947851599171  1.0000
  O   O6        1.0  0.6191492166750834  0.31830392704636523  0.4798164803562557  1.0000
  O   O7        1.0  0.394518285308095  0.46944822392610064  0.3353813866281712  1.0000
  O   O8        1.0  0.623870203104694  0.513969524035666  0.3242480689111815  1.0000
  O   O9        1.0  0.1764057141568642  0.1367618386659188  0.6141706607964821  1.0000
  O   O10       1.0  0.1549681069535751  0.8408906969525914  0.4923929420974602  1.0000
