data_image0
_chemical_formula_structural       Gd2Cu4H32C34I4N4O16
_chemical_formula_sum              "Gd2 Cu4 H32 C34 I4 N4 O16"
_cell_length_a       8.000081156208031
_cell_length_b       8.061811618127019
_cell_length_c       18.823128540027103
_cell_angle_alpha    86.86093313583825
_cell_angle_beta     85.69286120613103
_cell_angle_gamma    79.54736615200993

_space_group_name_H-M_alt    "P 1"
_space_group_IT_number       1

loop_
  _space_group_symop_operation_xyz
  'x, y, z'

loop_
  _atom_site_type_symbol
  _atom_site_label
  _atom_site_symmetry_multiplicity
  _atom_site_fract_x
  _atom_site_fract_y
  _atom_site_fract_z
  _atom_site_occupancy
  Gd  Gd1       1.0  0.7924475513353784  0.19989101404377863  0.4938702424640411  1.0000
  Gd  Gd2       1.0  0.2075211866788749  0.8000903020767396  0.5061296893436092  1.0000
  Cu  Cu1       1.0  0.6209875870987385  0.09164817155616589  0.9833766959750676  1.0000
  Cu  Cu2       1.0  0.37902803398381474  0.9083533177251013  0.016630485715602085  1.0000
  Cu  Cu3       1.0  0.9006675122959177  0.8950185540390762  0.022014975048712405  1.0000
  Cu  Cu4       1.0  0.09935974145349749  0.10497910668112098  0.9779828225416977  1.0000
  H   H1        1.0  0.6051401782764927  0.9330844888636632  0.4332267349170493  1.0000
  H   H2        1.0  0.3948234651715907  0.0669044079019159  0.5667737334193106  1.0000
  H   H3        1.0  0.7988505363796037  0.8536879474892556  0.45197494079737766  1.0000
  H   H4        1.0  0.2011176816354805  0.14630976936936688  0.548021941152598  1.0000
  H   H5        1.0  0.43641274462167695  0.21844869812560563  0.4525080949367464  1.0000
  H   H6        1.0  0.5635505516422582  0.7815566144732172  0.5474940984405592  1.0000
  H   H7        1.0  0.4623929322130422  0.4069905867270762  0.431872161450748  1.0000
  H   H8        1.0  0.5375970292404871  0.5930045795949042  0.568123416002578  1.0000
  H   H9        1.0  0.9110579580665643  0.8916438157667484  0.743957954444184  1.0000
  H   H10       1.0  0.08893693953889678  0.10836778423558967  0.2560465826807813  1.0000
  H   H11       1.0  0.8574280054466638  0.23119759539405746  0.6575500627075925  1.0000
  H   H12       1.0  0.14255456046321768  0.7688038902558176  0.34244564035111574  1.0000
  H   H13       1.0  0.7948625265588234  0.017068323346329396  0.8434541371992879  1.0000
  H   H14       1.0  0.20514285427994128  0.9829331587537309  0.1565475944829515  1.0000
  H   H15       1.0  0.48154685133415137  0.43673392648197756  0.9264788675899639  1.0000
  H   H16       1.0  0.5184802554340846  0.5632738677078918  0.0735298381730445  1.0000
  H   H17       1.0  0.5160477125651752  0.6103579564899773  0.8141795202172162  1.0000
  H   H18       1.0  0.483966597284187  0.3896435291681257  0.1858261180879239  1.0000
  H   H19       1.0  0.6962214702931672  0.47319450360365767  0.7098565248913218  1.0000
  H   H20       1.0  0.3037695626507996  0.5268032097051433  0.290146385682192  1.0000
  H   H21       1.0  0.36055139652327733  0.48665705656534897  0.663666982728479  1.0000
  H   H22       1.0  0.639431127736472  0.5133520074498676  0.3363301249581312  1.0000
  H   H23       1.0  0.3726530197572088  0.11022461149021719  0.7072136797502253  1.0000
  H   H24       1.0  0.6273611891443238  0.8897755831978315  0.292782962428241  1.0000
  H   H25       1.0  0.11572313944571988  0.5583372877055055  0.7209565042055246  1.0000
  H   H26       1.0  0.8843048610584531  0.4416717557921784  0.2790484163738256  1.0000
  H   H27       1.0  0.9276362086748262  0.6468611552305744  0.8304093463735142  1.0000
  H   H28       1.0  0.07241426606766767  0.35314913711090407  0.1695983964373582  1.0000
  H   H29       1.0  0.9210993115456957  0.44558854252570507  0.9347819219045803  1.0000
  H   H30       1.0  0.07893355804409907  0.5544141827839437  0.06522243901979148  1.0000
  H   H31       1.0  0.2603353571251432  0.0718964206212362  0.8309081364321642  1.0000
  H   H32       1.0  0.739666208470872  0.9280974789529423  0.16908968264276333  1.0000
  C   C1        1.0  0.9869585099184871  0.9136907586929082  0.6305706380346265  1.0000
  C   C2        1.0  0.013018381409573  0.08630192169037089  0.3694329440121393  1.0000
  C   C3        1.0  0.9090743868143887  0.9823364293400302  0.6986527486968014  1.0000
  C   C4        1.0  0.09091462005140019  0.017665064362233796  0.3013474880237935  1.0000
  C   C5        1.0  0.846014157976441  0.14825398500786244  0.7048890042840907  1.0000
  C   C6        1.0  0.1539756707580863  0.8517500338771454  0.2951116684809065  1.0000
  C   C7        1.0  0.7572008690243166  0.2322614481500693  0.7670376466801228  1.0000
  C   C8        1.0  0.24279885926342357  0.7677438303097545  0.2329652697012818  1.0000
  C   C9        1.0  0.7347250901023584  0.14824979550497364  0.833376013295812  1.0000
  C   C10       1.0  0.26528403241926657  0.851751680692196  0.1666250431000975  1.0000
  C   C11       1.0  0.5608906486345262  0.38385816246537263  0.8805426030451784  1.0000
  C   C12       1.0  0.4391269519365933  0.6161458422039132  0.1194623137210939  1.0000
  C   C13       1.0  0.5798179669117474  0.47897820815062186  0.8174694586878245  1.0000
  C   C14       1.0  0.42019532580538765  0.5210283172721831  0.1825329038464929  1.0000
  C   C15       1.0  0.6797425947089125  0.4031819951065714  0.7603621239985187  1.0000
  C   C16       1.0  0.320259621633518  0.5968232788589204  0.23964016534389998  1.0000
  C   C17       1.0  0.5324981344694565  0.28954185779818425  0.6077533603890117  1.0000
  C   C18       1.0  0.4674862847035753  0.7104558323631096  0.3922402416240018  1.0000
  C   C19       1.0  0.3953547443924207  0.3499827570515989  0.6609129931043967  1.0000
  C   C20       1.0  0.6046353575487089  0.6500174392403437  0.33907660760930003  1.0000
  C   C21       1.0  0.32740197055709064  0.24646049323466454  0.7089428043848685  1.0000
  C   C22       1.0  0.672599660412544  0.7535472939042264  0.2910557248949743  1.0000
  C   C23       1.0  0.20669407623297784  0.30716473560075025  0.7674901601917411  1.0000
  C   C24       1.0  0.7933259163844822  0.6928392561880086  0.23251147681408924  1.0000
  C   C25       1.0  0.11019744763531486  0.47181022936557326  0.7674485768264957  1.0000
  C   C26       1.0  0.8898347422660393  0.5282038650349816  0.23255818043555368  1.0000
  C   C27       1.0  0.006179302963040833  0.5217518825547243  0.8276109522867684  1.0000
  C   C28       1.0  0.9938637904979899  0.47826344820802547  0.1723911032685592  1.0000
  C   C29       1.0  0.0007229956677860978  0.40962435098004596  0.8864696576029588  1.0000
  C   C30       1.0  0.9993051535102638  0.5903834233516676  0.11353316392550278  1.0000
  C   C31       1.0  0.18991003175256077  0.20139652964619606  0.8282783962577867  1.0000
  C   C32       1.0  0.8101077509562842  0.7986049266277034  0.1717191391409472  1.0000
  C   C33       1.0  0.9329341328894709  0.5568739537980887  0.4779650580946893  1.0000
  C   C34       1.0  0.06704094626929445  0.4431098150501782  0.5220143772932744  1.0000
  I   I1        1.0  0.8276850155763356  0.20519018428151983  0.06551961850364312  1.0000
  I   I2        1.0  0.17234830497456238  0.7948100161140701  0.9344847886732738  1.0000
  I   I3        1.0  0.3281233475080754  0.22630216726005153  0.047748224480564296  1.0000
  I   I4        1.0  0.6718902474962931  0.7737031024146716  0.9522562833571869  1.0000
  N   N1        1.0  0.6387916399258556  0.22127044848129876  0.8886520350048315  1.0000
  N   N2        1.0  0.36122435531112257  0.7787285091769575  0.11135307076121141  1.0000
  N   N3        1.0  0.09080735844333528  0.251336026880999  0.8869359458009285  1.0000
  N   N4        1.0  0.9092076997148837  0.7486603955310895  0.11306554065496499  1.0000
  O   O1        1.0  0.8075386515778646  0.4975824382940033  0.46130288924211976  1.0000
  O   O2        1.0  0.19243375244899844  0.5024026008601084  0.5386782111471362  1.0000
  O   O3        1.0  0.9454083598302744  0.988895376948399  0.5702754348376899  1.0000
  O   O4        1.0  0.054569062512356895  0.011087203509958999  0.42972784992229407  1.0000
  O   O5        1.0  0.5651757498449399  0.13693119812344892  0.5878305489940274  1.0000
  O   O6        1.0  0.4347952503257915  0.8630715576287001  0.412163973531662  1.0000
  O   O7        1.0  0.705563152890619  0.9543409910551401  0.4577126516579142  1.0000
  O   O8        1.0  0.29440698417889877  0.045646636210662485  0.5422875985679738  1.0000
  O   O9        1.0  0.5233177118775671  0.28707855356286427  0.4389060480706135  1.0000
  O   O10       1.0  0.4766581321011925  0.7129128640947044  0.561097074805474  1.0000
  O   O11       1.0  0.09897034598033372  0.7792830097056294  0.6306392273393442  1.0000
  O   O12       1.0  0.9009997960286639  0.22070590014404698  0.3693673662917689  1.0000
  O   O13       1.0  0.6279962782959032  0.39370369702296404  0.580845873473777  1.0000
  O   O14       1.0  0.3719995661286786  0.6062876930660932  0.4191548858118849  1.0000
  O   O15       1.0  0.9631536482140743  0.7054915825242529  0.46258290280236025  1.0000
  O   O16       1.0  0.0368253454425798  0.29449219551625555  0.5374006321978867  1.0000
