data_image0
_chemical_formula_structural       Cd2H18C26Br4N2
_chemical_formula_sum              "Cd2 H18 C26 Br4 N2"
_cell_length_a       7.270680670160212
_cell_length_b       10.37688312140199
_cell_length_c       10.118245666458913
_cell_angle_alpha    120.84865828591853
_cell_angle_beta     105.47724592301293
_cell_angle_gamma    89.99990861629149

_space_group_name_H-M_alt    "P 1"
_space_group_IT_number       1

loop_
  _space_group_symop_operation_xyz
  'x, y, z'

loop_
  _atom_site_type_symbol
  _atom_site_label
  _atom_site_symmetry_multiplicity
  _atom_site_fract_x
  _atom_site_fract_y
  _atom_site_fract_z
  _atom_site_occupancy
  Cd  Cd1       1.0  0.7499970957184418  0.0744607580706358  8.213802047429809e-07  1.0000
  Cd  Cd2       1.0  0.24999894457769767  0.9255432892506478  2.117253252808113e-06  1.0000
  H   H1        1.0  0.7499948092678326  0.6727419004452385  0.9999944788586251  1.0000
  H   H2        1.0  0.250003421601285  0.3272523121600841  4.923538405506004e-06  1.0000
  H   H3        1.0  0.9860505986317208  0.8074760115306887  0.27523344464453486  1.0000
  H   H4        1.0  0.5139449289307549  0.532243843002135  0.7247587164203113  1.0000
  H   H5        1.0  0.013946746645828508  0.1925204447178857  0.7247649401161456  1.0000
  H   H6        1.0  0.4860506128515994  0.4677571436197495  0.275239625595546  1.0000
  H   H7        1.0  0.19593889923500288  0.7995374342144428  0.5103614781544153  1.0000
  H   H8        1.0  0.3040599642550462  0.2891780526952416  0.4896293932414296  1.0000
  H   H9        1.0  0.8040575604509856  0.200461265677383  0.48963588896991456  1.0000
  H   H10       1.0  0.6959406885184622  0.7108207221264777  0.5103738010157032  1.0000
  H   H11       1.0  0.9915178182110792  0.31948760892356626  0.26246773102216286  1.0000
  H   H12       1.0  0.5084691935543688  0.0570204343578098  0.7375274401042093  1.0000
  H   H13       1.0  0.008482568782014291  0.6805155345386069  0.737528728580216  1.0000
  H   H14       1.0  0.4915331856692618  0.9429794028051716  0.2624736757133945  1.0000
  H   H15       1.0  0.19790555942219612  0.5553958424217598  0.499200061154035  1.0000
  H   H16       1.0  0.3020868447343048  0.056198221150602  0.5007932031219228  1.0000
  H   H17       1.0  0.8020914716068506  0.44460504709746834  0.500794577743733  1.0000
  H   H18       1.0  0.6979116879623677  0.9437970647250323  0.49920383889788433  1.0000
  C   C1        1.0  0.7499944347332034  0.5674695818842393  0.999996708610283  1.0000
  C   C2        1.0  0.2500012002502531  0.43252579047967993  2.758325976524508e-06  1.0000
  C   C3        1.0  0.8654471292641617  0.4262616295402991  0.12956929658732724  1.0000
  C   C4        1.0  0.6345365998303835  0.2966939969534508  0.8704183269109296  1.0000
  C   C5        1.0  0.13455737143826244  0.5737347289762765  0.8704285053339264  1.0000
  C   C6        1.0  0.3654638157396874  0.7033036184243641  0.12958324266764276  1.0000
  C   C7        1.0  0.988047363825622  0.7019863139388389  0.2743569211269589  1.0000
  C   C8        1.0  0.5119409901336026  0.42762503887595216  0.725627346605066  1.0000
  C   C9        1.0  0.011959337733792109  0.2980134258068148  0.7256420517118869  1.0000
  C   C10       1.0  0.4880574170499089  0.5723759043444544  0.27437056302223084  1.0000
  C   C11       1.0  0.8671273869972611  0.567821841489554  0.13448743225579574  1.0000
  C   C12       1.0  0.6328595509154411  0.43333455239187646  0.8654989818825173  1.0000
  C   C13       1.0  0.13287258647801536  0.43217341191363084  0.8655088954377563  1.0000
  C   C14       1.0  0.3671395046562013  0.566662987741367  0.13449832070258355  1.0000
  C   C15       1.0  0.10323708183428693  0.697380511553817  0.4030806450289931  1.0000
  C   C16       1.0  0.39675479488947474  0.29429419111635  0.5969094019605523  1.0000
  C   C17       1.0  0.8967646974693082  0.3026226640661207  0.5969180890389724  1.0000
  C   C18       1.0  0.6032416163284111  0.7057045734056826  0.403090953955612  1.0000
  C   C19       1.0  0.9884085810437853  0.4257414699197568  0.2645029584256734  1.0000
  C   C20       1.0  0.5115760257384638  0.1612369045826085  0.7354909402954848  1.0000
  C   C21       1.0  0.011590268234520761  0.5742618352752726  0.7355001930866438  1.0000
  C   C22       1.0  0.48841848644999436  0.8387595519806438  0.264505884325864  1.0000
  C   C23       1.0  0.10376211388994964  0.5576722498727024  0.3968946720628568  1.0000
  C   C24       1.0  0.3962312198015425  0.16077361423477038  0.6030930725596378  1.0000
  C   C25       1.0  0.8962400927543825  0.44232634167276064  0.6031008340203955  1.0000
  C   C26       1.0  0.6037677711459679  0.83922401207208  0.39690821508123986  1.0000
  Br  Br1       1.0  0.4908839992523043  0.8199409402250096  0.7974166355935852  1.0000
  Br  Br2       1.0  0.009118134300003102  0.022523654211340696  0.20258668079600287  1.0000
  Br  Br3       1.0  0.5091205485162504  0.1800623212538568  0.202587643669503  1.0000
  Br  Br4       1.0  0.9908877448900104  0.9774852105964558  0.7974167554843777  1.0000
  N   N1        1.0  0.7499912816031298  0.2961225088170778  0.9999941529045702  1.0000
  N   N2        1.0  0.250007551519154  0.7038808179213517  9.994871696459375e-06  1.0000
