data_image0
_chemical_formula_structural       Zn8H48C32S8N8
_chemical_formula_sum              "Zn8 H48 C32 S8 N8"
_cell_length_a       6.148881397
_cell_length_b       6.428986346
_cell_length_c       24.829
_cell_angle_alpha    90.0
_cell_angle_beta     90.0
_cell_angle_gamma    90.0

_space_group_name_H-M_alt    "P 1"
_space_group_IT_number       1

loop_
  _space_group_symop_operation_xyz
  'x, y, z'

loop_
  _atom_site_type_symbol
  _atom_site_label
  _atom_site_symmetry_multiplicity
  _atom_site_fract_x
  _atom_site_fract_y
  _atom_site_fract_z
  _atom_site_occupancy
  Zn  Zn1       1.0  0.1768045161076657  0.8980622588492865  0.2815457730879203  1.0000
  Zn  Zn2       1.0  0.6768076551338922  0.1019336431485414  0.2184546296669225  1.0000
  Zn  Zn3       1.0  0.8231903777603479  0.6019347050577792  0.7815453703330775  1.0000
  Zn  Zn4       1.0  0.32319049135824685  0.3980643078503761  0.7184554351766083  1.0000
  Zn  Zn5       1.0  0.8231903777603479  0.1019336431485414  0.7184542269120797  1.0000
  Zn  Zn6       1.0  0.32319049135824685  0.898065369759614  0.7815461758427631  1.0000
  Zn  Zn7       1.0  0.1768093950438541  0.3980643078503761  0.2184538241572369  1.0000
  Zn  Zn8       1.0  0.6768076551338922  0.601936260512943  0.2815469813524487  1.0000
  H   H1        1.0  0.4885148706015912  0.010511765986571203  0.3426730838938354  1.0000
  H   H2        1.0  0.9885163833157621  0.9894903578319116  0.1573257078416361  1.0000
  H   H3        1.0  0.5114832758905479  0.4894908513778304  0.8426750976680496  1.0000
  H   H4        1.0  0.0114801368643143  0.5105066060751611  0.6573277216158502  1.0000
  H   H5        1.0  0.5114783969543524  0.9894950241973959  0.6573253050867933  1.0000
  H   H6        1.0  0.011483389488447  0.010513321441727903  0.8426742921583641  1.0000
  H   H7        1.0  0.4885246284739821  0.5105097169854815  0.1573265133513218  1.0000
  H   H8        1.0  0.9885131306916293  0.4894955177433218  0.3426763059325779  1.0000
  H   H9        1.0  0.3053059375833627  0.19745570011823332  0.3494288936324494  1.0000
  H   H10       1.0  0.8053041976734008  0.8025417573347583  0.1505703008578649  1.0000
  H   H11       1.0  0.6946905825967065  0.3025406954255203  0.8494292963872924  1.0000
  H   H12       1.0  0.19468744357048  0.6974567620274712  0.6505727173869289  1.0000
  H   H13       1.0  0.6946840773484483  0.80254953461057  0.6505690925933365  1.0000
  H   H14       1.0  0.1946906961946056  0.1974588110285609  0.8494296991421352  1.0000
  H   H15       1.0  0.30531244283162107  0.6974598729377988  0.1505694953481793  1.0000
  H   H16       1.0  0.8053107029216591  0.3025500281564888  0.3494317129163491  1.0000
  H   H17       1.0  0.2463586304883165  0.7717359678461477  0.3924704982077429  1.0000
  H   H18       1.0  0.7463633958266129  0.22826460051716424  0.1075278907728858  1.0000
  H   H19       1.0  0.7536557791244718  0.7282609960609179  0.8924709009625857  1.0000
  H   H20       1.0  0.2536331243534633  0.2717426832127217  0.6075286962825714  1.0000
  H   H21       1.0  0.7536248791952431  0.22826926688264854  0.6075250714889862  1.0000
  H   H22       1.0  0.2536298717293377  0.7717344123909912  0.892472511981957  1.0000
  H   H23       1.0  0.2463651357365748  0.2717333504817461  0.107527488018043  1.0000
  H   H24       1.0  0.7463682747628084  0.7282641069712457  0.3924761367755423  1.0000
  H   H25       1.0  0.0813952925233181  0.987121399619781  0.40707881912280197  1.0000
  H   H26       1.0  0.5813902999892235  0.012879168743531  0.0929203753675125  1.0000
  H   H27       1.0  0.9186126118412119  0.5128662315563091  0.9070784163679592  1.0000
  H   H28       1.0  0.41859971494259446  0.4871234486208706  0.592921583632041  1.0000
  H   H29       1.0  0.9185996013446955  0.0128807241986948  0.5929179588384557  1.0000
  H   H30       1.0  0.4186045938787828  0.9871198441646243  0.9070808328970159  1.0000
  H   H31       1.0  0.08140505039570202  0.4871327813518391  0.0929147367997132  1.0000
  H   H32       1.0  0.5813919263012934  0.5128802306527689  0.40708284667123  1.0000
  H   H33       1.0  0.1243380625902191  0.8631765104700693  0.5017217769543691  1.0000
  H   H34       1.0  0.6243460805526411  0.1368100587967902  0.9982794313101593  1.0000
  H   H35       1.0  0.8756633365260527  0.6368220088921603  0.0017205686898407  1.0000
  H   H36       1.0  0.3756488133153724  0.3631816703814792  0.4982806395746877  1.0000
  H   H37       1.0  0.8756535786536688  0.1368069478864626  0.49827782029078804  1.0000
  H   H38       1.0  0.3756667027480774  0.8631858432010446  0.0017225824640548003  1.0000
  H   H39       1.0  0.12435269939879842  0.3631910031124548  0.9982778202907882  1.0000
  H   H40       1.0  0.6243330700561245  0.6368173425266761  0.5017233879737404  1.0000
  H   H41       1.0  0.674431613207453  0.0945872284171756  0.4132752023843054  1.0000
  H   H42       1.0  0.1744366057415405  0.9054164508564642  0.0867243948608447  1.0000
  H   H43       1.0  0.32557141222088154  0.4054231662230379  0.9132752023843054  1.0000
  H   H44       1.0  0.8255631670626613  0.5945898457815773  0.5867272141447515  1.0000
  H   H45       1.0  0.32556328066056045  0.9054071181254955  0.5867223810866307  1.0000
  H   H46       1.0  0.8255647933747241  0.09459189478265982  0.9132788271778978  1.0000
  H   H47       1.0  0.6744462500160325  0.5945789575954379  0.0867207700672594  1.0000
  H   H48       1.0  0.1744301004932822  0.4054107225817418  0.4132796326875834  1.0000
  C   C1        1.0  0.2513920663283855  0.9406241784542717  0.40028917797736346  1.0000
  C   C2        1.0  0.7513903264184236  0.059371723543556215  0.0997108220226366  1.0000
  C   C3        1.0  0.748620716972333  0.5593743409079579  0.9002891779773634  1.0000
  C   C4        1.0  0.24860456744958984  0.44062622745536123  0.599712030287165  1.0000
  C   C5        1.0  0.7485995749154953  0.059376389909040504  0.5997084054935726  1.0000
  C   C6        1.0  0.2486029411375199  0.9406272893645992  0.900289983487049  1.0000
  C   C7        1.0  0.2514034505128393  0.44062622745536123  0.0997088082484225  1.0000
  C   C8        1.0  0.7513919527304865  0.5593727854527941  0.4002911917515775  1.0000
  C   C9        1.0  0.2897535153091866  0.9237474899437288  0.5007064319948427  1.0000
  C   C10       1.0  0.7897550280233503  0.0762453011437785  0.9992895404567221  1.0000
  C   C11       1.0  0.7102511364312107  0.5762401412323683  0.0007060292399999  1.0000
  C   C12       1.0  0.21024962371704706  0.42375264985513894  0.4992919569857861  1.0000
  C   C13       1.0  0.7102348733105686  0.0762406347782871  0.4992891377018793  1.0000
  C   C14       1.0  0.2102317342843349  0.9237568226747044  0.0007064319948427  1.0000
  C   C15       1.0  0.2897762836780871  0.423758871675787  0.9992879294373509  1.0000
  C   C16       1.0  0.7897647858957414  0.5762479185081801  0.5007084457690638  1.0000
  C   C17       1.0  0.3824939607954505  0.9766982945774602  0.4510302468887204  1.0000
  C   C18       1.0  0.8824661998924557  0.023300718330688107  0.0489713641306508  1.0000
  C   C19       1.0  0.6175155698811423  0.5232908920537938  0.9510302468887205  1.0000
  C   C20       1.0  0.1175140571669715  0.4766972326682222  0.5489725723951864  1.0000
  C   C21       1.0  0.6175188225052679  0.0232976074203677  0.5489713641306508  1.0000
  C   C22       1.0  0.1174961677342594  0.9767091827635994  0.9510294413790348  1.0000
  C   C23       1.0  0.38248908185925506  0.4767034544888702  0.0489717668854937  1.0000
  C   C24       1.0  0.8824922208854886  0.5232986693296056  0.4510278303596636  1.0000
  C   C25       1.0  0.5952887628936665  0.0534127748169269  0.451172419348346  1.0000
  C   C26       1.0  0.0952921291156912  0.9465737944499253  0.0488303999355608  1.0000
  C   C27       1.0  0.404724020407059  0.44658984254747486  0.9511728221031888  1.0000
  C   C28       1.0  0.9047174015609016  0.5534247249123041  0.5488291916710324  1.0000
  C   C29       1.0  0.4046996257260886  0.9465660171741135  0.548829997180718  1.0000
  C   C30       1.0  0.9047011384402524  0.0534174411824111  0.9511732248580316  1.0000
  C   C31       1.0  0.595311531262567  0.5534278358226246  0.0488287889161896  1.0000
  C   C32       1.0  0.09530188698808222  0.4465742879958512  0.451172419348346  1.0000
  S   S1        1.0  0.3048310544604931  0.0574554027836456  0.2040549357606025  1.0000
  S   S2        1.0  0.804830940862594  0.9425451655796665  0.2959458697490831  1.0000
  S   S3        1.0  0.6951654657195832  0.4425441036704285  0.7040553385154453  1.0000
  S   S4        1.0  0.1951655793174822  0.5574564646928835  0.7959462725039259  1.0000
  S   S5        1.0  0.6951654657195832  0.9425436101245098  0.7959450642393976  1.0000
  S   S6        1.0  0.1951655793174822  0.0574554027836456  0.7040553385154453  1.0000
  S   S7        1.0  0.3048310544604931  0.5574549092377268  0.2959450642393975  1.0000
  S   S8        1.0  0.8048325671746569  0.4425441036704285  0.2040557412702881  1.0000
  N   N1        1.0  0.325807227470257  0.0388288272155535  0.3501373394015062  1.0000
  N   N2        1.0  0.8258038612482252  0.9611670747822743  0.1498650771275507  1.0000
  N   N3        1.0  0.6741957979580776  0.4611660128730364  0.8501369366466635  1.0000
  N   N4        1.0  0.17418940630771834  0.5388298891247914  0.6498646743727079  1.0000
  N   N5        1.0  0.6741892927098194  0.9611717411477585  0.6498626605984938  1.0000
  N   N6        1.0  0.17418940630771834  0.0388350490362015  0.8501385476660346  1.0000
  N   N7        1.0  0.32581048009438274  0.5388314445799551  0.1498638688630223  1.0000
  N   N8        1.0  0.8258071138723581  0.4611706792385206  0.35014056144024863  1.0000
