data_image0
_chemical_formula_structural       Zn2H24C32N8O14
_chemical_formula_sum              "Zn2 H24 C32 N8 O14"
_cell_length_a       8.920241341122317
_cell_length_b       9.894229387074414
_cell_length_c       10.06945633482371
_cell_angle_alpha    75.95826590209622
_cell_angle_beta     67.70173653189195
_cell_angle_gamma    83.72678584179727

_space_group_name_H-M_alt    "P 1"
_space_group_IT_number       1

loop_
  _space_group_symop_operation_xyz
  'x, y, z'

loop_
  _atom_site_type_symbol
  _atom_site_label
  _atom_site_symmetry_multiplicity
  _atom_site_fract_x
  _atom_site_fract_y
  _atom_site_fract_z
  _atom_site_occupancy
  Zn  Zn1       1.0  0.9999336789943171  0.2023117069396463  0.040047147258491185  1.0000
  Zn  Zn2       1.0  6.471467131770331e-05  0.7976884231619151  0.9599531573406139  1.0000
  H   H1        1.0  0.059601822253647206  0.841574849746543  0.6193452388479201  1.0000
  H   H2        1.0  0.9403966105885715  0.1584242475251898  0.38065630050588345  1.0000
  H   H3        1.0  0.3429902512016412  0.6005579172453537  0.8458771786769077  1.0000
  H   H4        1.0  0.6570093538277533  0.3994422228746756  0.1541227126284496  1.0000
  H   H5        1.0  0.16099121546272946  0.4172622774110835  0.06891064589674303  1.0000
  H   H6        1.0  0.8390071782028984  0.5827378526904781  0.931089658702369  1.0000
  H   H7        1.0  0.297296574630856  0.3257433145139715  0.960831468801743  1.0000
  H   H8        1.0  0.7027018147806459  0.6742568064932258  0.03916784633770487  1.0000
  H   H9        1.0  0.1183144945872101  0.8806522652424889  0.3875261695456231  1.0000
  H   H10       1.0  0.8816862562151542  0.11934997783878032  0.6124738073355687  1.0000
  H   H11       1.0  0.4524712741718488  0.7892966229700775  0.9802150054970367  1.0000
  H   H12       1.0  0.5475307885075296  0.21070249526268006  0.019784304515844967  1.0000
  H   H13       1.0  0.2323670868061214  0.35628567395499283  0.5404011127718604  1.0000
  H   H14       1.0  0.767630034159076  0.6437165481652514  0.4596010934502601  1.0000
  H   H15       1.0  0.7601051614683952  0.5429563778393599  0.7144654039261482  1.0000
  H   H16       1.0  0.23989202508759888  0.4570437513381123  0.2855363034263689  1.0000
  H   H17       1.0  0.5497225928710564  0.6224192920768984  0.36023698267214843  1.0000
  H   H18       1.0  0.450279478316574  0.3775798443446021  0.6397643062600551  1.0000
  H   H19       1.0  0.2592412709749254  0.23841088370583918  0.1771917402612075  1.0000
  H   H20       1.0  0.7407571533590342  0.7615881953771506  0.8228078201732744  1.0000
  H   H21       1.0  0.22782051509440748  0.0784122751319103  0.6544468668475929  1.0000
  H   H22       1.0  0.7721803583812916  0.9215857638750717  0.3455501333750988  1.0000
  H   H23       1.0  0.581138029022405  0.04379758875347759  0.2282287907415252  1.0000
  H   H24       1.0  0.4188616373436602  0.9562004493294007  0.7717696122345786  1.0000
  C   C1        1.0  0.156083632328162  0.7774728022973392  0.6454813486903035  1.0000
  C   C2        1.0  0.8439148005140565  0.22252629497439358  0.3545201906635001  1.0000
  C   C3        1.0  0.3017068581675488  0.6523178048352277  0.7576463779481344  1.0000
  C   C4        1.0  0.6982927860384365  0.34768130245497275  0.2423547481119144  1.0000
  C   C5        1.0  0.2291733299166481  0.830323454212575  0.32624048756984075  1.0000
  C   C6        1.0  0.7708274558081739  0.16967774694449386  0.6737597346063852  1.0000
  C   C7        1.0  0.32778016229205054  0.7464725254804705  0.39413727619645306  1.0000
  C   C8        1.0  0.6722194120690119  0.2535286656581306  0.6058633592735275  1.0000
  C   C9        1.0  0.2742683500590033  0.8471811356608399  0.17471102777071223  1.0000
  C   C10       1.0  0.7257324620800246  0.1528190053832787  0.825287460781233  1.0000
  C   C11       1.0  0.41511247238613447  0.7792285242629546  0.0983593682733002  1.0000
  C   C12       1.0  0.5848895596249122  0.2207716449883748  0.901640685904212  1.0000
  C   C13       1.0  0.17742167370187895  0.9391466446571002  0.09209730241742155  1.0000
  C   C14       1.0  0.8225803191325767  0.060854557424058  0.9079015170053922  1.0000
  C   C15       1.0  0.9961126176829395  0.44440666372631193  0.6436712763872521  1.0000
  C   C16       1.0  0.0038857103918914877  0.5555955593180287  0.35632952708144927  1.0000
  C   C17       1.0  0.985599189927008  0.38094456944355676  0.7980362236232991  1.0000
  C   C18       1.0  0.014400415102386396  0.6190555706764725  0.2019636676820511  1.0000
  C   C19       1.0  0.1309259064164721  0.4193061019115661  0.5223316407105899  1.0000
  C   C20       1.0  0.8690736372762443  0.580696140245614  0.47766973892402115  1.0000
  C   C21       1.0  0.8655284623712375  0.5254279891654788  0.6198530738634033  1.0000
  C   C22       1.0  0.13447104639902818  0.4745752949159011  0.38014806047617367  1.0000
  C   C23       1.0  0.47006052600753623  0.6860781971931618  0.30946340075208667  1.0000
  C   C24       1.0  0.5299402682255375  0.3139230221526502  0.6905388003434609  1.0000
  C   C25       1.0  0.2728727799435049  0.13443537958192306  0.3684335951729452  1.0000
  C   C26       1.0  0.7271171648441169  0.8655636293718132  0.6315688583178057  1.0000
  C   C27       1.0  0.34683775774530545  0.0435286325244206  0.5877078372981471  1.0000
  C   C28       1.0  0.6531607279253252  0.9564683445214259  0.4122902348070807  1.0000
  C   C29       1.0  0.5456236890644917  0.0246364885882002  0.3470110022512571  1.0000
  C   C30       1.0  0.4543759815556925  0.9753615585890573  0.6529883901845039  1.0000
  C   C31       1.0  0.39278913774541724  0.06807067071423491  0.43459931969555754  1.0000
  C   C32       1.0  0.607214092867011  0.9319294812724479  0.5653973528092208  1.0000
  N   N1        1.0  0.1629007646771399  0.7325376082415997  0.7788820815620596  1.0000
  N   N2        1.0  0.8370988795288454  0.26746149904860067  0.22111904449798905  1.0000
  N   N3        1.0  0.28574592371819557  0.7246534775417357  0.5481721278084069  1.0000
  N   N4        1.0  0.7142536855653175  0.27534667167266497  0.45182875295660824  1.0000
  N   N5        1.0  0.3802749862908925  0.6443643878151376  0.6187358893538358  1.0000
  N   N6        1.0  0.61972704997428  0.3556357905305703  0.3812651542833335  1.0000
  N   N7        1.0  0.512464090952264  0.7029158043495443  0.16366148389467844  1.0000
  N   N8        1.0  0.48753556176197316  0.2970833211293922  0.8363416210846922  1.0000
  O   O1        1.0  0.19321383327472566  0.320203468187124  0.05082272385783431  1.0000
  O   O2        1.0  0.806784556136776  0.6797966528200661  0.9491765912816208  1.0000
  O   O3        1.0  0.18398859013343838  0.9128118385847657  0.9730280667567256  1.0000
  O   O4        1.0  0.8160122654362992  0.08718727872390279  0.02697264600957548  1.0000
  O   O5        1.0  0.0994655465925405  0.0405965947192541  0.1475135696818057  1.0000
  O   O6        1.0  0.9005352655464877  0.9594035463248717  0.8524849188701394  1.0000
  O   O7        1.0  0.07725470800670561  0.2741517654999014  0.8183278850884719  1.0000
  O   O8        1.0  0.9227448578460979  0.7258494074499565  0.1816707714621871  1.0000
  O   O9        1.0  0.8839739999666918  0.4285019787653752  0.9045851451301914  1.0000
  O   O10       1.0  0.11602689477964388  0.5714961057134573  0.09541680239080111  1.0000
  O   O11       1.0  0.12575600537228843  0.1278583491220573  0.4393499902877664  1.0000
  O   O12       1.0  0.874250723895713  0.8721460097112015  0.5606454506152758  1.0000
  O   O13       1.0  0.3399329984627002  0.1991257628858492  0.22793019189182928  1.0000
  O   O14       1.0  0.6600665631359774  0.8008754009696375  0.7720674751991722  1.0000
