data_image0
_chemical_formula_structural       Er2H26C32O24
_chemical_formula_sum              "Er2 H26 C32 O24"
_cell_length_a       8.805079506118602
_cell_length_b       9.689502814707032
_cell_length_c       12.15560469479464
_cell_angle_alpha    101.18101559886375
_cell_angle_beta     103.81513931515329
_cell_angle_gamma    108.47843511549216

_space_group_name_H-M_alt    "P 1"
_space_group_IT_number       1

loop_
  _space_group_symop_operation_xyz
  'x, y, z'

loop_
  _atom_site_type_symbol
  _atom_site_label
  _atom_site_symmetry_multiplicity
  _atom_site_fract_x
  _atom_site_fract_y
  _atom_site_fract_z
  _atom_site_occupancy
  Er  Er1       1.0  0.7734181027422549  0.037949498998408215  0.9624783671991182  1.0000
  Er  Er2       1.0  0.22658853164845294  0.9620543246464384  0.03752197726205964  1.0000
  H   H1        1.0  0.1824833738712925  0.4312240389773337  0.3223986985962668  1.0000
  H   H2        1.0  0.8175115998730221  0.5687798653030571  0.6775996995881711  1.0000
  H   H3        1.0  0.18798000678202698  0.46012655433256816  0.6823230353967631  1.0000
  H   H4        1.0  0.8120115425538329  0.5398693519279121  0.3176759472585998  1.0000
  H   H5        1.0  0.7793643652515456  0.1066037407006561  0.39042570502638085  1.0000
  H   H6        1.0  0.2206306500310547  0.8933922393115598  0.6095664676014607  1.0000
  H   H7        1.0  0.8437625024497352  0.49084913477951647  0.04713644193760302  1.0000
  H   H8        1.0  0.1562467773820159  0.5091580727678461  0.9528665460278843  1.0000
  H   H9        1.0  0.4018885410276951  0.4049016610617074  0.1566668222864891  1.0000
  H   H10       1.0  0.5981196321927912  0.5950975758685856  0.8433338532228021  1.0000
  H   H11       1.0  0.7247308619974077  0.8670031507137851  0.20251543735065508  1.0000
  H   H12       1.0  0.27527199671780517  0.13299718826721119  0.7974902844347085  1.0000
  H   H13       1.0  0.5243678354513365  0.732199909128795  0.507018211098078  1.0000
  H   H14       1.0  0.4756449721735975  0.2677855132454212  0.4929875652836344  1.0000
  H   H15       1.0  0.952243256862836  0.2664694308322311  0.7003685081599825  1.0000
  H   H16       1.0  0.04774312314560096  0.7335254133020684  0.299626141207078  1.0000
  H   H17       1.0  0.3731145958274666  0.6254224719135166  0.25726255072552817  1.0000
  H   H18       1.0  0.6268926138345422  0.37457443478363933  0.7427416953215841  1.0000
  H   H19       1.0  0.6505726164888871  0.7980524413928836  0.7439502635807855  1.0000
  H   H20       1.0  0.34942127572530524  0.20194341609301603  0.2560515729667756  1.0000
  H   H21       1.0  0.5620620045915247  0.11490483934084494  0.7787870240547504  1.0000
  H   H22       1.0  0.4379380133425315  0.8850944322693551  0.22121393215205384  1.0000
  H   H23       1.0  0.43917363003593124  0.9713369392038587  0.7984820602037813  1.0000
  H   H24       1.0  0.5608230742952713  0.028660072712753507  0.2015179695574076  1.0000
  H   H25       1.0  0.8408689574506384  0.8120458341603652  0.8089265915666246  1.0000
  H   H26       1.0  0.159126090079134  0.187950047909446  0.1910729749717603  1.0000
  C   C1        1.0  0.8978987600300952  0.1849775083815288  0.21322648968433094  1.0000
  C   C2        1.0  0.10209872685154409  0.8150241067699895  0.7867711336472496  1.0000
  C   C3        1.0  0.9744970661336937  0.2609517640281993  0.34342108394263693  1.0000
  C   C4        1.0  0.02549710356207409  0.739047602312212  0.6565747913977162  1.0000
  C   C5        1.0  0.1262878569867567  0.3881106081829699  0.3853858662659846  1.0000
  C   C6        1.0  0.8737054527900979  0.6118921880156023  0.6146104256044111  1.0000
  C   C7        1.0  0.2024905022624424  0.4586449307839544  0.507257480806274  1.0000
  C   C8        1.0  0.7975001764054499  0.5413544379821432  0.49273945374228123  1.0000
  C   C9        1.0  0.1273401813018964  0.40287734266677694  0.5876737230890043  1.0000
  C   C10       1.0  0.8726486559734995  0.5971231801367837  0.41232309079934026  1.0000
  C   C11       1.0  0.9744476563937782  0.27580712184767003  0.5451080162151029  1.0000
  C   C12       1.0  0.02554621432229704  0.7241888009331632  0.45488889105875774  1.0000
  C   C13       1.0  0.89842550529211  0.20503055478739182  0.42272195518577155  1.0000
  C   C14       1.0  0.10156731733096795  0.7949710926183401  0.5772748896351061  1.0000
  C   C15       1.0  0.36303740829966097  0.5939808802888251  0.5540490340146177  1.0000
  C   C16       1.0  0.636959933404114  0.40602289903957006  0.44595796888133776  1.0000
  C   C17       1.0  0.9444157016954335  0.796356414907301  0.09927485779117967  1.0000
  C   C18       1.0  0.055588120578264004  0.20364625430683256  0.9007272934563632  1.0000
  C   C19       1.0  0.7993266318842202  0.6906920645648569  0.12292286436706952  1.0000
  C   C20       1.0  0.20067417218329098  0.3093117993977543  0.8770765069557385  1.0000
  C   C21       1.0  0.7640174911796437  0.5345858048582174  0.08746041277562709  1.0000
  C   C22       1.0  0.23599393977333702  0.46542365956379694  0.9125441285534137  1.0000
  C   C23       1.0  0.6188957975373411  0.43228138693996243  0.09818372283601916  1.0000
  C   C24       1.0  0.3811130023066767  0.5677246500495842  0.9018214611711812  1.0000
  C   C25       1.0  0.5149359680560722  0.48628016853130884  0.14988055768197475  1.0000
  C   C26       1.0  0.48507103909977894  0.5137190764625431  0.8501199231996424  1.0000
  C   C27       1.0  0.5578760290808447  0.6429420908122978  0.19180968978822932  1.0000
  C   C28       1.0  0.4421278039419079  0.3570605457543793  0.8081949260961707  1.0000
  C   C29       1.0  0.6972423072270004  0.745470301476388  0.1758998912493652  1.0000
  C   C30       1.0  0.3027558943956948  0.25453004799385337  0.8241066951165409  1.0000
  C   C31       1.0  0.5761019298847926  0.2646044827030209  0.05165299510125006  1.0000
  C   C32       1.0  0.4239056788134548  0.735401638527499  0.948346243458964  1.0000
  O   O1        1.0  0.98378435518795  0.22642465224730304  0.14536460101584933  1.0000
  O   O2        1.0  0.016219150190970325  0.7735746278196984  0.8546344744371339  1.0000
  O   O3        1.0  0.7521796746542151  0.07809195559208598  0.16979086562881918  1.0000
  O   O4        1.0  0.24781917363218048  0.9219073349641607  0.8302090744046922  1.0000
  O   O5        1.0  0.42206724463185447  0.6394179207375288  0.46804114324658735  1.0000
  O   O6        1.0  0.5779398470585094  0.36057326939828743  0.5319629706258269  1.0000
  O   O7        1.0  0.43869646611344854  0.6607257073908315  0.6596961687606182  1.0000
  O   O8        1.0  0.5612907286925904  0.3392736420359768  0.3403034680873844  1.0000
  O   O9        1.0  0.890638647461529  0.2154716090713791  0.6158706479080038  1.0000
  O   O10       1.0  0.10935073642102107  0.7845220838443937  0.3841234952013366  1.0000
  O   O11       1.0  0.9276448514651179  0.9016129268940818  0.053641279292413864  1.0000
  O   O12       1.0  0.07235798216896681  0.09838748826433631  0.9463586916736376  1.0000
  O   O13       1.0  0.0837867116441231  0.7773508504574523  0.12243632886597308  1.0000
  O   O14       1.0  0.9162199155805482  0.2226529949523695  0.8775623725039737  1.0000
  O   O15       1.0  0.6760472696182306  0.225916219826729  0.00501925035887035  1.0000
  O   O16       1.0  0.32396220555363436  0.7740886711889133  0.9949858596808738  1.0000
  O   O17       1.0  0.4439254096583554  0.17255738211031973  0.06114418891150557  1.0000
  O   O18       1.0  0.556086933500886  0.8274406955379022  0.9388561749677393  1.0000
  O   O19       1.0  0.4650665050417189  0.7046398580664714  0.24721548450707329  1.0000
  O   O20       1.0  0.5349348707140748  0.2953570998309445  0.7527869668560497  1.0000
  O   O21       1.0  0.5511548692003816  0.01386306578925201  0.7875780118140767  1.0000
  O   O22       1.0  0.44884234378270077  0.9861350296252593  0.21242639427033072  1.0000
  O   O23       1.0  0.7665203352519114  0.8691230858770781  0.7920980662863215  1.0000
  O   O24       1.0  0.2334770336580831  0.13087281271309337  0.2078994248705683  1.0000
