data_image0
_chemical_formula_structural       Zn8H72C72O26
_chemical_formula_sum              "Zn8 H72 C72 O26"
_cell_length_a       18.330918482232093
_cell_length_b       18.32847368206829
_cell_length_c       18.331788867739785
_cell_angle_alpha    60.00001354024731
_cell_angle_beta     59.99447974472349
_cell_angle_gamma    60.00339282028753

_space_group_name_H-M_alt    "P 1"
_space_group_IT_number       1

loop_
  _space_group_symop_operation_xyz
  'x, y, z'

loop_
  _atom_site_type_symbol
  _atom_site_label
  _atom_site_symmetry_multiplicity
  _atom_site_fract_x
  _atom_site_fract_y
  _atom_site_fract_z
  _atom_site_occupancy
  Zn  Zn1       1.0  0.29347853990776673  0.11863130054749149  0.29443143087318197  1.0000
  Zn  Zn2       1.0  0.11917556498634245  0.2939125096908342  0.2937347459576642  1.0000
  Zn  Zn3       1.0  0.29431986683908196  0.2939601258573248  0.293031002807318  1.0000
  Zn  Zn4       1.0  0.29353039335568815  0.29316170058709906  0.1187684053908953  1.0000
  Zn  Zn5       1.0  0.8815234733913399  0.7064607512231759  0.706416327119662  1.0000
  Zn  Zn6       1.0  0.7058615756959626  0.8810375974175458  0.7070050937139172  1.0000
  Zn  Zn7       1.0  0.7068977924264033  0.7064504344685644  0.7055640256143008  1.0000
  Zn  Zn8       1.0  0.7060186421199716  0.7057404006163566  0.8811647912883345  1.0000
  H   H1        1.0  0.6256011420809457  0.999331209544785  0.09335337843208441  1.0000
  H   H2        1.0  0.5308394410892558  0.09695651482761748  0.09984091870877873  1.0000
  H   H3        1.0  0.6218411926825097  0.09728051421157594  0.9982972728804569  1.0000
  H   H4        1.0  0.09151618095505407  0.6276214647495737  0.2804173436390656  1.0000
  H   H5        1.0  0.9998864213611184  0.617855421853939  0.28077299510459863  1.0000
  H   H6        1.0  0.10360668925972744  0.5297162487657019  0.2725072461600178  1.0000
  H   H7        1.0  0.002169232989032735  0.27956324508971864  0.6096236453950398  1.0000
  H   H8        1.0  0.08453849133626068  0.28020528692408664  0.6332794250294712  1.0000
  H   H9        1.0  0.110689018529868  0.272927706777402  0.529996911528933  1.0000
  H   H10       1.0  0.2755532135115928  0.05634464593381241  0.12922150366926394  1.0000
  H   H11       1.0  0.2777186582575837  0.01844229991791484  0.05638134209486619  1.0000
  H   H12       1.0  0.27748694720910544  0.12841980285584498  0.01889243646731836  1.0000
  H   H13       1.0  0.2778188282682095  0.054171261877890176  0.6481891517415903  1.0000
  H   H14       1.0  0.27699153634811313  0.021212477769694274  0.572675206415596  1.0000
  H   H15       1.0  0.2761210530032158  0.13025500700397422  0.5403709851868826  1.0000
  H   H16       1.0  0.10135294258876121  0.5297837154439335  0.09638380364199155  1.0000
  H   H17       1.0  0.00028719259146485265  0.6209721683839646  0.09855559052163443  1.0000
  H   H18       1.0  0.0943691401151978  0.6250748205625953  0.9993308591220045  1.0000
  H   H19       1.0  0.001493493785360932  0.2805106628052698  0.08446410362518719  1.0000
  H   H20       1.0  0.08566061283470117  0.27293524280608483  0.11119048542107632  1.0000
  H   H21       1.0  0.10849266068650111  0.27930262026504243  0.0025894587536896443  1.0000
  H   H22       1.0  0.6195939265686546  0.09947308436340312  0.28164952842440266  1.0000
  H   H23       1.0  0.5312243175219676  0.09345434416280804  0.2724216538238124  1.0000
  H   H24       1.0  0.6280255797836675  0.9983409289827705  0.28297557389526423  1.0000
  H   H25       1.0  0.09624914894145321  0.10139976989000839  0.2725102269090627  1.0000
  H   H26       1.0  0.00025244602728238835  0.0932400424484499  0.2805940270565017  1.0000
  H   H27       1.0  0.09936908469812507  0.9992342554687286  0.2812913607837473  1.0000
  H   H28       1.0  0.278451047789126  0.5825218460672019  0.12565292819608934  1.0000
  H   H29       1.0  0.2748195896752677  0.53593419576665  0.06339840645674134  1.0000
  H   H30       1.0  0.2783499501867439  0.6455504334196789  0.014405366569946019  1.0000
  H   H31       1.0  0.5311557950035422  0.2727906401374726  0.08595998768526403  1.0000
  H   H32       1.0  0.6095468169968044  0.2813398236362374  0.10850324390995769  1.0000
  H   H33       1.0  0.6345389873163185  0.28123124018467405  0.001952324355045238  1.0000
  H   H34       1.0  0.11318551562824539  0.004455532451643797  0.6033509611474771  1.0000
  H   H35       1.0  0.0036995876958770533  0.07921896628083405  0.6370615852519067  1.0000
  H   H36       1.0  0.08033225590026656  0.11544077353718754  0.5308466107758464  1.0000
  H   H37       1.0  0.8689058582292688  0.44083920215566513  0.9666753854810181  1.0000
  H   H38       1.0  0.9696171058041256  0.3482537203440754  0.962365875879428  1.0000
  H   H39       1.0  0.9630760261576369  0.4465941023910248  0.8678261305427101  1.0000
  H   H40       1.0  0.3495808424981348  0.95731892204887  0.7223271177247099  1.0000
  H   H41       1.0  0.43958864278888393  0.9683153281173489  0.7237600632095962  1.0000
  H   H42       1.0  0.45099221280273843  0.8669468888021612  0.7227722221218329  1.0000
  H   H43       1.0  0.718594197237962  0.8920007508737913  0.39005585579754126  1.0000
  H   H44       1.0  0.7273257577597008  0.9154177013533698  0.46769334969232557  1.0000
  H   H45       1.0  0.7170909614266988  0.9993878207617329  0.3645472750400743  1.0000
  H   H46       1.0  0.950055841174901  0.7187962158088937  0.981235805597564  1.0000
  H   H47       1.0  0.8711545058134502  0.7244816720527896  0.9481023618146905  1.0000
  H   H48       1.0  0.9805025151200437  0.7217228409703438  0.8717918906775352  1.0000
  H   H49       1.0  0.9475051550934666  0.7247025127246686  0.45638093536639696  1.0000
  H   H50       1.0  0.8710707006159806  0.7213066310365052  0.42686694649770357  1.0000
  H   H51       1.0  0.9800964713955622  0.7191900331236739  0.35004748780040984  1.0000
  H   H52       1.0  0.3493582434281775  0.9626718339240272  0.9655058209323928  1.0000
  H   H53       1.0  0.44782189272184086  0.8679591161210071  0.9601123275386385  1.0000
  H   H54       1.0  0.4434681079928776  0.9676560601269487  0.8668326857368599  1.0000
  H   H55       1.0  0.7271493490517926  0.8880633762325869  0.9172433876466214  1.0000
  H   H56       1.0  0.7174660364954306  0.9210747278969932  0.9982843230736619  1.0000
  H   H57       1.0  0.7184977288738069  0.9989010581417404  0.8900605568888337  1.0000
  H   H58       1.0  0.8681259429037311  0.43738369299773433  0.7217321582209023  1.0000
  H   H59       1.0  0.9567571336289261  0.4496232808850494  0.7241698631556234  1.0000
  H   H60       1.0  0.971188444108634  0.34853303549949294  0.719908994132105  1.0000
  H   H61       1.0  0.8688650159372031  0.9591916606322217  0.7241931062497924  1.0000
  H   H62       1.0  0.9627116138085795  0.9682742154720785  0.7203938722448909  1.0000
  H   H63       1.0  0.9699471463976579  0.8675776229067935  0.7218385217103674  1.0000
  H   H64       1.0  0.4278499782114766  0.7213025450154759  0.9808078523312531  1.0000
  H   H65       1.0  0.351214001824296  0.7218142016753148  0.9486186282938578  1.0000
  H   H66       1.0  0.45857406159088737  0.7248361606543057  0.8710983027336568  1.0000
  H   H67       1.0  0.7185200298339608  0.36000162515409767  0.9263884254508882  1.0000
  H   H68       1.0  0.719056746044913  0.39936903112099753  0.9966751672000101  1.0000
  H   H69       1.0  0.7267439773804296  0.46701892354676044  0.8840119651908084  1.0000
  H   H70       1.0  0.8738569446455742  0.9409503236687584  0.4599570399539346  1.0000
  H   H71       1.0  0.9859328108775784  0.874063381654487  0.41909772007153395  1.0000
  H   H72       1.0  0.9441295195233932  0.9854061418110049  0.35179425829134897  1.0000
  C   C1        1.0  0.38883701021122613  0.11014109268743512  0.11127947561239894  1.0000
  C   C2        1.0  0.4467235002640493  0.05192472032573644  0.0537554802860569  1.0000
  C   C3        1.0  0.1112976352887641  0.3891208466867298  0.3892974414883739  1.0000
  C   C4        1.0  0.05368911367285278  0.4469965882308528  0.44712457849912113  1.0000
  C   C5        1.0  0.3889445008002284  0.11086664178535693  0.38974880462740913  1.0000
  C   C6        1.0  0.4467604115051956  0.05318191797374536  0.44765716194124394  1.0000
  C   C7        1.0  0.11065263882827031  0.3892358579293571  0.11086054676824379  1.0000
  C   C8        1.0  0.052491029179833504  0.4470015154916993  0.05334990456169211  1.0000
  C   C9        1.0  0.11051607985732652  0.11096747735840042  0.38935092608205224  1.0000
  C   C10       1.0  0.0521895379872248  0.05358343717924894  0.44724758173801865  1.0000
  C   C11       1.0  0.3890646084034016  0.3895264870725513  0.10996816607526935  1.0000
  C   C12       1.0  0.44690756425476497  0.4474361052937397  0.051533173624662344  1.0000
  C   C13       1.0  0.8891490116293423  0.610555187308265  0.8896262121577153  1.0000
  C   C14       1.0  0.9467381671100198  0.5526491483134208  0.947830270045756  1.0000
  C   C15       1.0  0.6102169455033959  0.8894637004971739  0.6111930085266694  1.0000
  C   C16       1.0  0.5523533131511446  0.9475109893196815  0.5533012386533966  1.0000
  C   C17       1.0  0.8900081507209311  0.6104690969608699  0.6107294652110085  1.0000
  C   C18       1.0  0.9481579793394772  0.5526175528291971  0.552782475755251  1.0000
  C   C19       1.0  0.6100735846325736  0.888810052067626  0.8899105342391922  1.0000
  C   C20       1.0  0.5522881372408289  0.9463430168856137  0.9481430701479356  1.0000
  C   C21       1.0  0.8889249755815314  0.8897701082253064  0.6108419725732688  1.0000
  C   C22       1.0  0.9464031299900952  0.9480972989648961  0.5528727036096369  1.0000
  C   C23       1.0  0.6102932975162856  0.6110032794131399  0.8885694799164058  1.0000
  C   C24       1.0  0.5524401403846185  0.5530778370739993  0.9459134249454235  1.0000
  C   C25       1.0  0.5395530515413893  0.026557256350855683  0.027842338541034947  1.0000
  C   C26       1.0  0.5811566412878546  0.056705386434423063  0.05640863105860206  1.0000
  C   C27       1.0  0.027912799336107165  0.5401168382024011  0.4053976324053253  1.0000
  C   C28       1.0  0.057248099904690285  0.5806669021461558  0.3048381177699611  1.0000
  C   C29       1.0  0.0280496708911925  0.40517504845474417  0.5403130387436834  1.0000
  C   C30       1.0  0.05786346915053992  0.3045283926604583  0.580252623893891  1.0000
  C   C31       1.0  0.4046506031875978  0.026108960583577822  0.028223579141069877  1.0000
  C   C32       1.0  0.3038288765974144  0.05863990858119909  0.059544641294166895  1.0000
  C   C33       1.0  0.4047098916786353  0.027764346368193988  0.5410889455715023  1.0000
  C   C34       1.0  0.30386994977381926  0.05968647488403182  0.5779922805784424  1.0000
  C   C35       1.0  0.026927999336763278  0.5401039790797668  0.027534120588818177  1.0000
  C   C36       1.0  0.05735307286486341  0.5808481140407907  0.05691583657717559  1.0000
  C   C37       1.0  0.026545160580049323  0.40519172615498883  0.02790782562875901  1.0000
  C   C38       1.0  0.05702148781681157  0.3045297540424698  0.05807926674638961  1.0000
  C   C39       1.0  0.5395762478081136  0.027261512503216165  0.4061471523246852  1.0000
  C   C40       1.0  0.5812968578995805  0.05617603570486552  0.3058421843021293  1.0000
  C   C41       1.0  0.02663069340296427  0.02778671422324657  0.4055487481611665  1.0000
  C   C42       1.0  0.057250976088134564  0.056907272492978236  0.30504443086375943  1.0000
  C   C43       1.0  0.4048828291404901  0.5407637213020635  0.025866665988367225  1.0000
  C   C44       1.0  0.3041399600859265  0.5783900889547482  0.05868455326601211  1.0000
  C   C45       1.0  0.5398496437077114  0.40577593854011706  0.026069314016936636  1.0000
  C   C46       1.0  0.5805638124589619  0.30534605484901084  0.05717850340373337  1.0000
  C   C47       1.0  0.02622417478961129  0.028168589769222773  0.5404803515851456  1.0000
  C   C48       1.0  0.05731131540787972  0.05833478052412027  0.5799087054690234  1.0000
  C   C49       1.0  0.972727364966303  0.4595004107459956  0.973250136790206  1.0000
  C   C50       1.0  0.9422585329916302  0.4212753739226115  0.9412337719608175  1.0000
  C   C51       1.0  0.4589141144572937  0.9729541600675662  0.5952843991456688  1.0000
  C   C52       1.0  0.42225772650191107  0.9401114923371451  0.6961051497002942  1.0000
  C   C53       1.0  0.5938883104006648  0.9733416180678988  0.46048907175050163  1.0000
  C   C54       1.0  0.6942001702819313  0.9435618624153149  0.41893720895285463  1.0000
  C   C55       1.0  0.97222742933387  0.5943034530572434  0.9737260570771938  1.0000
  C   C56       1.0  0.9419756091026836  0.6949377571725394  0.9424625229214528  1.0000
  C   C57       1.0  0.9738008135464181  0.5943312028269149  0.45973925252921066  1.0000
  C   C58       1.0  0.9418644690044571  0.6949773254552838  0.4209031297705224  1.0000
  C   C59       1.0  0.4588764838634914  0.9723012113621367  0.9736013519042288  1.0000
  C   C60       1.0  0.4223592602526407  0.9413147935812773  0.9402960173839574  1.0000
  C   C61       1.0  0.5938732021673797  0.9719370866926698  0.9737804740299438  1.0000
  C   C62       1.0  0.6942092761570535  0.9432918991800748  0.9433557628737432  1.0000
  C   C63       1.0  0.9735815034713086  0.45947942256849233  0.594515958004294  1.0000
  C   C64       1.0  0.9411321245052159  0.4212836398194002  0.6952088013903435  1.0000
  C   C65       1.0  0.9723332582876976  0.9735550385514317  0.5946708193805036  1.0000
  C   C66       1.0  0.9420841066009016  0.9409122867560313  0.6953887125538785  1.0000
  C   C67       1.0  0.4591263081586802  0.5950220293731832  0.971757667266914  1.0000
  C   C68       1.0  0.4218541651227243  0.6957599446202424  0.9416374743569094  1.0000
  C   C69       1.0  0.5941425116555124  0.4601436176752215  0.9716418965637389  1.0000
  C   C70       1.0  0.6945737613182527  0.4197793161255701  0.9430216186075102  1.0000
  C   C71       1.0  0.9719887023153002  0.9738557656043697  0.4598779071353931  1.0000
  C   C72       1.0  0.9424076661594679  0.9422770823655854  0.42046135843004606  1.0000
  O   O1        1.0  0.2503739668396746  0.24982251848142312  0.2499299405462025  1.0000
  O   O2        1.0  0.7503362523344207  0.7498296800022218  0.7499494639176021  1.0000
  O   O3        1.0  0.3675050121161973  0.07045528595042329  0.19553790276212624  1.0000
  O   O4        1.0  0.07097556919387664  0.36674402460996447  0.3678957347451117  1.0000
  O   O5        1.0  0.19554476763835268  0.3673384037482635  0.36669823689521763  1.0000
  O   O6        1.0  0.36613420103389416  0.19421135643672469  0.07075086894295171  1.0000
  O   O7        1.0  0.3658221613547709  0.07056039112466547  0.36908091245999947  1.0000
  O   O8        1.0  0.1947629976079313  0.36661228447724165  0.07050881843601786  1.0000
  O   O9        1.0  0.07082013775408312  0.3679025812982886  0.1950831209958892  1.0000
  O   O10       1.0  0.3681011812713564  0.19509170457289576  0.3662803831517039  1.0000
  O   O11       1.0  0.19459612741363944  0.0704554449713584  0.3680871967202677  1.0000
  O   O12       1.0  0.3667995858692662  0.36847722326337623  0.19398600208650418  1.0000
  O   O13       1.0  0.367354850713177  0.36643115862445097  0.0704662297997487  1.0000
  O   O14       1.0  0.07083950689438721  0.1952290991037628  0.3664698955737649  1.0000
  O   O15       1.0  0.9295547779274143  0.6334996452594623  0.8055204026492008  1.0000
  O   O16       1.0  0.6314044475702474  0.9294008573071435  0.6342949759285688  1.0000
  O   O17       1.0  0.6331730499900059  0.8053241319658684  0.6321565932457887  1.0000
  O   O18       1.0  0.8049252436075348  0.6316935828988121  0.9294397079504506  1.0000
  O   O19       1.0  0.929812772002407  0.6321561290830432  0.6334939518082834  1.0000
  O   O20       1.0  0.631973558413584  0.8045313242880566  0.9295963867719976  1.0000
  O   O21       1.0  0.6322442908856729  0.9293009905441278  0.8058350175498248  1.0000
  O   O22       1.0  0.8059139293145208  0.6327916895683073  0.6321085607922824  1.0000
  O   O23       1.0  0.9294453078163653  0.8056745766816819  0.6320631485027376  1.0000
  O   O24       1.0  0.6327781608457028  0.6333461535713028  0.80425367325482  1.0000
  O   O25       1.0  0.6319287631282434  0.6327302907829236  0.9292419030708602  1.0000
  O   O26       1.0  0.8046649666847328  0.9294498334134007  0.633760556872261  1.0000
