data_image0
_chemical_formula_structural       AlH24C27N19O6
_chemical_formula_sum              "Al1 H24 C27 N19 O6"
_cell_length_a       3.7994255303652342
_cell_length_b       18.393896368480355
_cell_length_c       18.368682238541563
_cell_angle_alpha    121.58096618284497
_cell_angle_beta     97.83175432846136
_cell_angle_gamma    95.17077533324075

_space_group_name_H-M_alt    "P 1"
_space_group_IT_number       1

loop_
  _space_group_symop_operation_xyz
  'x, y, z'

loop_
  _atom_site_type_symbol
  _atom_site_label
  _atom_site_symmetry_multiplicity
  _atom_site_fract_x
  _atom_site_fract_y
  _atom_site_fract_z
  _atom_site_occupancy
  Al  Al1       1.0  0.003681985363414242  0.0022075570960638042  0.49575326128137936  1.0000
  H   H1        1.0  0.4406921761933378  0.9485389358195565  0.27837677805153066  1.0000
  H   H2        1.0  0.7357772851614115  0.9631116140539221  0.2265280419920188  1.0000
  H   H3        1.0  0.5263805469045622  0.09095338425814964  0.1300809038179693  1.0000
  H   H4        1.0  0.4553405171330667  0.9960660123113031  0.13445819860567085  1.0000
  H   H5        1.0  0.5377726637731399  0.21860605995023977  0.5486262756269583  1.0000
  H   H6        1.0  0.23360211143965873  0.26983013119001237  0.5312085983892346  1.0000
  H   H7        1.0  0.472115345104605  0.36734249154818616  0.40607357487778023  1.0000
  H   H8        1.0  0.5246392544812579  0.36127232497783984  0.5008700636397805  1.0000
  H   H9        1.0  0.2534036490569705  0.5333748919981718  0.39037693677283875  1.0000
  H   H10       1.0  0.05892537096802654  0.620128746169634  0.4576227221946922  1.0000
  H   H11       1.0  0.21880912043105388  0.8293383214310523  0.5301453774723868  1.0000
  H   H12       1.0  0.36510265815403653  0.7505191349947254  0.5421425819831498  1.0000
  H   H13       1.0  0.6013641037566159  0.5385381541273943  0.14269928412264216  1.0000
  H   H14       1.0  0.7652540244364445  0.642365764393489  0.1681596150118665  1.0000
  H   H15       1.0  0.5648415100383205  0.8313451590262065  0.28490078429182836  1.0000
  H   H16       1.0  0.4405021346432108  0.7329049122165617  0.1883760099585459  1.0000
  H   H17       1.0  0.7854153020533019  0.10659668873397983  0.9674243327659439  1.0000
  H   H18       1.0  0.9711440222640776  0.03656492104605042  0.8803378306769859  1.0000
  H   H19       1.0  0.8117647040203338  0.9669515734606976  0.670572354821907  1.0000
  H   H20       1.0  0.6546941529490127  0.9550810318930943  0.7467381982655327  1.0000
  H   H21       1.0  0.4701241564185993  0.36041684571585353  0.9625021437719142  1.0000
  H   H22       1.0  0.3275750032506509  0.3386456990081613  0.8569792648932479  1.0000
  H   H23       1.0  0.4666545194037682  0.21336644696113896  0.6672346093709081  1.0000
  H   H24       1.0  0.6472596885074964  0.308288764647351  0.7630505105093166  1.0000
  C   C1        1.0  0.48992760162213495  0.06792723537601832  0.4295414366510002  1.0000
  C   C2        1.0  0.6130518785700403  0.07153496242386131  0.6333110134293705  1.0000
  C   C3        1.0  0.41022024229347664  0.8658128514299507  0.42617335948070695  1.0000
  C   C4        1.0  0.47677017671551886  0.24748700755667138  0.38592730942097125  1.0000
  C   C5        1.0  0.4951544343028757  0.2023070184717214  0.2943767241663195  1.0000
  C   C6        1.0  0.7146899395299826  0.12035004671335514  0.8639973338909783  1.0000
  C   C7        1.0  0.6325609771963911  0.2062522887192061  0.9103449788384097  1.0000
  C   C8        1.0  0.41719413247395926  0.5903504008166467  0.2931475151862699  1.0000
  C   C9        1.0  0.4929451486432868  0.6378847441289609  0.252986437973007  1.0000
  C   C10       1.0  0.5656748876343514  0.24788511465229135  0.8628754687535221  1.0000
  C   C11       1.0  0.5636773080065467  0.20336319216653465  0.7726774692658013  1.0000
  C   C12       1.0  0.643081725795973  0.11865438895085845  0.7283274131470635  1.0000
  C   C13       1.0  0.7261304490132261  0.0780509319760796  0.7744331916108536  1.0000
  C   C14       1.0  0.48595330546650223  0.7275269579778796  0.2967310942812418  1.0000
  C   C15       1.0  0.39453863642604864  0.7718307257830405  0.37997005116059757  1.0000
  C   C16       1.0  0.310550439228834  0.7257923764218364  0.41964258116952646  1.0000
  C   C17       1.0  0.3262901663083114  0.6365084573732319  0.3776155786332325  1.0000
  C   C18       1.0  0.5071605929397336  0.11046327746380062  0.24922636030306222  1.0000
  C   C19       1.0  0.49523109638739266  0.06700931192101932  0.2936478702761463  1.0000
  C   C20       1.0  0.48621019629313617  0.1138039112252116  0.38251537377527  1.0000
  C   C21       1.0  0.4796379624618865  0.2027496472702951  0.42915909995782203  1.0000
  C   C22       1.0  0.4607866365897664  0.37447319490435405  0.2529361967494382  1.0000
  C   C23       1.0  0.5641081019411017  0.24498411224279695  0.12423170094331941  1.0000
  C   C24       1.0  0.5017831303907697  0.247426758199417  0.249703404421318  1.0000
  C   C25       1.0  0.4409544807200377  0.4986984616416452  0.24941754105486785  1.0000
  C   C26       1.0  0.5253613413084609  0.375698434532275  0.1243483304195721  1.0000
  C   C27       1.0  0.6066117465073048  0.24984057712774904  0.0016513679117266772  1.0000
  N   N1        1.0  0.516256117834118  0.3316905455870157  0.1671380865433036  1.0000
  N   N2        1.0  0.5582438785704581  0.20458604253303042  0.1663014227491217  1.0000
  N   N3        1.0  0.4514891850555713  0.33159043474007194  0.2924261625410268  1.0000
  N   N4        1.0  0.41940160603476784  0.4572739545064337  0.29258739592356164  1.0000
  N   N5        1.0  0.48728583667574543  0.4580215462825876  0.16581248027635098  1.0000
  N   N6        1.0  0.6130888267284363  0.20551027972304334  0.04225717600889568  1.0000
  N   N7        1.0  0.5720667129361628  0.3345357810048669  0.04289168765860303  1.0000
  N   N8        1.0  0.49314986725413235  0.9759396846887186  0.24417685349423815  1.0000
  N   N9        1.0  0.5336664155278611  0.061233222333619615  0.1640538233737345  1.0000
  N   N10       1.0  0.4789944248385538  0.2522943917087872  0.5202968017314191  1.0000
  N   N11       1.0  0.45426901443767065  0.33296946706205705  0.4351022520331966  1.0000
  N   N12       1.0  0.2592411913997453  0.5989374698339419  0.4241589042207464  1.0000
  N   N13       1.0  0.2211246773907264  0.7648575347443797  0.5017381949640409  1.0000
  N   N14       1.0  0.5738754637608636  0.6021007879920148  0.17116681149600763  1.0000
  N   N15       1.0  0.5741891044349502  0.7671197510964093  0.2523247465745442  1.0000
  N   N16       1.0  0.7775532521027985  0.07312458564591402  0.9016994720615801  1.0000
  N   N17       1.0  0.8095360936924862  0.9946369120432125  0.7350655285418882  1.0000
  N   N18       1.0  0.49924314612419346  0.33108640641281545  0.8991250603801931  1.0000
  N   N19       1.0  0.4800818164932323  0.24909370694953747  0.7326627911548371  1.0000
  O   O1        1.0  0.2144846212429386  0.9039907573391874  0.4822323852826856  1.0000
  O   O2        1.0  0.21331846326685172  0.010786499804019906  0.40913118428259315  1.0000
  O   O3        1.0  0.3750685817096199  0.08755219904446682  0.5888642367027543  1.0000
  O   O4        1.0  0.6323217779710577  0.910296000060882  0.40989326271166965  1.0000
  O   O5        1.0  0.8114710523006252  0.015625660608598907  0.5949909100991206  1.0000
  O   O6        1.0  0.7718280698184895  0.08830000619734343  0.4880235189184035  1.0000
