data_image0
_chemical_formula_structural       Hg6H36C48I12N36
_chemical_formula_sum              "Hg6 H36 C48 I12 N36"
_cell_length_a       8.15770908735895
_cell_length_b       14.883181389745069
_cell_length_c       18.224924140484212
_cell_angle_alpha    104.58949320948963
_cell_angle_beta     102.93799554467547
_cell_angle_gamma    90.00779373096458

_space_group_name_H-M_alt    "P 1"
_space_group_IT_number       1

loop_
  _space_group_symop_operation_xyz
  'x, y, z'

loop_
  _atom_site_type_symbol
  _atom_site_label
  _atom_site_symmetry_multiplicity
  _atom_site_fract_x
  _atom_site_fract_y
  _atom_site_fract_z
  _atom_site_occupancy
  Hg  Hg1       1.0  0.9030918631688323  0.9388626015615316  0.6023755953573939  1.0000
  Hg  Hg2       1.0  0.3004796088746531  0.5611948110101113  0.3976331187479616  1.0000
  Hg  Hg3       1.0  0.0969073839273662  0.06113830480115471  0.3976258801270162  1.0000
  Hg  Hg4       1.0  0.6995217762377877  0.4388026095838384  0.6023662188353853  1.0000
  Hg  Hg5       1.0  0.6479429008080756  0.24990650038061094  0.9999628553924962  1.0000
  Hg  Hg6       1.0  0.35205626489393876  0.7500937007337002  3.682333930748433e-05  1.0000
  H   H1        1.0  0.2573948242705342  0.20100967538952835  0.5693693174956563  1.0000
  H   H2        1.0  0.6878974781510009  0.29885442704169674  0.4305494741152032  1.0000
  H   H3        1.0  0.7426104825341325  0.7989891386551023  0.4306306919025715  1.0000
  H   H4        1.0  0.31210280213763747  0.701144390292079  0.5694511332493093  1.0000
  H   H5        1.0  0.024904437393672707  0.2987466340683299  0.48836041519724194  1.0000
  H   H6        1.0  0.5365109384038862  0.2012101672167432  0.5117177462514491  1.0000
  H   H7        1.0  0.9751018187685574  0.7012493824591816  0.5116363797250119  1.0000
  H   H8        1.0  0.46348830137020514  0.7987907294264717  0.4882820804225502  1.0000
  H   H9        1.0  0.8282918558995219  0.9318708542398682  0.798818610593969  1.0000
  H   H10       1.0  0.029421466279600798  0.5680728399357946  0.2013828043537629  1.0000
  H   H11       1.0  0.17170385939042626  0.0681321622352584  0.2011873296143065  1.0000
  H   H12       1.0  0.9705801386083621  0.43192666400504004  0.7986164274526999  1.0000
  H   H13       1.0  0.8593494403662303  0.2710177606051545  0.6852934829421287  1.0000
  H   H14       1.0  0.1737626996706538  0.22885988448108924  0.31481020566870643  1.0000
  H   H15       1.0  0.1406483071387754  0.7289810324546053  0.3147030265777673  1.0000
  H   H16       1.0  0.8262366882475831  0.7711424032199264  0.6851899168896836  1.0000
  H   H17       1.0  0.5496058983362032  0.0029896596335988006  0.853990841054376  1.0000
  H   H18       1.0  0.6955338531248287  0.49680966514983294  0.14598838819645724  1.0000
  H   H19       1.0  0.4503924759152084  0.9970147430149228  0.14601454645168127  1.0000
  H   H20       1.0  0.3044677493224341  0.5031898355511758  0.8540102940065352  1.0000
  H   H21       1.0  0.23216054267496844  0.062038105475892315  0.939618458554989  1.0000
  H   H22       1.0  0.2924376442717501  0.43766302903986803  0.060275299962604785  1.0000
  H   H23       1.0  0.7678360259341588  0.9379613887947972  0.06037917280387018  1.0000
  H   H24       1.0  0.707563881662736  0.5623357728924107  0.9397226846947148  1.0000
  H   H25       1.0  0.8468040403889036  0.21466066538052792  0.836493103180601  1.0000
  H   H26       1.0  0.009840847797569607  0.285458866623138  0.1636248919088104  1.0000
  H   H27       1.0  0.1531927577585463  0.7853409251963369  0.1635066208152622  1.0000
  H   H28       1.0  0.990158466048598  0.7145427255489808  0.8363750827073844  1.0000
  H   H29       1.0  0.9812408729754195  0.09060718392976241  0.02402674891218482  1.0000
  H   H30       1.0  0.956998526652434  0.40919534687919423  0.9759337479966773  1.0000
  H   H31       1.0  0.018754516737821827  0.9093930115518492  0.9759720042856586  1.0000
  H   H32       1.0  0.0430030017227523  0.5908034582929106  0.024064786264119734  1.0000
  H   H33       1.0  0.566466860406507  0.08526116702352483  0.648492805578762  1.0000
  H   H34       1.0  0.9177103309668198  0.41449744769182223  0.3515174815093616  1.0000
  H   H35       1.0  0.43353712179882814  0.9147369604140395  0.3515085793775228  1.0000
  H   H36       1.0  0.0822885360062031  0.5854999680670474  0.6484810558501833  1.0000
  C   C1        1.0  0.6053155136022638  0.05370550461621801  0.6966785795285944  1.0000
  C   C2        1.0  0.9084055037598374  0.4460656634735401  0.3033408570018068  1.0000
  C   C3        1.0  0.3946821866783878  0.946292628552712  0.3033238276872794  1.0000
  C   C4        1.0  0.09159484571946311  0.553933842909494  0.6966587990979605  1.0000
  C   C5        1.0  0.36519542582026077  0.1034142284202559  0.7562184616307447  1.0000
  C   C6        1.0  0.6087841879377149  0.39639930134300994  0.2437311205684694  1.0000
  C   C7        1.0  0.6348027091300212  0.8965880649627922  0.2437826348244273  1.0000
  C   C8        1.0  0.3912174218316479  0.6036002090774701  0.7562692104449411  1.0000
  C   C9        1.0  0.1416650028180442  0.2307231595766481  0.5802533384857043  1.0000
  C   C10       1.0  0.5612333281263061  0.26922757402040537  0.41979148400012894  1.0000
  C   C11       1.0  0.8583391177686365  0.7692763459594334  0.41974614394109017  1.0000
  C   C12       1.0  0.43876591408848503  0.7307733258626286  0.5802088922773407  1.0000
  C   C13       1.0  0.02485273904498801  0.27884608837604224  0.5416071135456021  1.0000
  C   C14       1.0  0.48310669966205916  0.22112352422048084  0.45847696915070907  1.0000
  C   C15       1.0  0.9751500447388607  0.7211527143538563  0.4583909964218833  1.0000
  C   C16       1.0  0.5168914304068224  0.778878762682915  0.5415230280975223  1.0000
  C   C17       1.0  0.73194257464138  0.974331069702231  0.7758180053287163  1.0000
  C   C18       1.0  0.9559595342114234  0.5255788332625643  0.2243043947999155  1.0000
  C   C19       1.0  0.26805699315012527  0.02567265117431111  0.2241895579591926  1.0000
  C   C20       1.0  0.044043333407302  0.47442067795553566  0.7756960615236537  1.0000
  C   C21       1.0  0.9322127497519758  0.26638147607067  0.6416720627693592  1.0000
  C   C22       1.0  0.29035016151559745  0.23353608966402822  0.35839429789289307  1.0000
  C   C23       1.0  0.06778869966973392  0.7336166270928788  0.35832522434229475  1.0000
  C   C24       1.0  0.7096490041864171  0.7664641114502759  0.6416053808389108  1.0000
  C   C25       1.0  0.5962216772850794  0.008226748698327001  0.8040238471118072  1.0000
  C   C26       1.0  0.7920458350737504  0.49163727047137235  0.1960111034090417  1.0000
  C   C27       1.0  0.40377914103368073  0.9917769632563703  0.19598219267585648  1.0000
  C   C28       1.0  0.20795562655146677  0.5083608488913072  0.8039889317199709  1.0000
  C   C29       1.0  0.15724012931085696  0.1811223422148274  0.7028420961980828  1.0000
  C   C30       1.0  0.4541904433541503  0.31872228777027084  0.29713549657798666  1.0000
  C   C31       1.0  0.8427602893591128  0.8188778532174583  0.29715660863693927  1.0000
  C   C32       1.0  0.5458099826379268  0.681277917381486  0.7028648570674534  1.0000
  C   C33       1.0  0.1500819435117293  0.14128825155621882  0.8125139436615001  1.0000
  C   C34       1.0  0.3373489143928055  0.35857001153702583  0.1874629380988182  1.0000
  C   C35       1.0  0.8499136684177274  0.858714030512104  0.18748525336292937  1.0000
  C   C36       1.0  0.662652616423088  0.6414287968748978  0.8125361457654492  1.0000
  C   C37       1.0  0.11576920512678159  0.0973026588735735  0.9321398821501886  1.0000
  C   C38       1.0  0.18340302092410346  0.40260117747430973  0.0678735900487482  1.0000
  C   C39       1.0  0.8842261821457598  0.9026975333682117  0.06785832144418442  1.0000
  C   C40       1.0  0.8165985123324901  0.5973976341774405  0.9321260434189896  1.0000
  C   C41       1.0  0.9138004940161011  0.17760583914648723  0.8770998062665072  1.0000
  C   C42       1.0  0.036413113536554  0.32235161951136604  0.12294395033022451  1.0000
  C   C43       1.0  0.08619763361207328  0.822396444517082  0.12289964137824679  1.0000
  C   C44       1.0  0.9635873100148233  0.6776485824005649  0.8770558537117452  1.0000
  C   C45       1.0  0.990929712971507  0.11195520812299262  0.9723562031792525  1.0000
  C   C46       1.0  0.01829294992587191  0.38799807777333234  0.027688822499129618  1.0000
  C   C47       1.0  0.0090657508138037  0.8880456828875226  0.02764269796077909  1.0000
  C   C48       1.0  0.981707323040659  0.6120007298409715  0.972310136054979  1.0000
  I   I1        1.0  0.14630623725094688  0.8669251603437614  0.6926817113031447  1.0000
  I   I2        1.0  0.4533425338678327  0.6329678975276354  0.30722760021883744  1.0000
  I   I3        1.0  0.853692930891775  0.1330750440103756  0.30731851703212953  1.0000
  I   I4        1.0  0.5466627037461647  0.3670302274677296  0.6927733604441428  1.0000
  I   I5        1.0  0.7518006251220373  0.0346861380745906  0.5035851304028824  1.0000
  I   I6        1.0  0.24838227749817318  0.4654673230449191  0.496551305489092  1.0000
  I   I7        1.0  0.24819611115685086  0.9653147731725015  0.496417193668144  1.0000
  I   I8        1.0  0.7516131911685447  0.5345335744452484  0.5034486948578873  1.0000
  I   I9        1.0  0.5153458186375204  0.35027081578228103  0.900395054676167  1.0000
  I   I10       1.0  0.6148811141427402  0.14956034895819673  0.09953594165686039  1.0000
  I   I11       1.0  0.4846479477473977  0.649725907736837  0.09960393270746694  1.0000
  I   I12       1.0  0.38511790097442855  0.8504384578584806  0.9004628915870755  1.0000
  N   N1        1.0  0.7362152530195869  0.0035852649334344993  0.7094915886018497  1.0000
  N   N2        1.0  0.026501356510472408  0.4962713866784868  0.29061519858637297  1.0000
  N   N3        1.0  0.2637850443539591  0.9964135750791103  0.2905128659869618  1.0000
  N   N4        1.0  0.973501654370999  0.5037295091177755  0.7093844544146464  1.0000
  N   N5        1.0  0.5153383844824616  0.059273673239751204  0.7534591040215729  1.0000
  N   N6        1.0  0.7617030950371769  0.4405194875359087  0.24651701307210067  1.0000
  N   N7        1.0  0.48466108482995196  0.9407293197096467  0.2465428152894233  1.0000
  N   N8        1.0  0.2382984382194167  0.5594793241158412  0.7534826203956442  1.0000
  N   N9        1.0  0.866631889031609  0.16153524739780073  0.9372586698317918  1.0000
  N   N10       1.0  0.9290598063169923  0.33846267924617024  0.06280851173801948  1.0000
  N   N11       1.0  0.1333660928931195  0.8384656484477874  0.06274103153204891  1.0000
  N   N12       1.0  0.07094068886575403  0.6615382149548454  0.9371908906426683  1.0000
  N   N13       1.0  0.8958174262115931  0.30078214562087174  0.5806897953760739  1.0000
  N   N14       1.0  0.3149582898596393  0.19916903837098235  0.4193990968555568  1.0000
  N   N15       1.0  0.10418653646812708  0.6992159558980972  0.4193071927524413  1.0000
  N   N16       1.0  0.6850396920650965  0.8008318574746056  0.5806006045082839  1.0000
  N   N17       1.0  0.29657911221168115  0.1008419464820278  0.8159256909499959  1.0000
  N   N18       1.0  0.4804427480074054  0.3990068354202947  0.1840285608699972  1.0000
  N   N19       1.0  0.7034163564550369  0.8991589510081398  0.18407430939698344  1.0000
  N   N20       1.0  0.519558713617812  0.6009912839423778  0.8159714742590154  1.0000
  N   N21       1.0  0.30381434461326506  0.142813393872899  0.6982242129610583  1.0000
  N   N22       1.0  0.6054144281185428  0.3569831451295755  0.3017148117747723  1.0000
  N   N23       1.0  0.6961862246415578  0.8571881958570134  0.301775337361832  1.0000
  N   N24       1.0  0.39458489304972477  0.6430184567620145  0.6982868116518404  1.0000
  N   N25       1.0  0.07302838526740629  0.18266206019161763  0.7583718918132689  1.0000
  N   N26       1.0  0.31443516427613355  0.31721522329067403  0.2416200124231196  1.0000
  N   N27       1.0  0.926972107474647  0.8173388307695716  0.24162696096394848  1.0000
  N   N28       1.0  0.6855650346183211  0.6827828887947264  0.7583787981887866  1.0000
  N   N29       1.0  0.0823908349412577  0.2231323275656649  0.6446544454431944  1.0000
  N   N30       1.0  0.43753842972711254  0.27677222359563564  0.3553744763079933  1.0000
  N   N31       1.0  0.9176106958746288  0.7768664808462591  0.35534463842107306  1.0000
  N   N32       1.0  0.5624607359749093  0.7232279775186755  0.6446252024238104  1.0000
  N   N33       1.0  0.0658435748281505  0.1394524570042037  0.8711932262332169  1.0000
  N   N34       1.0  0.1944122001778226  0.36043140049347505  0.1288043850062337  1.0000
  N   N35       1.0  0.9341531443658225  0.8605484315641121  0.1288052506135102  1.0000
  N   N36       1.0  0.8055880752294085  0.6395674103606478  0.871195123151338  1.0000
