data_image0
_chemical_formula_structural       Zn2H28C52N4O8
_chemical_formula_sum              "Zn2 H28 C52 N4 O8"
_cell_length_a       9.002776304284284
_cell_length_b       12.732955949024417
_cell_length_c       13.265995297607734
_cell_angle_alpha    91.5870316587294
_cell_angle_beta     93.22909465014271
_cell_angle_gamma    102.27923707422126

_space_group_name_H-M_alt    "P 1"
_space_group_IT_number       1

loop_
  _space_group_symop_operation_xyz
  'x, y, z'

loop_
  _atom_site_type_symbol
  _atom_site_label
  _atom_site_symmetry_multiplicity
  _atom_site_fract_x
  _atom_site_fract_y
  _atom_site_fract_z
  _atom_site_occupancy
  Zn  Zn1       1.0  0.15515587477023016  0.40334534613358375  0.0376249432648024  1.0000
  Zn  Zn2       1.0  0.8448426262014976  0.5966611077987378  0.9623728771684485  1.0000
  H   H1        1.0  0.4109414123359088  0.5498743198419617  0.9328805102576042  1.0000
  H   H2        1.0  0.5890579860047538  0.45014026342859376  0.06710633238514421  1.0000
  H   H3        1.0  0.09885275991008062  0.8229547158978008  0.05138964418138411  1.0000
  H   H4        1.0  0.9011464329937623  0.1770501257594573  0.9486096397019284  1.0000
  H   H5        1.0  0.10212083803673976  0.2690676163786278  0.8415642701511814  1.0000
  H   H6        1.0  0.8978736866038727  0.7309435548924338  0.15844117254970772  1.0000
  H   H7        1.0  0.1199608585978424  0.020549198818528697  0.053468762304184715  1.0000
  H   H8        1.0  0.8800365067865172  0.9794572523738835  0.9465282762061451  1.0000
  H   H9        1.0  0.4959404014811  0.6953770609799077  0.12063737311437003  1.0000
  H   H10       1.0  0.5040579909141059  0.3046285506095713  0.8793649364463434  1.0000
  H   H11       1.0  0.6523136857014151  0.8800923609702451  0.15730296883639036  1.0000
  H   H12       1.0  0.3476847946792034  0.11991409929577657  0.8426940973488757  1.0000
  H   H13       1.0  0.900695826922494  0.24532997445944454  0.1253845434328369  1.0000
  H   H14       1.0  0.09930568680065474  0.7546596265000501  0.8746157241481285  1.0000
  H   H15       1.0  0.5469486926294351  0.2346637177197834  0.1382407731479276  1.0000
  H   H16       1.0  0.4530529006167966  0.7653419654264294  0.8617563397017278  1.0000
  H   H17       1.0  0.7279074294276598  0.23497291929450628  0.2691447476680154  1.0000
  H   H18       1.0  0.27210259291769023  0.7650070759775643  0.730860640073175  1.0000
  H   H19       1.0  0.548102336976612  0.5512807755164814  0.7769021072485743  1.0000
  H   H20       1.0  0.4518938072020333  0.44871852168827087  0.22308558071714668  1.0000
  H   H21       1.0  0.2288090609698159  0.2551644608252204  0.6789140753229008  1.0000
  H   H22       1.0  0.7711903245328171  0.7448282416041535  0.3210968141466779  1.0000
  H   H23       1.0  0.15532213136309983  0.5405515641263035  0.23233129451604387  1.0000
  H   H24       1.0  0.8446567974131227  0.45944512061545584  0.7676634117242075  1.0000
  H   H25       1.0  0.6712361783749685  0.07793853069459539  0.16363658164737424  1.0000
  H   H26       1.0  0.3287651621569693  0.9220663544446805  0.8363597405938779  1.0000
  H   H27       1.0  0.9943693477966633  0.5450352049196282  0.37912179549421415  1.0000
  H   H28       1.0  0.005622188295994548  0.454950270079351  0.6208818401250868  1.0000
  C   C1        1.0  0.19530175649178716  0.6364308850762511  0.0660502199725173  1.0000
  C   C2        1.0  0.8046986955460939  0.3635739213187036  0.9339543713216047  1.0000
  C   C3        1.0  0.3727309436844449  0.4867924089321249  0.8742563626859766  1.0000
  C   C4        1.0  0.6272687029330726  0.5132189470484008  0.1257326249339812  1.0000
  C   C5        1.0  0.2194092675509153  0.8356763961720259  0.0757753247455497  1.0000
  C   C6        1.0  0.7805870857927248  0.16433001427827074  0.9242254573297547  1.0000
  C   C7        1.0  0.3255782568029346  0.1358531339002056  0.09553622242034271  1.0000
  C   C8        1.0  0.6744240739950698  0.864154949600497  0.9044625080065246  1.0000
  C   C9        1.0  0.2875675249513208  0.7484368935657314  0.08606996242216522  1.0000
  C   C10       1.0  0.7124288489834286  0.25156951055087257  0.9139315739011169  1.0000
  C   C11       1.0  0.4646441346066722  0.9587388541140669  0.1251815091271737  1.0000
  C   C12       1.0  0.5353547849917746  0.04126519586996119  0.8748162298997573  1.0000
  C   C13       1.0  0.3057203150551331  0.9419518361650816  0.09384270574962983  1.0000
  C   C14       1.0  0.6942779537934172  0.05805381342661059  0.9061550783231953  1.0000
  C   C15       1.0  0.2547848695085122  0.2299026267234652  0.07527371318624891  1.0000
  C   C16       1.0  0.7452140706810441  0.7701014169268632  0.92472478008866  1.0000
  C   C17       1.0  0.40036249697478604  0.402030520366587  0.7139452535082641  1.0000
  C   C18       1.0  0.5996315969103421  0.5979678276762924  0.28605742770681536  1.0000
  C   C19       1.0  0.20089849077602656  0.3293139925627386  0.8226286391049914  1.0000
  C   C20       1.0  0.7991031436524239  0.6706916779160678  0.17736998224062722  1.0000
  C   C21       1.0  0.23975671899025738  0.0323819914998253  0.07929102419754491  1.0000
  C   C22       1.0  0.760244687752447  0.9676268999353039  0.9207062064188424  1.0000
  C   C23       1.0  0.4451098490098389  0.7653694489228685  0.11548418270157162  1.0000
  C   C24       1.0  0.5548878926354703  0.2346377622742749  0.8845181719050502  1.0000
  C   C25       1.0  0.5309096446966066  0.8677026395566825  0.1354893091386487  1.0000
  C   C26       1.0  0.4690915916962482  0.13230542853671068  0.8645101478612605  1.0000
  C   C27       1.0  0.9160785515854926  0.3095548441913607  0.18360133208700097  1.0000
  C   C28       1.0  0.08392045883972085  0.6904339469476922  0.816397335287711  1.0000
  C   C29       1.0  0.48499244311752693  0.3958027968639114  0.628498545282959  1.0000
  C   C30       1.0  0.5150110684749691  0.6041860179021583  0.3715017412874603  1.0000
  C   C31       1.0  0.48213221201749684  0.152099797658984  0.1277591734939705  1.0000
  C   C32       1.0  0.5178676360736817  0.8479074696875769  0.8722387109746281  1.0000
  C   C33       1.0  0.8212989969108975  0.3040827555453376  0.26315591716147685  1.0000
  C   C34       1.0  0.17870894520066827  0.6958980512549572  0.7368464345983271  1.0000
  C   C35       1.0  0.6616620198874871  0.3909076538967964  0.4833546336106664  1.0000
  C   C36       1.0  0.3383655505719503  0.6090820290816055  0.516661355453465  1.0000
  C   C37       1.0  0.44931317616652666  0.48712504442773497  0.7862560354033407  1.0000
  C   C38       1.0  0.55068755598127  0.5128782763661945  0.21373493438120766  1.0000
  C   C39       1.0  0.5683691856395044  0.3931020928662006  0.5588822274061515  1.0000
  C   C40       1.0  0.4316463063645486  0.6068842820136168  0.4411333394669514  1.0000
  C   C41       1.0  0.27090773508810884  0.3224119045911706  0.7328062621315966  1.0000
  C   C42       1.0  0.7290925845282318  0.6775848892120847  0.2671965124122552  1.0000
  C   C43       1.0  0.05884714015807189  0.4748862476218818  0.24314409505503684  1.0000
  C   C44       1.0  0.94114089065436  0.5251032761228486  0.7568520691867917  1.0000
  C   C45       1.0  0.5497798201573474  0.0658111362963325  0.14179092747232153  1.0000
  C   C46       1.0  0.4502173336949369  0.9341945042217501  0.8582068289255674  1.0000
  C   C47       1.0  0.7481786618415358  0.38996699928949846  0.4152320224899172  1.0000
  C   C48       1.0  0.251833935633492  0.6100186861102086  0.5847676134652745  1.0000
  C   C49       1.0  0.8455359988432534  0.3902074991611427  0.3356014483630858  1.0000
  C   C50       1.0  0.1544704508275601  0.6097756898464226  0.6644024656240719  1.0000
  C   C51       1.0  0.9695690366088668  0.47690414254082447  0.32483575930849906  1.0000
  C   C52       1.0  0.03042582388147957  0.5230813660126755  0.6751672050876325  1.0000
  N   N1        1.0  0.03224463367092767  0.3938484101780658  0.17277079064906795  1.0000
  N   N2        1.0  0.9677437572487761  0.6061459052020409  0.8272285810722481  1.0000
  N   N3        1.0  0.2518470306707242  0.4091558760765394  0.8930200019793519  1.0000
  N   N4        1.0  0.7481520213492558  0.5908561864991952  0.10697955379784221  1.0000
  O   O1        1.0  0.2677613957125189  0.5598392694565105  0.07047458227963692  1.0000
  O   O2        1.0  0.7322392266752119  0.4401663602801803  0.9295277826309487  1.0000
  O   O3        1.0  0.05272098685699687  0.6224132668845569  0.04941588053761591  1.0000
  O   O4        1.0  0.947278795023415  0.37758999416615063  0.9505810955558547  1.0000
  O   O5        1.0  0.12057547889656209  0.21399212812559645  0.0338094512501996  1.0000
  O   O6        1.0  0.8794245968803621  0.7860119182646415  0.9661898239476303  1.0000
  O   O7        1.0  0.332084478463088  0.3250591904167451  0.09881482405656783  1.0000
  O   O8        1.0  0.6679121699606086  0.6749448540874783  0.9011813511245279  1.0000
