data_image0
_chemical_formula_structural       V2Cu2P2H28C32N6O12F2
_chemical_formula_sum              "V2 Cu2 P2 H28 C32 N6 O12 F2"
_cell_length_a       8.545380597942112
_cell_length_b       11.34716436178898
_cell_length_c       11.332445972508378
_cell_angle_alpha    120.04321730359078
_cell_angle_beta     109.46838343829431
_cell_angle_gamma    89.9997504793165

_space_group_name_H-M_alt    "P 1"
_space_group_IT_number       1

loop_
  _space_group_symop_operation_xyz
  'x, y, z'

loop_
  _atom_site_type_symbol
  _atom_site_label
  _atom_site_symmetry_multiplicity
  _atom_site_fract_x
  _atom_site_fract_y
  _atom_site_fract_z
  _atom_site_occupancy
  V   V1        1.0  0.4852270525186029  0.8703931993151099  0.5207120260182663  1.0000
  V   V2        1.0  0.5147765733368175  0.3496822486564922  0.47929288614366083  1.0000
  Cu  Cu1       1.0  0.8745200152859878  0.0229852191927833  0.2687399043188421  1.0000
  Cu  Cu2       1.0  0.12547420626990655  0.7542443646362853  0.731252178717881  1.0000
  P   P1        1.0  0.28421968753998056  0.06291786870030336  0.3994557602396611  1.0000
  P   P2        1.0  0.7157834139303673  0.6634618296950591  0.6005492795565105  1.0000
  H   H1        1.0  0.7304647884056905  0.02497991958335179  0.4603607045819943  1.0000
  H   H2        1.0  0.269526750677798  0.564608961204108  0.5396289020745187  1.0000
  H   H3        1.0  0.7584315585285706  0.18302317353104056  0.5074353665001186  1.0000
  H   H4        1.0  0.241565694310097  0.6755794357084354  0.492558474790606  1.0000
  H   H5        1.0  0.06454065661110762  0.8539054802981166  0.3948414896525561  1.0000
  H   H6        1.0  0.9354543465222915  0.4590573505114077  0.6051534344275282  1.0000
  H   H7        1.0  0.9627003015818119  0.6516987698965121  0.4035782758935866  1.0000
  H   H8        1.0  0.037300655164749195  0.24811868650809993  0.5964227679185542  1.0000
  H   H9        1.0  0.6548952273288862  0.537513557282537  0.2666250047688478  1.0000
  H   H10       1.0  0.34510461513193036  0.27089211149821313  0.7333769075566041  1.0000
  H   H11       1.0  0.4662615199370634  0.6124903893136417  0.10507166260429555  1.0000
  H   H12       1.0  0.533731404210684  0.5074248874547249  0.8949284107107972  1.0000
  H   H13       1.0  0.5872252157596946  0.17210322524502425  0.9189353274955537  1.0000
  H   H14       1.0  0.41276369232335225  0.2531596232372876  0.08106942766472253  1.0000
  H   H15       1.0  0.8185882186876083  0.37152005430731794  0.018653697404957405  1.0000
  H   H16       1.0  0.18141372798623215  0.35286555407563464  0.9813515198582723  1.0000
  H   H17       1.0  0.07438688635264869  0.4386277070827018  0.2500532638367403  1.0000
  H   H18       1.0  0.925615302863221  0.1885810669544482  0.7499470724462541  1.0000
  H   H19       1.0  0.09148492417030948  0.294320460227027  0.3617434490940711  1.0000
  H   H20       1.0  0.9085120006411739  0.9325826339774177  0.638250347171109  1.0000
  H   H21       1.0  0.2938876122298594  0.03845262801656449  0.18258499809464726  1.0000
  H   H22       1.0  0.7061201070910524  0.8558637733903464  0.8174228351818016  1.0000
  H   H23       1.0  0.4079817546228524  0.9273636567797109  0.2306234335060394  1.0000
  H   H24       1.0  0.5920325342506558  0.6967331770770567  0.7693831819435601  1.0000
  H   H25       1.0  0.24151912787009874  0.7091474649166682  0.182467570070841  1.0000
  H   H26       1.0  0.7585064567149117  0.5266789810978876  0.817547192640241  1.0000
  H   H27       1.0  1.5198898538011354e-05  0.5096651361714563  1.068956738234587e-05  1.0000
  H   H28       1.0  1.7828538006716036e-06  0.946823935948899  0.9999993549938397  1.0000
  C   C1        1.0  0.9340252728502775  0.7952842410523288  0.32984051408849513  1.0000
  C   C2        1.0  0.06596912563376381  0.46543987781884494  0.6701544942815119  1.0000
  C   C3        1.0  0.8761205004748474  0.6831555671625932  0.33447982886688976  1.0000
  C   C4        1.0  0.12387630022637806  0.34867376075244727  0.6655165710943152  1.0000
  C   C5        1.0  0.7058901815154711  0.6178256355039193  0.2556256740724549  1.0000
  C   C6        1.0  0.29410855433906136  0.36220069027147156  0.7443765040835474  1.0000
  C   C7        1.0  0.6007147392674667  0.6590078963835281  0.1654588193714162  1.0000
  C   C8        1.0  0.399279431609898  0.49355075787078556  0.8345418564952071  1.0000
  C   C9        1.0  0.6694255811229792  0.7643914848018766  0.15648457027008794  1.0000
  C   C10       1.0  0.3305660554021657  0.6079058616620543  0.8435130783408625  1.0000
  C   C11       1.0  0.5762329606609524  0.8163802262362834  0.06368798295125777  1.0000
  C   C12       1.0  0.4237585051305074  0.7526921459122985  0.9363084572618521  1.0000
  C   C13       1.0  0.5859000790234674  0.019150352901604592  0.04985908429122087  1.0000
  C   C14       1.0  0.4140878793372875  0.9692858747485354  0.9501319231569527  1.0000
  C   C15       1.0  0.7096693604287553  0.13956887337498355  0.09728401644123617  1.0000
  C   C16       1.0  0.2903238321492623  0.042281557152541886  0.9027093712546803  1.0000
  C   C17       1.0  0.6950381644368517  0.20848633586868454  0.022068008384401545  1.0000
  C   C18       1.0  0.304957969065839  0.1864137849651469  0.9779310040666119  1.0000
  C   C19       1.0  0.8272508977649123  0.3166404427040703  0.07600220304839671  1.0000
  C   C20       1.0  0.17274851534474317  0.2406383292030724  0.9239956404822537  1.0000
  C   C21       1.0  0.9698259243833218  0.3528835133030625  0.20185828089889674  1.0000
  C   C22       1.0  0.030175726379624707  0.1510296202211308  0.7981400153738679  1.0000
  C   C23       1.0  0.9795412630672614  0.2753382258664131  0.26754252749623225  1.0000
  C   C24       1.0  0.020455808926712393  0.007798277802493197  0.732454709901539  1.0000
  C   C25       1.0  0.28654554425271767  0.9618627812944565  0.2139978680510949  1.0000
  C   C26       1.0  0.7134638306793448  0.747861210860428  0.7860064962018145  1.0000
  C   C27       1.0  0.13967452157353213  0.8412636939494145  0.10232575426895327  1.0000
  C   C28       1.0  0.8603378617245595  0.7389381533676908  0.8976783106892797  1.0000
  C   C29       1.0  0.1379071479873132  0.7168044936900484  0.10063235410112963  1.0000
  C   C30       1.0  0.862114943543979  0.6161759609785092  0.8993805021168555  1.0000
  C   C31       1.0  9.861820501605617e-06  0.6058319085424839  6.336658564927415e-06  1.0000
  C   C32       1.0  5.00899150777103e-06  0.8504497032061448  1.5412946632358367e-07  1.0000
  N   N1        1.0  0.8325240004044542  0.8351037020423816  0.2438027661498339  1.0000
  N   N2        1.0  0.16746654070599476  0.5913012373117537  0.7561938695098009  1.0000
  N   N3        1.0  0.6521292621021286  0.9431755045201551  0.10740016818627379  1.0000
  N   N4        1.0  0.3478617284894483  0.8357706013587102  0.8925916923607105  1.0000
  N   N5        1.0  0.8532727458426874  0.17093479090073765  0.21533280895689438  1.0000
  N   N6        1.0  0.14672160213339677  0.9555980364672433  0.784656838804011  1.0000
  O   O1        1.0  0.7987314383141068  0.09543462139825457  0.45840734265645017  1.0000
  O   O2        1.0  0.20126467601331643  0.6370193519724765  0.541584367646074  1.0000
  O   O3        1.0  0.11021476417400318  0.10292931969691915  0.3863932570433449  1.0000
  O   O4        1.0  0.8897841497369399  0.7165385412520633  0.613605830505165  1.0000
  O   O5        1.0  0.31500559314780224  0.9766163933055265  0.4720956823818909  1.0000
  O   O6        1.0  0.6849963667238653  0.5045201158552144  0.5279031166220066  1.0000
  O   O7        1.0  0.6193261656884342  0.9134282383461706  0.4655298921338653  1.0000
  O   O8        1.0  0.38067060015484333  0.4478979247751551  0.5344671416493015  1.0000
  O   O9        1.0  0.4251996533730134  0.19319742650154126  0.48777723129010314  1.0000
  O   O10       1.0  0.5747985050739217  0.705425996947042  0.5122364114558025  1.0000
  O   O11       1.0  0.5471812867876195  0.9677421955117606  0.7002363395068087  1.0000
  O   O12       1.0  0.45282770719363435  0.26749849538967396  0.2997675017138022  1.0000
  F   F1        1.0  0.28423569524198916  0.7269659802207753  0.3964442751920886  1.0000
  F   F2        1.0  0.715765133490258  0.33052488499917115  0.6035617540144571  1.0000
