data_image0
_chemical_formula_structural       Cd8H48C56N16Cl16
_chemical_formula_sum              "Cd8 H48 C56 N16 Cl16"
_cell_length_a       7.170184975021117
_cell_length_b       11.789724715048733
_cell_length_c       21.180281764091834
_cell_angle_alpha    89.9997333853216
_cell_angle_beta     90.00020439208494
_cell_angle_gamma    90.000192404862

_space_group_name_H-M_alt    "P 1"
_space_group_IT_number       1

loop_
  _space_group_symop_operation_xyz
  'x, y, z'

loop_
  _atom_site_type_symbol
  _atom_site_label
  _atom_site_symmetry_multiplicity
  _atom_site_fract_x
  _atom_site_fract_y
  _atom_site_fract_z
  _atom_site_occupancy
  Cd  Cd1       1.0  0.6338030659683155  0.38217303909848255  0.4603242590253201  1.0000
  Cd  Cd2       1.0  0.3661982374660369  0.11782523585349479  0.960326289056965  1.0000
  Cd  Cd3       1.0  0.13379903183536604  0.6178252525207313  0.03967533290423829  1.0000
  Cd  Cd4       1.0  0.8661963708062004  0.8821735920482183  0.5396744408240008  1.0000
  Cd  Cd5       1.0  0.3661987737214716  0.6178242483751293  0.539674957609165  1.0000
  Cd  Cd6       1.0  0.6338022075768918  0.8821737480012929  0.03967528826074579  1.0000
  Cd  Cd7       1.0  0.8661972292100514  0.3821737313337508  0.9603253001364744  1.0000
  Cd  Cd8       1.0  0.1338068635574956  0.11782539181531601  0.46032572008361655  1.0000
  H   H1        1.0  0.937622948508114  0.4344441258864294  0.29617452584340487  1.0000
  H   H2        1.0  0.062384970410981594  0.0655546722026301  0.7961739685924624  1.0000
  H   H3        1.0  0.4376147982042085  0.5655556314174176  0.20382637243936583  1.0000
  H   H4        1.0  0.5623921195984493  0.9344469310140011  0.7038254549405846  1.0000
  H   H5        1.0  0.062378891184025106  0.5655540097834049  0.7038246907899788  1.0000
  H   H6        1.0  0.9376126853034705  0.9344451598475204  0.2038271365852323  1.0000
  H   H7        1.0  0.5623800681987278  0.4344484416070814  0.7961756770056705  1.0000
  H   H8        1.0  0.43761669341650844  0.0655537492555496  0.29617281741915474  1.0000
  H   H9        1.0  0.8685895944270001  0.5324620336324983  0.19511951696238572  1.0000
  H   H10       1.0  0.1314144410840683  0.9675380569453863  0.6951184722034183  1.0000
  H   H11       1.0  0.3685819791657464  0.4675358869750782  0.30488082691403645  1.0000
  H   H12       1.0  0.6314162700525471  0.03246453476840121  0.8048791450433581  1.0000
  H   H13       1.0  0.13140666661791298  0.4675394948165774  0.8048796996632813  1.0000
  H   H14       1.0  0.8685860039580288  0.0324651679003836  0.3048807444225473  1.0000
  H   H15       1.0  0.6314031245712711  0.5324639450623181  0.6951202782561833  1.0000
  H   H16       1.0  0.3685813856469409  0.9675344490953892  0.19511959944918528  1.0000
  H   H17       1.0  0.7034727234465096  0.7153482305203553  0.4003393031979312  1.0000
  H   H18       1.0  0.2965348976756985  0.7846492974508336  0.9003375128436911  1.0000
  H   H19       1.0  0.20347445449652207  0.2846476581156381  0.09966037176829445  1.0000
  H   H20       1.0  0.7965285770787817  0.21535108526585842  0.5996598290492512  1.0000
  H   H21       1.0  0.29652911626848066  0.2846490569335316  0.5996646348090591  1.0000
  H   H22       1.0  0.7034739153222773  0.2153479900397315  0.09965934310869774  1.0000
  H   H23       1.0  0.7965287798518759  0.7153521739579319  0.900336484177465  1.0000
  H   H24       1.0  0.2034718679712171  0.784650443177604  0.4003417482651555  1.0000
  H   H25       1.0  0.6376889440341528  0.8147342794334447  0.2999179026705858  1.0000
  H   H26       1.0  0.3623176049776617  0.6852649356592765  0.7999159761779137  1.0000
  H   H27       1.0  0.1376884064531581  0.18526062729830536  0.2000826381710111  1.0000
  H   H28       1.0  0.8623129079116224  0.31473727715110306  0.7000814441114113  1.0000
  H   H29       1.0  0.36231150102155135  0.18526385621328248  0.7000865074717237  1.0000
  H   H30       1.0  0.6376884187012449  0.3147365928115491  0.2000804076300681  1.0000
  H   H31       1.0  0.8623120385622228  0.8147375083799772  0.7999142177752956  1.0000
  H   H32       1.0  0.1376833531460662  0.6852634030899125  0.2999206053388547  1.0000
  H   H33       1.0  0.8909042794489465  0.569843552615069  0.447914041379377  1.0000
  H   H34       1.0  0.1090996655965881  0.9301544261072009  0.947912122645263  1.0000
  H   H35       1.0  0.3908993365790749  0.4301552615388502  0.05208774550317228  1.0000
  H   H36       1.0  0.6090976084486571  0.06984472745831741  0.5520868844213422  1.0000
  H   H37       1.0  0.109100349579407  0.4301528866552927  0.5520875359441175  1.0000
  H   H38       1.0  0.8909049634216828  0.06984201317104781  0.05208756612923079  1.0000
  H   H39       1.0  0.6090997137993596  0.5698454187109193  0.9479128875370004  1.0000
  H   H40       1.0  0.39090423125541923  0.9301568009944534  0.447912804344895  1.0000
  H   H41       1.0  0.9734441704447293  0.45734413943506524  0.4093505378637729  1.0000
  H   H42       1.0  0.026560772761555995  0.04265286497613369  0.9093499972782053  1.0000
  H   H43       1.0  0.4734402634436492  0.5426531460949207  0.09064898670359865  1.0000
  H   H44       1.0  0.526561262062664  0.957346120836391  0.5906489114228604  1.0000
  H   H45       1.0  0.026559063901991895  0.5426514516494835  0.5906482066364942  1.0000
  H   H46       1.0  0.9734438562589034  0.9573452706965425  0.09064921935684107  1.0000
  H   H47       1.0  0.526558786934622  0.45734838235303954  0.909351174198228  1.0000
  H   H48       1.0  0.47344476163152655  0.042654559424399004  0.4093507773469723  1.0000
  C   C1        1.0  0.706820218681557  0.7370688974028357  0.18421892269656576  1.0000
  C   C2        1.0  0.2931781217809045  0.7629287396515849  0.6842162403713556  1.0000
  C   C3        1.0  0.20682553126287215  0.2629320871940806  0.3157864219016415  1.0000
  C   C4        1.0  0.7931784130470447  0.2370699398411418  0.8157848746252366  1.0000
  C   C5        1.0  0.29317743702331  0.2629283900606154  0.8157817103471738  1.0000
  C   C6        1.0  0.7068195339358992  0.23707194059478814  0.31578486480523776  1.0000
  C   C7        1.0  0.7931721244977865  0.7370762268005752  0.6842189325003145  1.0000
  C   C8        1.0  0.2068206373315675  0.76292989221043  0.18421623055328945  1.0000
  C   C9        1.0  0.748377171704739  0.6798222422153443  0.24114555423473388  1.0000
  C   C10       1.0  0.2516231711815351  0.8201774638644181  0.7411422018646616  1.0000
  C   C11       1.0  0.24837522081492114  0.3201771304497855  0.2588584234757717  1.0000
  C   C12       1.0  0.7516267210654702  0.17982622035682283  0.7588574471917438  1.0000
  C   C13       1.0  0.2516163000244589  0.32017928622103403  0.7588560230755231  1.0000
  C   C14       1.0  0.748375879198754  0.17982660917616036  0.2588570147593713  1.0000
  C   C15       1.0  0.7516168562553246  0.6798235497830305  0.7411445702465042  1.0000
  C   C16       1.0  0.24836814533998816  0.8201778526657008  0.2411450743905447  1.0000
  C   C17       1.0  0.8263419856662466  0.5685266270652249  0.35483403419820536  1.0000
  C   C18       1.0  0.1736707282971324  0.9314712810609082  0.8548331332738496  1.0000
  C   C19       1.0  0.32633246516244446  0.4314695112860534  0.14516531505550734  1.0000
  C   C20       1.0  0.6736668682383636  0.06852885193993791  0.6451650064696961  1.0000
  C   C21       1.0  0.17366682734937197  0.4314706604115273  0.6451661267149331  1.0000
  C   C22       1.0  0.8263339007182822  0.06852685461570471  0.14516513908669984  1.0000
  C   C23       1.0  0.6736665852109525  0.5685311689676524  0.8548343737101686  1.0000
  C   C24       1.0  0.3263363661275136  0.9314718283180241  0.3548346822984738  1.0000
  C   C25       1.0  0.8708396878089815  0.5172941667724872  0.2966861754568696  1.0000
  C   C26       1.0  0.129164037376988  0.9827033789154883  0.7966860329797353  1.0000
  C   C27       1.0  0.37083665101555846  0.4827046066130977  0.2033132268282641  1.0000
  C   C28       1.0  0.6291688818464466  0.0172966636329548  0.7033129980019265  1.0000
  C   C29       1.0  0.12916215188550947  0.4827048170935769  0.7033130411754126  1.0000
  C   C30       1.0  0.8708378023176735  0.017294756752377797  0.20331365579090022  1.0000
  C   C31       1.0  0.6291610047009045  0.5172977700296713  0.7966869340716367  1.0000
  C   C32       1.0  0.3708357471834205  0.982704864824619  0.29668621862872857  1.0000
  C   C33       1.0  0.8328753841621789  0.5717867307911888  0.2401608662917808  1.0000
  C   C34       1.0  0.1671277375600724  0.9282146798977637  0.7401604381581064  1.0000
  C   C35       1.0  0.33287264849983694  0.4282136618327854  0.2598370743350101  1.0000
  C   C36       1.0  0.6671348824966046  0.0717888325969653  0.759838638064387  1.0000
  C   C37       1.0  0.16711669289260564  0.42821564584985333  0.7598383503302908  1.0000
  C   C38       1.0  0.8328727074820252  0.07178854494800652  0.2598387784678521  1.0000
  C   C39       1.0  0.6671124552269347  0.5717870184106957  0.7401616701478556  1.0000
  C   C40       1.0  0.33286974653611884  0.9282109994622374  0.24016199498021948  1.0000
  C   C41       1.0  0.7399247111119961  0.6757300575331371  0.3554617863144783  1.0000
  C   C42       1.0  0.2600880095382436  0.8242653007663494  0.8554593776986007  1.0000
  C   C43       1.0  0.23992016777779673  0.3242650569809129  0.14453934850310896  1.0000
  C   C44       1.0  0.7600819482646485  0.17573500787636223  0.6445374486210722  1.0000
  C   C45       1.0  0.26007852325236763  0.3242655335376056  0.6445402631465382  1.0000
  C   C46       1.0  0.7399235927853668  0.17573283492721714  0.14453653397984564  1.0000
  C   C47       1.0  0.7600788825956072  0.6757356232727929  0.855460340262567  1.0000
  C   C48       1.0  0.2399198914518621  0.8242673687647438  0.35546412869307165  1.0000
  C   C49       1.0  0.70213892899924  0.7311030477880679  0.299325989346542  1.0000
  C   C50       1.0  0.29786761367922315  0.768895324062413  0.7993218807294152  1.0000
  C   C51       1.0  0.2021388617553583  0.2688936863235725  0.20067557257694796  1.0000
  C   C52       1.0  0.7978624589499929  0.2311067577585533  0.7006749906130592  1.0000
  C   C53       1.0  0.2978601213822217  0.2688950878651255  0.7006765322459356  1.0000
  C   C54       1.0  0.7021370153281269  0.23110535621471232  0.20067355880433263  1.0000
  C   C55       1.0  0.7978560046302688  0.7311086903183365  0.7993241161840385  1.0000
  C   C56       1.0  0.20213380211256293  0.7688947706767095  0.2993275309733575  1.0000
  N   N1        1.0  0.6685100801398535  0.786349251230213  0.13823597274997462  1.0000
  N   N2        1.0  0.33148498007236077  0.7136504663625731  0.6382320473968688  1.0000
  N   N3        1.0  0.1685072422251821  0.2136474145141278  0.3617693261921459  1.0000
  N   N4        1.0  0.8314888250164927  0.2863533801735231  0.8617676968363167  1.0000
  N   N5        1.0  0.3314875755942595  0.21365312539874987  0.8617674931106759  1.0000
  N   N6        1.0  0.6685070969968764  0.2863553030594232  0.3617681134953086  1.0000
  N   N7        1.0  0.8314820454949015  0.7863490247426199  0.6382317789849663  1.0000
  N   N8        1.0  0.1685018573823669  0.7136456036673947  0.13823482475007853  1.0000
  N   N9        1.0  0.8646716919989784  0.5133402368703557  0.41184659012288427  1.0000
  N   N10       1.0  0.1353332626445649  0.9866563467704169  0.9118445562012023  1.0000
  N   N11       1.0  0.3646688423446065  0.4866568275770078  0.08815516550000517  1.0000
  N   N12       1.0  0.6353340663938167  0.013342011924009998  0.5881535378580194  1.0000
  N   N13       1.0  0.13532596369883268  0.4866545060044133  0.5881540429241594  1.0000
  N   N14       1.0  0.8646699716996339  0.0133392443161071  0.08815371616180556  1.0000
  N   N15       1.0  0.6353302080410614  0.5133455490632387  0.9118459396752239  1.0000
  N   N16       1.0  0.36467195730273266  0.9866595165330097  0.4118461509107119  1.0000
  Cl  Cl1       1.0  0.3550782192085151  0.507527807139219  0.4289244426272346  1.0000
  Cl  Cl2       1.0  0.6449283124519382  0.9924737230008345  0.9289248895012461  1.0000
  Cl  Cl3       1.0  0.8550759202825374  0.49247263061316465  0.07107305232315747  1.0000
  Cl  Cl4       1.0  0.14492680609456704  0.007526351585085001  0.5710732159894574  1.0000
  Cl  Cl5       1.0  0.6449264098089175  0.4924728731300122  0.571072885455514  1.0000
  Cl  Cl6       1.0  0.3550749219062155  0.0075278054612369005  0.07107291071682195  1.0000
  Cl  Cl7       1.0  0.14492313008094726  0.5075272014502376  0.9289252200318711  1.0000
  Cl  Cl8       1.0  0.85507363893543  0.9924743286759535  0.42892505636529404  1.0000
  Cl  Cl9       1.0  0.4548952742238582  0.2071567303794382  0.5000622830707753  1.0000
  Cl  Cl10      1.0  0.5451025100339989  0.2928453896408882  5.990673022179997e-05  1.0000
  Cl  Cl11      1.0  0.9548950364375556  0.7928414296092184  0.999936191832141  1.0000
  Cl  Cl12      1.0  0.0451052800241669  0.7071552663049658  0.4999372188035094  1.0000
  Cl  Cl13      1.0  0.5451065654655948  0.7928422534905692  0.49993598928701005  1.0000
  Cl  Cl14      1.0  0.4548951456649917  0.7071561388174884  0.9999374213472688  1.0000
  Cl  Cl15      1.0  0.045105408572951006  0.20715585787480967  6.019197800809996e-05  1.0000
  Cl  Cl16      1.0  0.9548965596629343  0.2928428693688118  0.5000610535553773  1.0000
