data_image0
_chemical_formula_structural       K3BiH48C30S6N14O4
_chemical_formula_sum              "K3 Bi1 H48 C30 S6 N14 O4"
_cell_length_a       10.901039686306873
_cell_length_b       11.031490734619595
_cell_length_c       12.139835223265646
_cell_angle_alpha    73.24658631129647
_cell_angle_beta     63.81957856075079
_cell_angle_gamma    65.24214133197556

_space_group_name_H-M_alt    "P 1"
_space_group_IT_number       1

loop_
  _space_group_symop_operation_xyz
  'x, y, z'

loop_
  _atom_site_type_symbol
  _atom_site_label
  _atom_site_symmetry_multiplicity
  _atom_site_fract_x
  _atom_site_fract_y
  _atom_site_fract_z
  _atom_site_occupancy
  K   K1        1.0  1.3214859955085446e-07  0.5000039957935345  0.49999682990750927  1.0000
  K   K2        1.0  0.9251042006963958  0.1958016584171958  0.5372316475272569  1.0000
  K   K3        1.0  0.07489134440812961  0.8042068933163691  0.46277649135598853  1.0000
  Bi  Bi1       1.0  1.0611869626599539e-05  3.828066184004165e-07  0.9999906805374507  1.0000
  H   H1        1.0  0.4409106249647152  0.0468209577284213  0.3063061254890798  1.0000
  H   H2        1.0  0.5590881567054212  0.9531815387897568  0.693694912420014  1.0000
  H   H3        1.0  0.27980765888968767  0.011520604764314202  0.34692838942267196  1.0000
  H   H4        1.0  0.720191586947287  0.9884778610674662  0.6530727058270284  1.0000
  H   H5        1.0  0.2708541266517202  0.14882741149369846  0.4046012257057043  1.0000
  H   H6        1.0  0.7291432604727676  0.8511760862883831  0.5953992788986965  1.0000
  H   H7        1.0  0.5099634359090288  0.12980234944297564  0.0780351988535983  1.0000
  H   H8        1.0  0.49003487491726366  0.8702041689611236  0.9219624917452263  1.0000
  H   H9        1.0  0.404445400362647  0.028807865171863508  0.10781885461634738  1.0000
  H   H10       1.0  0.5955599739469691  0.9711906204162306  0.8921806192250797  1.0000
  H   H11       1.0  0.43816054823290074  0.19781541247847662  0.9040201970663871  1.0000
  H   H12       1.0  0.5618329375354209  0.8021820228067043  0.09598099273582496  1.0000
  H   H13       1.0  0.2600386309202989  0.1918728572653663  0.9950478647026415  1.0000
  H   H14       1.0  0.7399558859974391  0.8081245941465413  0.004957852737277381  1.0000
  H   H15       1.0  0.245591517610528  0.4291942156100461  0.9373791347797605  1.0000
  H   H16       1.0  0.7544019631500447  0.5708032130747825  0.06261958754519983  1.0000
  H   H17       1.0  0.38048949961614653  0.3978017277056836  0.9959798722499258  1.0000
  H   H18       1.0  0.6195065686945186  0.6021997250428087  0.004011813337178985  1.0000
  H   H19       1.0  0.9975229186394758  0.5246005727785956  0.08115380038903906  1.0000
  H   H20       1.0  0.002475038806096584  0.47540697621685285  0.9188528194972888  1.0000
  H   H21       1.0  0.09444497629495885  0.6018114479203903  0.1095839402770125  1.0000
  H   H22       1.0  0.9055616951282064  0.3981890540997739  0.8904136601803075  1.0000
  H   H23       1.0  0.9817447460340889  0.5184565268559709  0.23546667522906958  1.0000
  H   H24       1.0  0.018265831752998514  0.4815500442614534  0.7645327075076834  1.0000
  H   H25       1.0  0.5182201859551016  0.49198841780646063  0.8281429247649966  1.0000
  H   H26       1.0  0.4817763702678092  0.508020123652436  0.17185987184697643  1.0000
  H   H27       1.0  0.5981546125162468  0.6093381634710441  0.8155594365635892  1.0000
  H   H28       1.0  0.4018504644893284  0.39066936860463397  0.18443034973420683  1.0000
  H   H29       1.0  0.7069128951340675  0.46076934053312624  0.7402015947582398  1.0000
  H   H30       1.0  0.29308559720239913  0.5392311248780717  0.2597943292788472  1.0000
  H   H31       1.0  0.43833989456874195  0.7880087133767474  0.7389170118013126  1.0000
  H   H32       1.0  0.5616545048858725  0.21199172932973903  0.26107642904082706  1.0000
  H   H33       1.0  0.34137152601370974  0.708828489837032  0.7166287253658438  1.0000
  H   H34       1.0  0.6586225941227469  0.2911699349631861  0.2833645365587854  1.0000
  H   H35       1.0  0.3445964927592867  0.909100398098538  0.5643647475021041  1.0000
  H   H36       1.0  0.6554024503900067  0.0908960190253296  0.4356246539362728  1.0000
  H   H37       1.0  0.5369375162576944  0.8631567824887018  0.5159288125366714  1.0000
  H   H38       1.0  0.4630583701669125  0.13683963465754093  0.48406510082171655  1.0000
  H   H39       1.0  0.373404444130884  0.7146169923088336  0.4836816656158902  1.0000
  H   H40       1.0  0.6266000805394968  0.28537542415962497  0.5163115140260927  1.0000
  H   H41       1.0  0.4893524664622433  0.7984341988986401  0.36513959443105654  1.0000
  H   H42       1.0  0.5106514088167415  0.20155720825372472  0.6348541106567679  1.0000
  H   H43       1.0  0.7160250599868977  0.6341638592549971  0.2591973990013514  1.0000
  H   H44       1.0  0.28398393932334903  0.36582758672881976  0.7408033169191341  1.0000
  H   H45       1.0  0.5938841953817828  0.5429915818807844  0.31258361206957364  1.0000
  H   H46       1.0  0.4061282257186393  0.4569988488901302  0.6874094200902973  1.0000
  H   H47       1.0  0.7589070048424844  0.46901848909411825  0.342784737487676  1.0000
  H   H48       1.0  0.24110357089946893  0.5309769912280373  0.657214283966212  1.0000
  C   C1        1.0  0.13836882851315838  0.18342882714466674  0.7098572453363302  1.0000
  C   C2        1.0  0.8616285719653479  0.8165746882383542  0.29014983920738774  1.0000
  C   C3        1.0  0.7365549102561247  0.17791931980906384  0.8556628881327625  1.0000
  C   C4        1.0  0.26344945126585634  0.8220791738535809  0.14434110548751988  1.0000
  C   C5        1.0  0.9450709581984353  0.11953881382172683  0.26544970511542243  1.0000
  C   C6        1.0  0.05491652657588022  0.8804556236132655  0.7345703176473322  1.0000
  C   C7        1.0  0.18571465375040228  0.300728384610558  0.2323966187025731  1.0000
  C   C8        1.0  0.8142906281348774  0.6992731252738623  0.7676029159272983  1.0000
  C   C9        1.0  0.32357787681961986  0.09276685127127852  0.32522528229173986  1.0000
  C   C10       1.0  0.6764202537898643  0.9072346337306881  0.6747754585707851  1.0000
  C   C11       1.0  0.3997628169955902  0.1328485325853421  0.09769718856514943  1.0000
  C   C12       1.0  0.6002329012728467  0.8671539551547341  0.902305071294293  1.0000
  C   C13       1.0  0.3479146298844143  0.2177489457138648  0.993160635625685  1.0000
  C   C14       1.0  0.6520825703462593  0.7822495098656219  0.006839629272747133  1.0000
  C   C15       1.0  0.29129464398376115  0.36583111550943676  0.007825267519642375  1.0000
  C   C16       1.0  0.7087021778274122  0.634168337659638  0.9921715892800689  1.0000
  C   C17       1.0  0.05603380454799379  0.5157132538525958  0.13902316147115812  1.0000
  C   C18       1.0  0.9439722241607814  0.48428624765193706  0.8609782544016722  1.0000
  C   C19       1.0  0.64381461403309  0.5563752504406239  0.5472067965728513  1.0000
  C   C20       1.0  0.3561887113317256  0.44362322049493497  0.4527902019324797  1.0000
  C   C21       1.0  0.6002828376340689  0.5396021461195774  0.7654813829239372  1.0000
  C   C22       1.0  0.3997176062151127  0.46040135164013657  0.23451460976045968  1.0000
  C   C23       1.0  0.44144629008854963  0.7351504480185156  0.6730512224917362  1.0000
  C   C24       1.0  0.558548578540659  0.26484597060193243  0.3269447431682551  1.0000
  C   C25       1.0  0.4469485807808341  0.8240343724713456  0.5507809343361173  1.0000
  C   C26       1.0  0.5530500913965639  0.17596003774684021  0.44921240064682155  1.0000
  C   C27       1.0  0.4702378826118546  0.7415088772490608  0.458227763054225  1.0000
  C   C28       1.0  0.5297703581901274  0.2584845617138214  0.541765314176395  1.0000
  C   C29       1.0  0.6707607680422784  0.5629298749054713  0.3349533632924703  1.0000
  C   C30       1.0  0.3292472017878083  0.43706155715172224  0.6650436474827187  1.0000
  S   S1        1.0  0.22722799141893554  0.08199432605704261  0.8001123654806931  1.0000
  S   S2        1.0  0.7727702366226483  0.9180041412489431  0.1998907820706178  1.0000
  S   S3        1.0  0.7567507806242658  0.21854285708644744  0.9659646196085278  1.0000
  S   S4        1.0  0.2432533032488069  0.7814536208700459  0.034040017586654814  1.0000
  S   S5        1.0  0.9720626122797144  0.198690425074183  0.12381009536802151  1.0000
  S   S6        1.0  0.027922293666648654  0.8013110878928771  0.8762206153851224  1.0000
  N   N1        1.0  0.07595749252298842  0.2562974362506978  0.6443255044579743  1.0000
  N   N2        1.0  0.9240413008319096  0.743705075668295  0.3556812908980263  1.0000
  N   N3        1.0  0.7173510296451013  0.15313462790960844  0.7773756716619218  1.0000
  N   N4        1.0  0.28264191455531323  0.8468698821593463  0.22263292401986232  1.0000
  N   N5        1.0  0.9250143891431932  0.06647512704596892  0.36837710289474046  1.0000
  N   N6        1.0  0.07497142548170634  0.9335293867420519  0.6316433914210862  1.0000
  N   N7        1.0  0.3022532485454263  0.1837778141406616  0.2167024861299679  1.0000
  N   N8        1.0  0.6977462766097062  0.8162226695973872  0.7832987880372427  1.0000
  N   N9        1.0  0.17626312461950286  0.3897101740440405  0.12878323599636582  1.0000
  N   N10       1.0  0.8237391846191716  0.6102883005658342  0.8712166373029859  1.0000
  N   N11       1.0  0.5696977813997322  0.6135349573175333  0.6551696391634325  1.0000
  N   N12       1.0  0.43030006154533146  0.3864644987775776  0.3448268103195033  1.0000
  N   N13       1.0  0.5970187515527174  0.6193630270904579  0.4508052233705654  1.0000
  N   N14       1.0  0.40298772796887766  0.38063242612675213  0.5491896699035478  1.0000
  O   O1        1.0  0.09265050692484783  0.3265069606363865  0.3388064938692068  1.0000
  O   O2        1.0  0.9073521727629554  0.6735015939784647  0.661192213857248  1.0000
  O   O3        1.0  0.7530046141695126  0.4499888967581925  0.5369150241809705  1.0000
  O   O4        1.0  0.24700335603645848  0.5500136238941592  0.4630815253846661  1.0000
