data_image0
_chemical_formula_structural       Zn6H28C42N24O8
_chemical_formula_sum              "Zn6 H28 C42 N24 O8"
_cell_length_a       9.786110336847639
_cell_length_b       11.384793415337134
_cell_length_c       12.289201505897179
_cell_angle_alpha    108.24061469265942
_cell_angle_beta     103.70128097129636
_cell_angle_gamma    105.38341742882459

_space_group_name_H-M_alt    "P 1"
_space_group_IT_number       1

loop_
  _space_group_symop_operation_xyz
  'x, y, z'

loop_
  _atom_site_type_symbol
  _atom_site_label
  _atom_site_symmetry_multiplicity
  _atom_site_fract_x
  _atom_site_fract_y
  _atom_site_fract_z
  _atom_site_occupancy
  Zn  Zn1       1.0  0.2083296091365981  0.851204874693771  0.07367181458265998  1.0000
  Zn  Zn2       1.0  0.7916695236062881  0.14879497288730903  0.9263276845912215  1.0000
  Zn  Zn3       1.0  0.8493053014602553  0.7284028388393722  0.10719036239002118  1.0000
  Zn  Zn4       1.0  0.15069530450695373  0.2715980019119685  0.8928113283523513  1.0000
  Zn  Zn5       1.0  0.5696229933193848  0.8300873762089795  0.1998980913581506  1.0000
  Zn  Zn6       1.0  0.43037739210205234  0.16991545332528094  0.8001041383624212  1.0000
  H   H1        1.0  0.7303868223010286  0.6500915283585798  0.8200422217579301  1.0000
  H   H2        1.0  0.2696083626831296  0.3499013525244692  0.17995857868140056  1.0000
  H   H3        1.0  0.6378187491613545  0.4656947783745836  0.6138491716594884  1.0000
  H   H4        1.0  0.3621785340761292  0.5342981049620049  0.38615039291653364  1.0000
  H   H5        1.0  0.7927353320355764  0.3293725973208339  0.5605438881033817  1.0000
  H   H6        1.0  0.20726593556896944  0.6706222770817264  0.4394561857043938  1.0000
  H   H7        1.0  0.03735043700802983  0.37768780020721254  0.7156356162132055  1.0000
  H   H8        1.0  0.9626518543230915  0.6223120475554752  0.2843652851392875  1.0000
  H   H9        1.0  0.5838613356846879  0.6654211352046816  0.35749544166981906  1.0000
  H   H10       1.0  0.41614073510065464  0.334580701340933  0.6425059986608658  1.0000
  H   H11       1.0  0.6816178053626133  0.6792627572822527  0.5689427530210479  1.0000
  H   H12       1.0  0.3183874268130324  0.32073907857030554  0.4310609034816437  1.0000
  H   H13       1.0  0.9578715033905143  0.7906352880608625  0.6902702977187687  1.0000
  H   H14       1.0  0.04213372318100992  0.20936654954103776  0.3097317307971323  1.0000
  H   H15       1.0  0.1343917579249236  0.8819588205790083  0.5954997835266196  1.0000
  H   H16       1.0  0.865611361987078  0.11804301719337935  0.404501038872418  1.0000
  H   H17       1.0  0.8465664125673414  0.29646207986547074  0.20243117936313837  1.0000
  H   H18       1.0  0.1534371230361416  0.7035407524744246  0.7975700105558657  1.0000
  H   H19       1.0  0.7522178837482016  0.4644467088193736  0.3100215176715294  1.0000
  H   H20       1.0  0.24777891058113982  0.535555131213812  0.6899740583900992  1.0000
  H   H21       1.0  0.5058750189434066  0.3879830595154702  0.3390006369271176  1.0000
  H   H22       1.0  0.4941180003564014  0.612014804167508  0.6609906349509769  1.0000
  H   H23       1.0  0.3584861313790526  0.1469824342818953  0.26648591858504733  1.0000
  H   H24       1.0  0.641511098437711  0.853015429934793  0.7335069515333997  1.0000
  H   H25       1.0  0.6452286040002309  0.9670359832908704  0.43740478701340635  1.0000
  H   H26       1.0  0.3547692590702169  0.03296585184637021  0.5625958690703284  1.0000
  H   H27       1.0  0.47111979112305863  0.9423416371087686  0.35997234433797587  1.0000
  H   H28       1.0  0.5288766099313165  0.0576592013595203  0.6400293761508421  1.0000
  C   C1        1.0  0.9335086757923107  0.6159878785325006  0.8868365959016983  1.0000
  C   C2        1.0  0.06648752731430824  0.3840099774600248  0.1131634040955589  1.0000
  C   C3        1.0  0.7950805060762461  0.5874216378830611  0.7969911704015329  1.0000
  C   C4        1.0  0.20491677996329835  0.4125712445788567  0.20300920816788448  1.0000
  C   C5        1.0  0.7442679605384015  0.4845056307793315  0.6822150097285088  1.0000
  C   C6        1.0  0.2557307959234123  0.5154882457275108  0.31778674641601157  1.0000
  C   C7        1.0  0.8299523474777005  0.4067018284248648  0.6519786478758505  1.0000
  C   C8        1.0  0.17004933862037325  0.5932940396705321  0.3480226074452942  1.0000
  C   C9        1.0  0.9656278559232662  0.43236436253539534  0.7395855520641205  1.0000
  C   C10       1.0  0.03437150016745961  0.5676334953880868  0.26041422212495746  1.0000
  C   C11       1.0  0.017684677837763747  0.5331457673960857  0.8574977236844177  1.0000
  C   C12       1.0  0.9823176162954255  0.4668540794919382  0.14250399166146369  1.0000
  C   C13       1.0  0.16304836491378447  0.5595170594684548  0.9448352408221011  1.0000
  C   C14       1.0  0.8369507678291016  0.4404827881126252  0.055164258351780376  1.0000
  C   C15       1.0  0.8012852915028148  0.7674088678386398  0.35568772837238777  1.0000
  C   C16       1.0  0.19871824690272893  0.23259396362657725  0.6443142755400045  1.0000
  C   C17       1.0  0.7044445054407619  0.713154880718378  0.41088188932742753  1.0000
  C   C18       1.0  0.2955567367637003  0.28684496581755076  0.5891196299567198  1.0000
  C   C19       1.0  0.7598159840090946  0.7220535758408461  0.5292227258838906  1.0000
  C   C20       1.0  0.24018819063370245  0.2779482614089588  0.4707791065702693  1.0000
  C   C21       1.0  0.914940752724711  0.7847783238846304  0.5976963564640129  1.0000
  C   C22       1.0  0.08506258773307712  0.21522152510483042  0.40230392695681866  1.0000
  C   C23       1.0  0.013035303680020193  0.8362909480335363  0.5446899616505902  1.0000
  C   C24       1.0  0.9869671855988643  0.16371188220491462  0.45531266019346356  1.0000
  C   C25       1.0  0.9599303205102033  0.8287763113133764  0.4245083198832376  1.0000
  C   C26       1.0  0.04007111683995392  0.17122651857298624  0.5754941058990752  1.0000
  C   C27       1.0  0.06970098474422322  0.876318232758692  0.37148383166331905  1.0000
  C   C28       1.0  0.9303008598912186  0.12368559431919832  0.6285165196587812  1.0000
  C   C29       1.0  0.7112894122323254  0.032034517115349104  0.10618392518716749  1.0000
  C   C30       1.0  0.28871182717006877  0.9679653302952504  0.8938167801035846  1.0000
  C   C31       1.0  0.6536630230168897  0.12783030558413344  0.1687522642371277  1.0000
  C   C32       1.0  0.34633652541747056  0.8721705365644613  0.8312476024567204  1.0000
  C   C33       1.0  0.7372461761369069  0.2645333706292662  0.21323593183375067  1.0000
  C   C34       1.0  0.26275776675186086  0.7354704589021638  0.7867631836250337  1.0000
  C   C35       1.0  0.6856365891095137  0.3586190612081241  0.274304949297175  1.0000
  C   C36       1.0  0.3143579118208138  0.6413797930210877  0.725690956129604  1.0000
  C   C37       1.0  0.5474671802793125  0.3148150364434202  0.2911883012639079  1.0000
  C   C38       1.0  0.4525338161608021  0.6851868067474957  0.7088064310578872  1.0000
  C   C39       1.0  0.46406101596577554  0.1799056169947734  0.2503700006838443  1.0000
  C   C40       1.0  0.5359332898188499  0.8200902538840114  0.7496249982447621  1.0000
  C   C41       1.0  0.5159810530346578  0.0823123359339348  0.1905051615023936  1.0000
  C   C42       1.0  0.4840212214840848  0.9176875170768  0.8094908558897272  1.0000
  N   N1        1.0  0.25659482254123844  0.6806959353839589  0.028790823666852827  1.0000
  N   N2        1.0  0.7434047258931215  0.31930490676463563  0.9712090430270021  1.0000
  N   N3        1.0  0.3829525904146538  0.6660047386861836  0.08504708724253617  1.0000
  N   N4        1.0  0.6170473793153022  0.3339970962805694  0.9149547749580761  1.0000
  N   N5        1.0  0.3701120989921592  0.5416555072552215  0.04048942647229135  1.0000
  N   N6        1.0  0.6298893439621196  0.4583473208817852  0.9595146272968123  1.0000
  N   N7        1.0  0.23355126723016184  0.4726014735496875  0.9522943925465908  1.0000
  N   N8        1.0  0.7664499833804898  0.5273983703622136  0.04770956871774248  1.0000
  N   N9        1.0  0.04125682526874641  0.8483985533382138  0.25133544385300144  1.0000
  N   N10       1.0  0.958743554548562  0.15160427794539544  0.7486651578807866  1.0000
  N   N11       1.0  0.17483694257280288  0.8974906547343409  0.23952958643621966  1.0000
  N   N12       1.0  0.8251647097190046  0.10251018811844402  0.7604706723811032  1.0000
  N   N13       1.0  0.2821672738591376  0.954214808918238  0.34737102817771864  1.0000
  N   N14       1.0  0.7178343756306093  0.045786034809218314  0.6526284166462161  1.0000
  N   N15       1.0  0.22055943330680358  0.9430579185780562  0.43121348738792153  1.0000
  N   N16       1.0  0.7794426318744174  0.05694391971690751  0.5687863249559797  1.0000
  N   N17       1.0  0.7957934719804242  0.0435114876182752  0.033938967113911596  1.0000
  N   N18       1.0  0.20420419314226726  0.9564873650432019  0.9660599684782624  1.0000
  N   N19       1.0  0.8313352169217724  0.934303320665734  0.002025029775438676  1.0000
  N   N20       1.0  0.1686624482009194  0.0656955319957433  0.9979739058167353  1.0000
  N   N21       1.0  0.7705023952419199  0.8588369481174428  0.052523194503152154  1.0000
  N   N22       1.0  0.2294977922317543  0.14116289894106165  0.9474773147258658  1.0000
  N   N23       1.0  0.694425710790398  0.915893160727457  0.11645177369368302  1.0000
  N   N24       1.0  0.30557531086829204  0.08410867459139133  0.8835502845686631  1.0000
  O   O1        1.0  0.9824074573956096  0.7167963214991815  0.995769762193923  1.0000
  O   O2        1.0  0.01759084956844963  0.2832015351975344  0.0042306299268091135  1.0000
  O   O3        1.0  0.7426596587037294  0.7610149985005777  0.24305749816473102  1.0000
  O   O4        1.0  0.2573409444614185  0.23898584312543392  0.7569433785842532  1.0000
  O   O5        1.0  0.551442171347219  0.9040930434685351  0.362790700681245  1.0000
  O   O6        1.0  0.44855569172322163  0.09590879166870542  0.6372099554024898  1.0000
  O   O7        1.0  0.44106407734891223  0.9530626684994419  0.15583697084807827  1.0000
  O   O8        1.0  0.558935035779527  0.046937185204363616  0.844156830372043  1.0000
