data_image0
_chemical_formula_structural       ZnH18PtC18N6O2
_chemical_formula_sum              "Zn1 H18 Pt1 C18 N6 O2"
_cell_length_a       8.148847707657733
_cell_length_b       8.209941814404766
_cell_length_c       9.029033246280916
_cell_angle_alpha    105.77654365004047
_cell_angle_beta     115.20993310564828
_cell_angle_gamma    99.50702133628124

_space_group_name_H-M_alt    "P 1"
_space_group_IT_number       1

loop_
  _space_group_symop_operation_xyz
  'x, y, z'

loop_
  _atom_site_type_symbol
  _atom_site_label
  _atom_site_symmetry_multiplicity
  _atom_site_fract_x
  _atom_site_fract_y
  _atom_site_fract_z
  _atom_site_occupancy
  Zn  Zn1       1.0  0.9999985982585287  0.4999997506993026  0.4999977700999521  1.0000
  H   H1        1.0  0.6731284382735298  0.21966822574575667  0.3945116599459765  1.0000
  H   H2        1.0  0.32687075405503657  0.780332325740197  0.6054875756244014  1.0000
  H   H3        1.0  0.7501694847912362  0.1254881390771772  0.6265280950410882  1.0000
  H   H4        1.0  0.24983062407842027  0.8745150796581669  0.37347327176011175  1.0000
  H   H5        1.0  0.8872485307610135  0.0671569407237769  0.5233143111290841  1.0000
  H   H6        1.0  0.11275112347901473  0.9328449480048845  0.4766854385931722  1.0000
  H   H7        1.0  0.38754500520038704  0.5126565027253633  0.548837306213464  1.0000
  H   H8        1.0  0.6124555436489771  0.48734404926209146  0.4511624548517758  1.0000
  H   H9        1.0  0.029333508261771588  0.42013811452704175  0.8362397931765668  1.0000
  H   H10       1.0  0.9706661532600762  0.5798637814376377  0.16375885361863135  1.0000
  H   H11       1.0  0.06455996626462478  0.22151594577130845  0.8667960673461577  1.0000
  H   H12       1.0  0.9354396879753967  0.7784859429573459  0.13320368237610575  1.0000
  H   H13       1.0  0.6704260823737727  0.4236813493858236  0.7073329865089446  1.0000
  H   H14       1.0  0.3295740118459562  0.5763178725949417  0.29266515747735866  1.0000
  H   H15       1.0  0.36519925805177417  0.2001670422041002  0.9346872331674162  1.0000
  H   H16       1.0  0.6347981304081713  0.7998321860096808  0.06530875690209097  1.0000
  H   H17       1.0  0.6576020874910854  0.2610273828120242  0.906207038118751  1.0000
  H   H18       1.0  0.3423975375353691  0.7389704946900223  0.09379169464272501  1.0000
  Pt  Pt1       1.0  1.085395119577272e-06  0.9999955024583543  3.023947520733089e-06  1.0000
  C   C1        1.0  0.2812432265209636  0.0745865686933769  0.15387955139274104  1.0000
  C   C2        1.0  0.7187418584155623  0.9254045963735961  0.8461151899367249  1.0000
  C   C3        1.0  0.014303899415239017  0.8006031840859363  0.8299717332729128  1.0000
  C   C4        1.0  0.9856965910932728  0.19939332773084567  0.17003142253979306  1.0000
  C   C5        1.0  0.8637435433807779  0.1808748042896511  0.6011880623486688  1.0000
  C   C6        1.0  0.13625611085924316  0.8191270844390105  0.3988116873735947  1.0000
  C   C7        1.0  0.38977513051691665  0.44455360266241684  0.637239567751706  1.0000
  C   C8        1.0  0.6102231452705597  0.5554442815741468  0.36275753658784277  1.0000
  C   C9        1.0  0.2244221918963873  0.3283737012895571  0.7607946020107759  1.0000
  C   C10       1.0  0.7755742873905831  0.6716268491934015  0.23920358256987131  1.0000
  C   C11       1.0  0.04704853402969889  0.292820112845817  0.7766638821081242  1.0000
  C   C12       1.0  0.9529524767311203  0.7071817763843455  0.22333639310900094  1.0000
  C   C13       1.0  0.546794865392158  0.3940927466918963  0.725781634793776  1.0000
  C   C14       1.0  0.4532065780665492  0.6059064685543591  0.27421813761444713  1.0000
  C   C15       1.0  0.3757266657473579  0.2704230483222005  0.850990365184529  1.0000
  C   C16       1.0  0.6242734284723711  0.7295761736585716  0.1490077788017671  1.0000
  C   C17       1.0  0.5391736993993704  0.30473400994983985  0.8348440420806468  1.0000
  C   C18       1.0  0.4608250237359143  0.6952651970573952  0.16515578226491087  1.0000
  N   N1        1.0  0.44786406498091225  0.11692283259064598  0.2414424237867223  1.0000
  N   N2        1.0  0.5521550278981094  0.8830803859296948  0.7585674028696584  1.0000
  N   N3        1.0  0.02342344506928369  0.682167381984392  0.7301081818168665  1.0000
  N   N4        1.0  0.9765743760885571  0.3178291722454815  0.26988730544374556  1.0000
  N   N5        1.0  0.23282529712390237  0.4149544177111224  0.6547996906132523  1.0000
  N   N6        1.0  0.7671743571161188  0.5850474710175391  0.345200059109004  1.0000
  O   O1        1.0  0.8030096679675011  0.2908909380086087  0.5032551544797598  1.0000
  O   O2        1.0  0.19698953164288466  0.7091096207133631  0.49674297816356006  1.0000
