data_image0
_chemical_formula_structural       Cu12H48C63N24
_chemical_formula_sum              "Cu12 H48 C63 N24"
_cell_length_a       20.423035750740073
_cell_length_b       20.450521832830063
_cell_length_c       20.601205801811247
_cell_angle_alpha    93.87025731961717
_cell_angle_beta     89.88633894166996
_cell_angle_gamma    89.83664444255285

_space_group_name_H-M_alt    "P 1"
_space_group_IT_number       1

loop_
  _space_group_symop_operation_xyz
  'x, y, z'

loop_
  _atom_site_type_symbol
  _atom_site_label
  _atom_site_symmetry_multiplicity
  _atom_site_fract_x
  _atom_site_fract_y
  _atom_site_fract_z
  _atom_site_occupancy
  Cu  Cu1       1.0  0.7726760206335398  0.7561812897871575  0.8669546570708635  1.0000
  Cu  Cu2       1.0  0.8755593694092667  0.7749633688963866  0.7538249711863614  1.0000
  Cu  Cu3       1.0  0.7492300867682858  0.8683425581382094  0.7726499130191514  1.0000
  Cu  Cu4       1.0  0.7778365036949851  0.2504191183338165  0.1350970341874032  1.0000
  Cu  Cu5       1.0  0.8847294101794887  0.2520366428349163  0.24523990237752002  1.0000
  Cu  Cu6       1.0  0.7732170155380018  0.1417318024034273  0.23794026213708014  1.0000
  Cu  Cu7       1.0  0.2366304469615272  0.7758689549386019  0.11772852303325718  1.0000
  Cu  Cu8       1.0  0.12066859619475419  0.7563639118694282  0.21772575483799986  1.0000
  Cu  Cu9       1.0  0.20890074927858385  0.8834688319003942  0.2334827225817548  1.0000
  Cu  Cu10      1.0  0.24805457111581572  0.21909676035378572  0.8760088474885421  1.0000
  Cu  Cu11      1.0  0.1301902449856129  0.21414534174667202  0.7732487170688316  1.0000
  Cu  Cu12      1.0  0.24029721952314279  0.10442581671955511  0.7658303011861066  1.0000
  H   H1        1.0  0.8309353061308543  0.6337037072982808  0.9291427570182195  1.0000
  H   H2        1.0  0.9791962743094872  0.6615935379494856  0.782962251387346  1.0000
  H   H3        1.0  0.6306115232168351  0.9448686020837795  0.8441298374496072  1.0000
  H   H4        1.0  0.6596893982241739  0.7872289039174163  0.9715018470459  1.0000
  H   H5        1.0  0.9439755513726382  0.8387974011335256  0.6361256729119447  1.0000
  H   H6        1.0  0.7659194540486851  0.9544772523658693  0.6514840654469297  1.0000
  H   H7        1.0  0.8342588383634109  0.35685255013292755  0.0461272657987664  1.0000
  H   H8        1.0  0.9816309000545119  0.3618618577911688  0.1974173155943646  1.0000
  H   H9        1.0  0.6513926599604716  0.05742065110823088  0.18366846152775912  1.0000
  H   H10       1.0  0.6503117038075176  0.21504613554004232  0.053387681172353  1.0000
  H   H11       1.0  0.9591721305517639  0.21589449055237958  0.3723187256793423  1.0000
  H   H12       1.0  0.8184167409706901  0.0577019703733868  0.3537916738166942  1.0000
  H   H13       1.0  0.20591723232318057  0.6587433935580973  0.011356566952741794  1.0000
  H   H14       1.0  0.051617888010866905  0.6322386874525491  0.151675221914779  1.0000
  H   H15       1.0  0.3267109495426083  0.9818391895855568  0.21305223770267653  1.0000
  H   H16       1.0  0.3654208731338429  0.8330166255372049  0.05792027282846851  1.0000
  H   H17       1.0  0.026292928235982095  0.7805940511073785  0.34074639900226344  1.0000
  H   H18       1.0  0.13578920045185328  0.9621188681080068  0.34981083178412586  1.0000
  H   H19       1.0  0.2138828401442296  0.35139942072008507  0.9581401031375947  1.0000
  H   H20       1.0  0.04907545474896579  0.338560012970106  0.8259037603712044  1.0000
  H   H21       1.0  0.3569541485154275  0.013593695437734296  0.806920798618151  1.0000
  H   H22       1.0  0.3660414000917669  0.16843572747142588  0.9609093932936261  1.0000
  H   H23       1.0  0.0377310450220563  0.16057660441246205  0.6568245253015164  1.0000
  H   H24       1.0  0.19653007200668782  0.019477137752673495  0.6394166730836304  1.0000
  H   H25       1.0  0.003968483068391001  0.5557510960424921  0.8629757930942858  1.0000
  H   H26       1.0  0.9083399060767904  0.5643216628469857  0.9790311798887998  1.0000
  H   H27       1.0  0.0055617455027175  0.447276365528964  0.10123913903035493  1.0000
  H   H28       1.0  0.9082702402377477  0.43114569632087535  0.9872273788022597  1.0000
  H   H29       1.0  0.11646818946042001  0.558612557180126  0.974088547608453  1.0000
  H   H30       1.0  0.0048061685415846  0.5552868080423679  0.07416951770601092  1.0000
  H   H31       1.0  0.11670257552527373  0.442056750190062  0.9887584243804072  1.0000
  H   H32       1.0  0.0039623543245  0.43680995280268325  0.8897214766772804  1.0000
  H   H33       1.0  0.5531349743678219  0.8726754056225656  0.006267261541047703  1.0000
  H   H34       1.0  0.5716994293307281  0.0007351068239884996  0.9378037336960788  1.0000
  H   H35       1.0  0.45628183889178325  0.9976489380900375  0.8954522548285198  1.0000
  H   H36       1.0  0.4363243625495414  0.08563801099131037  0.0213101188260083  1.0000
  H   H37       1.0  0.5527626904580814  0.12491852001141268  0.0283319609245112  1.0000
  H   H38       1.0  0.5688793008327337  0.0012278752482401995  0.1044101469807472  1.0000
  H   H39       1.0  0.44109836479900366  0.003184266201444099  0.1399364882033254  1.0000
  H   H40       1.0  0.43815770908545904  0.914817833217192  0.012847021977663084  1.0000
  H   H41       1.0  0.8516385158487693  0.9898164369023018  0.553450865392648  1.0000
  H   H42       1.0  0.9820640692167756  0.9141387776397423  0.5586868514637118  1.0000
  H   H43       1.0  0.9868758390359104  0.8722829348733682  0.44120541751053105  1.0000
  H   H44       1.0  0.05824053520515091  0.0038563615633223  0.4311819446815264  1.0000
  H   H45       1.0  0.10277252098527613  0.0007429057115259999  0.5442433232076098  1.0000
  H   H46       1.0  0.9774004140784741  0.08123434858358537  0.574950009469994  1.0000
  H   H47       1.0  0.9758593472500153  0.12402155315231063  0.46197604120055047  1.0000
  H   H48       1.0  0.8916638012554473  0.0005469423727432999  0.4339338437102215  1.0000
  C   C1        1.0  0.8615259135297036  0.6492314672414067  0.8899271284967298  1.0000
  C   C2        1.0  0.9218772162719657  0.6240917166289889  0.8664547967417703  1.0000
  C   C3        1.0  0.9368140589085812  0.6632833639546617  0.8149445932917632  1.0000
  C   C4        1.0  0.6462473693273835  0.9022640515571111  0.8687760848612528  1.0000
  C   C5        1.0  0.6224973762218936  0.8777377374621267  0.9265033735854757  1.0000
  C   C6        1.0  0.6605919054853403  0.8213335612900038  0.9333395083864532  1.0000
  C   C7        1.0  0.8969692773486458  0.8612865001115392  0.6483834712105221  1.0000
  C   C8        1.0  0.8639906483844514  0.9125238493168195  0.6196993516515548  1.0000
  C   C9        1.0  0.8059200453666121  0.9200117823063894  0.6561193044829778  1.0000
  C   C10       1.0  0.8646579409367519  0.35050016535274137  0.0884118732884644  1.0000
  C   C11       1.0  0.9240317499439358  0.3808453584732447  0.10726068284431281  1.0000
  C   C12       1.0  0.9395568073082644  0.3530844562934162  0.1659037069432117  1.0000
  C   C13       1.0  0.6601256418588904  0.10056204589610468  0.157012541871147  1.0000
  C   C14       1.0  0.6260177571486452  0.12374649881606807  0.1038238400781992  1.0000
  C   C15       1.0  0.6594188629212355  0.18143436710523278  0.0909917565701619  1.0000
  C   C16       1.0  0.9195730469337634  0.18224003958213328  0.3592385924143997  1.0000
  C   C17       1.0  0.9017689334712032  0.12414069971194404  0.38735019146022864  1.0000
  C   C18       1.0  0.8481938046190721  0.10109866080532019  0.34961074836384404  1.0000
  C   C19       1.0  0.17262481969348903  0.6605696993364419  0.05259668200357481  1.0000
  C   C20       1.0  0.11763510185573268  0.6215219473369727  0.0633103780775528  1.0000
  C   C21       1.0  0.09370733940842511  0.6469992619081636  0.12397582969961012  1.0000
  C   C22       1.0  0.3272093276657486  0.939419348512679  0.1783796196831702  1.0000
  C   C23       1.0  0.3710814233176833  0.923412577594817  0.1271203102063865  1.0000
  C   C24       1.0  0.34673018040353304  0.8638299941923576  0.0988169947175024  1.0000
  C   C25       1.0  0.059721051254001616  0.8208857217191576  0.3344339827788971  1.0000
  C   C26       1.0  0.0638651347342929  0.881989861612553  0.3696481789633097  1.0000
  C   C27       1.0  0.11527031664151371  0.9137406673450456  0.3389341323095039  1.0000
  C   C28       1.0  0.17839738341910316  0.3391525655774145  0.920072190180271  1.0000
  C   C29       1.0  0.11934477437044681  0.3708876663081567  0.9064374332780291  1.0000
  C   C30       1.0  0.09419324265259381  0.33281650210245317  0.8527373007331108  1.0000
  C   C31       1.0  0.3510161816705376  0.05726242649757298  0.8394151607460573  1.0000
  C   C32       1.0  0.3849264142340019  0.076017068245676  0.8968971873308506  1.0000
  C   C33       1.0  0.3553166371751074  0.1358354744619703  0.918508374122432  1.0000
  C   C34       1.0  0.0815449354297897  0.13111078994489128  0.6615462035419314  1.0000
  C   C35       1.0  0.10332166437723345  0.07543462872152419  0.6235676038800904  1.0000
  C   C36       1.0  0.1630010305239153  0.05955577248480638  0.6524573571097463  1.0000
  C   C37       1.0  0.9766544650345282  0.999025783649529  0.4998131025423191  1.0000
  C   C38       1.0  0.9932540989123098  0.49768041825348047  0.9813438924037854  1.0000
  C   C39       1.0  0.5031330602962997  0.0003948279806777999  0.0197309602656404  1.0000
  C   C40       1.0  0.9610788243686628  0.5722217616735958  0.8916711122354003  1.0000
  C   C41       1.0  0.949649027702492  0.5462558605209294  0.9489023612616379  1.0000
  C   C42       1.0  0.9621883701918676  0.4286866216582508  0.0748893968251849  1.0000
  C   C43       1.0  0.9499920294385265  0.4502191257075622  0.015825666612812497  1.0000
  C   C44       1.0  0.08976269462258561  0.5705890131011414  0.019408863914002  1.0000
  C   C45       1.0  0.03209733535054939  0.5412775304103477  0.029601403333167305  1.0000
  C   C46       1.0  0.09013099610830008  0.4256095624816324  0.9446124162561986  1.0000
  C   C47       1.0  0.031790695559365596  0.45330482863830923  0.9331333200348554  1.0000
  C   C48       1.0  0.572252196225051  0.9050340068228662  0.970499565414073  1.0000
  C   C49       1.0  0.5503467518669253  0.9671842024758136  0.9711317366690082  1.0000
  C   C50       1.0  0.43606218671213537  0.03862647410318939  0.9262205646103611  1.0000
  C   C51       1.0  0.4575876768098156  0.04746595498747298  0.9878736189826469  1.0000
  C   C52       1.0  0.5724851796223264  0.09482855181034468  0.0657944024772519  1.0000
  C   C53       1.0  0.5488074528708466  0.0338094407156646  0.0693915119200881  1.0000
  C   C54       1.0  0.42576437909723114  0.9622332528600666  0.10643860379045833  1.0000
  C   C55       1.0  0.45524675133897574  0.953494943489616  0.047989910935243116  1.0000
  C   C56       1.0  0.8860880639843033  0.9526165465694942  0.5684809537860219  1.0000
  C   C57       1.0  0.9465672649443633  0.9496485499329237  0.542348810821494  1.0000
  C   C58       1.0  0.022644969108277704  0.9066007769336006  0.4233580725197328  1.0000
  C   C59       1.0  0.024269317901982394  0.9684676696544302  0.4500611970190107  1.0000
  C   C60       1.0  0.072495851867437  0.03896156582918308  0.5692403197599418  1.0000
  C   C61       1.0  0.010168157885516399  0.045578832077886496  0.5496146650233982  1.0000
  C   C62       1.0  0.936542058128957  0.09436786982666227  0.439104064842148  1.0000
  C   C63       1.0  0.9285139067702275  0.0328782858008339  0.4573145106808028  1.0000
  N   N1        1.0  0.8892713302785537  0.7085184820835622  0.8087437298712814  1.0000
  N   N2        1.0  0.8425508526384322  0.699489773785963  0.8553512435337255  1.0000
  N   N3        1.0  0.7039722715903097  0.8133711944173995  0.8838880932801345  1.0000
  N   N4        1.0  0.6947967854396638  0.8635285433610133  0.8437160633392509  1.0000
  N   N5        1.0  0.8046958858866872  0.876982568292561  0.7030309131154411  1.0000
  N   N6        1.0  0.8612514657224608  0.840365069957485  0.6979191346130378  1.0000
  N   N7        1.0  0.8931837048235282  0.30954960177033536  0.1806194798621874  1.0000
  N   N8        1.0  0.8466876805289161  0.308158553707102  0.13245004468961244  1.0000
  N   N9        1.0  0.7097203308534503  0.1914562507206128  0.1327530866241773  1.0000
  N   N10       1.0  0.7099284115145464  0.14131823809429986  0.1739726388456475  1.0000
  N   N11       1.0  0.8355983462343702  0.14228494972586958  0.3027403932948687  1.0000
  N   N12       1.0  0.8801602914993796  0.19260645986608438  0.3084492065328774  1.0000
  N   N13       1.0  0.13134838350342187  0.6972541402033413  0.1470160510977223  1.0000
  N   N14       1.0  0.18043735209889178  0.7059555296410449  0.1027224475543207  1.0000
  N   N15       1.0  0.2925812086760118  0.8462228424146262  0.13069839163286906  1.0000
  N   N16       1.0  0.2801837049839477  0.8932619941560205  0.18002593295724983  1.0000
  N   N17       1.0  0.13950875867679716  0.8744435351913818  0.2895121801952314  1.0000
  N   N18       1.0  0.10494026466088259  0.8167784712693232  0.2864286395213114  1.0000
  N   N19       1.0  0.1350637941220896  0.28253301791564667  0.8362248033899392  1.0000
  N   N20       1.0  0.18745042428992778  0.28628280239807674  0.8781551832328987  1.0000
  N   N21       1.0  0.3075290050331532  0.15103666625923748  0.8769740574466667  1.0000
  N   N22       1.0  0.30465670320066357  0.10211193901262311  0.8279959804984571  1.0000
  N   N23       1.0  0.17552438559177122  0.10208536361162147  0.7037792360514388  1.0000
  N   N24       1.0  0.1250721411207181  0.14673243038966177  0.7091957035339433  1.0000
