data_image0
_chemical_formula_structural       Cd2H32C40N4O12
_chemical_formula_sum              "Cd2 H32 C40 N4 O12"
_cell_length_a       10.433585234359116
_cell_length_b       9.593681502177553
_cell_length_c       11.508837186352116
_cell_angle_alpha    105.15073152078782
_cell_angle_beta     108.55180465296151
_cell_angle_gamma    97.26333569973986

_space_group_name_H-M_alt    "P 1"
_space_group_IT_number       1

loop_
  _space_group_symop_operation_xyz
  'x, y, z'

loop_
  _atom_site_type_symbol
  _atom_site_label
  _atom_site_symmetry_multiplicity
  _atom_site_fract_x
  _atom_site_fract_y
  _atom_site_fract_z
  _atom_site_occupancy
  Cd  Cd1       1.0  0.36383639310567883  0.5200635968346178  0.2330775377471924  1.0000
  Cd  Cd2       1.0  0.6361823654444194  0.479952487103269  0.7669406804544537  1.0000
  H   H1        1.0  0.9087615650345384  0.7945309396271371  0.7783128844069723  1.0000
  H   H2        1.0  0.09124480584993931  0.20547508042089652  0.2216946286648707  1.0000
  H   H3        1.0  0.028564141882057508  0.0030301947627009006  0.28638262278359156  1.0000
  H   H4        1.0  0.9714590689275511  0.9969715711918141  0.7136357154818994  1.0000
  H   H5        1.0  0.5984455871267969  0.12138736922008066  0.23880309806492764  1.0000
  H   H6        1.0  0.4015536907224373  0.8786283362548136  0.7612068603627264  1.0000
  H   H7        1.0  0.34288563897596447  0.11686608632366101  0.8629352072080749  1.0000
  H   H8        1.0  0.6570958017836334  0.8831112583613034  0.1370722368910293  1.0000
  H   H9        1.0  0.9263598710640508  0.3451542370418609  0.2693173131951596  1.0000
  H   H10       1.0  0.07362608891329361  0.6548007268087518  0.7306664973873183  1.0000
  H   H11       1.0  0.24613475016987252  0.641289525034992  0.6193854742526526  1.0000
  H   H12       1.0  0.753859139799637  0.3586713103286885  0.3805973507281878  1.0000
  H   H13       1.0  0.6555344405004959  0.5353547823072589  0.21985671733705905  1.0000
  H   H14       1.0  0.34447958708731363  0.46466405586219395  0.7801418964971562  1.0000
  H   H15       1.0  0.8879558382262758  0.7090686795306028  0.29273297761083944  1.0000
  H   H16       1.0  0.11204473694931488  0.29096231307300263  0.7072549791891305  1.0000
  H   H17       1.0  0.7141464858608018  0.06148759892664661  0.45483838705255414  1.0000
  H   H18       1.0  0.2858719671135077  0.9385373024058198  0.5451819512440963  1.0000
  H   H19       1.0  0.4876435066585573  0.8751824522824451  0.3714670564198884  1.0000
  H   H20       1.0  0.5123699983702538  0.12483607599218523  0.6285714001397126  1.0000
  H   H21       1.0  0.9493199287453818  0.11652786725024103  0.4394082223831858  1.0000
  H   H22       1.0  0.050703048860611805  0.883493163608037  0.5606000530644408  1.0000
  H   H23       1.0  0.3599056625697372  0.715762635421207  0.05025528679386327  1.0000
  H   H24       1.0  0.640093965575865  0.28422571315934414  0.9497418562281864  1.0000
  H   H25       1.0  0.22089119511034738  0.8755825055420063  0.9495142251213551  1.0000
  H   H26       1.0  0.7791178838866986  0.12440280665242653  0.05048356407127842  1.0000
  H   H27       1.0  0.9033047562798303  0.7281524136652922  0.08430276055412393  1.0000
  H   H28       1.0  0.09670454123619979  0.2718568388555695  0.9157106130462652  1.0000
  H   H29       1.0  0.056481225397490696  0.5742747155614084  0.18143487894061394  1.0000
  H   H30       1.0  0.9435349926459085  0.4257366775407689  0.8185876553946656  1.0000
  H   H31       1.0  0.8623606969356248  0.8892297036325304  0.9606657454093012  1.0000
  H   H32       1.0  0.13765572879886892  0.1107686090757483  0.039349231998528494  1.0000
  C   C1        1.0  0.4335354384724539  0.2738739067542753  0.1152646821248382  1.0000
  C   C2        1.0  0.5664396078602962  0.7261293765618789  0.8847267843127682  1.0000
  C   C3        1.0  0.46819338693415363  0.13243191715358907  0.05591607062007143  1.0000
  C   C4        1.0  0.5317767581794257  0.8675594098856223  0.9440625375305133  1.0000
  C   C5        1.0  0.5565914549907094  0.0673677766780543  0.13441109685480515  1.0000
  C   C6        1.0  0.44339070951121334  0.9326369142605417  0.8655789488513933  1.0000
  C   C7        1.0  0.41169401331224253  0.06429259862555631  0.9214079646321168  1.0000
  C   C8        1.0  0.588284911050721  0.9356812729149627  0.07856928219958095  1.0000
  C   C9        1.0  0.1966584014005761  0.49273673844179916  0.3713169025342111  1.0000
  C   C10       1.0  0.8033333039058805  0.5072327747901683  0.6286701677340717  1.0000
  C   C11       1.0  0.09567911176822719  0.49359145789469494  0.4384371902049224  1.0000
  C   C12       1.0  0.9042866078255118  0.5063715907433278  0.5615185195914166  1.0000
  C   C13       1.0  0.9578394702835951  0.41216237179935433  0.37054979056105  1.0000
  C   C14       1.0  0.04213481371542118  0.5878092655693976  0.6294231731992355  1.0000
  C   C15       1.0  0.13774982213140416  0.5814167633466525  0.5681922425942503  1.0000
  C   C16       1.0  0.862225426478503  0.4185549292154463  0.43178009624831765  1.0000
  C   C17       1.0  0.6728441851993808  0.6531512406622184  0.2704130049865725  1.0000
  C   C18       1.0  0.3271703987701429  0.34688084965285537  0.7295890394294062  1.0000
  C   C19       1.0  0.8011765615906443  0.7491642664490996  0.3116083147946754  1.0000
  C   C20       1.0  0.19883556919565845  0.2508748057855854  0.688382689035805  1.0000
  C   C21       1.0  0.8187952219847078  0.8986145502499742  0.37883392506356733  1.0000
  C   C22       1.0  0.18121040468027874  0.1014060959736227  0.6211683422025729  1.0000
  C   C23       1.0  0.7050049213146964  0.9460337147518701  0.4019248795672965  1.0000
  C   C24       1.0  0.29501103072620793  0.05399387636129661  0.5980798566684059  1.0000
  C   C25       1.0  0.5793986231963046  0.8430589329024446  0.356598261969623  1.0000
  C   C26       1.0  0.4206190329063162  0.15696272978551923  0.6434184673909868  1.0000
  C   C27       1.0  0.9604592866576172  0.0015786153863074999  0.430303475108012  1.0000
  C   C28       1.0  0.03954965412425078  0.9984296083107084  0.5696756052049565  1.0000
  C   C29       1.0  0.2585412580180275  0.7222023304528022  0.056408687922996116  1.0000
  C   C30       1.0  0.7414627400989461  0.27779581530836595  0.943598907428715  1.0000
  C   C31       1.0  0.18119888150658878  0.8117324308257212  0.0013078131524082153  1.0000
  C   C32       1.0  0.8188157249458571  0.18827064334080756  0.9986965942227998  1.0000
  C   C33       1.0  0.05269710291478447  0.8184223076945258  0.013706749504848367  1.0000
  C   C34       1.0  0.947313532258093  0.18157505745314506  0.9862978945150759  1.0000
  C   C35       1.0  0.005438011795668249  0.7305226440262942  0.07766975218360266  1.0000
  C   C36       1.0  0.9945732273757747  0.26947005016774744  0.9223417100017316  1.0000
  C   C37       1.0  0.0894980384335682  0.6442791773313701  0.13056496452084335  1.0000
  C   C38       1.0  0.9105061452701835  0.3557176266252925  0.8694493060650857  1.0000
  C   C39       1.0  0.967350491670125  0.917874954001931  0.9585633326830489  1.0000
  C   C40       1.0  0.0326577158320447  0.08212320855548681  0.041447890496684216  1.0000
  N   N1        1.0  0.5634186328181414  0.6989190859511468  0.2923273877921845  1.0000
  N   N2        1.0  0.4365802290036385  0.30109562739435364  0.7076787415858236  1.0000
  N   N3        1.0  0.2144121021889305  0.64082086613341  0.1214251114700318  1.0000
  N   N4        1.0  0.7855868174323106  0.3591857919159906  0.8785886039222817  1.0000
  O   O1        1.0  0.3447217267809535  0.325007866273353  0.042733306120190676  1.0000
  O   O2        1.0  0.6552544870851092  0.6749910343992696  0.9572573507091846  1.0000
  O   O3        1.0  0.49441843171095473  0.3382160863424063  0.23716950961181743  1.0000
  O   O4        1.0  0.5055720762929212  0.661777574278986  0.7628258917690474  1.0000
  O   O5        1.0  0.2973653289221972  0.6045647470656947  0.41197973883713973  1.0000
  O   O6        1.0  0.7026216512144928  0.39540875319883645  0.588015892852205  1.0000
  O   O7        1.0  0.1752761489829595  0.3822800727723319  0.2702788086458128  1.0000
  O   O8        1.0  0.8247203042428455  0.6177008677548629  0.7297044109442795  1.0000
  O   O9        1.0  0.9591982260503188  0.900576666816015  0.8288895194636225  1.0000
  O   O10       1.0  0.0407995982764646  0.09942260614793949  0.1711116487322499  1.0000
  O   O11       1.0  0.04124022432070255  0.9565259153826702  0.35515137380942724  1.0000
  O   O12       1.0  0.9587613486432505  0.04349092174789601  0.6448602884754422  1.0000
