data_image0
_chemical_formula_structural       Hg4H44C24S4I4
_chemical_formula_sum              "Hg4 H44 C24 S4 I4"
_cell_length_a       4.779358455009685
_cell_length_b       7.216244125017403
_cell_length_c       26.35197463111264
_cell_angle_alpha    90.00024896350016
_cell_angle_beta     90.00022838324105
_cell_angle_gamma    89.9999839482527

_space_group_name_H-M_alt    "P 1"
_space_group_IT_number       1

loop_
  _space_group_symop_operation_xyz
  'x, y, z'

loop_
  _atom_site_type_symbol
  _atom_site_label
  _atom_site_symmetry_multiplicity
  _atom_site_fract_x
  _atom_site_fract_y
  _atom_site_fract_z
  _atom_site_occupancy
  Hg  Hg1       1.0  0.26748905319818317  8.061276368199997e-06  0.5000005787492299  1.0000
  Hg  Hg2       1.0  0.7674841101537311  0.5000005700397239  0.9999988859855334  1.0000
  Hg  Hg3       1.0  0.4990848929795392  0.5000063664967485  0.5000005837824517  1.0000
  Hg  Hg4       1.0  0.9990922515978725  0.9999998999002028  0.9999999843005511  1.0000
  H   H1        1.0  0.6206733632825846  0.20583034969428124  0.3966169275037074  1.0000
  H   H2        1.0  0.6206713196778041  0.7941795874141845  0.6033847080799645  1.0000
  H   H3        1.0  0.12066399239409979  0.29416975670007145  0.896613485049265  1.0000
  H   H4        1.0  0.12067618260521579  0.7058236514235714  0.10338475058787817  1.0000
  H   H5        1.0  0.1444163885732124  0.42698799001083626  0.3468786786967754  1.0000
  H   H6        1.0  0.14442179316213102  0.5730164994684444  0.6531214716325024  1.0000
  H   H7        1.0  0.64440742703664  0.07300994383476217  0.8468768527094142  1.0000
  H   H8        1.0  0.6444248009683662  0.9269847451143814  0.1531229027647427  1.0000
  H   H9        1.0  0.4566070782838593  0.5213793627675258  0.37181777711494135  1.0000
  H   H10       1.0  0.456611975493729  0.47862229261964706  0.6281810826427261  1.0000
  H   H11       1.0  0.9566000512232337  0.9786183290124554  0.8718156792042391  1.0000
  H   H12       1.0  0.9566151411542237  0.021377683131646594  0.1281827857015685  1.0000
  H   H13       1.0  0.740885149342951  0.3563442238173237  0.30754366076920536  1.0000
  H   H14       1.0  0.7408871999647104  0.6436573746226769  0.6924573033950097  1.0000
  H   H15       1.0  0.24087374471432102  0.14365445798831894  0.8075415554972095  1.0000
  H   H16       1.0  0.24089200432004534  0.8563403118190036  0.19245790611655875  1.0000
  H   H17       1.0  0.482308250531517  0.4919907555762534  0.27759408977754413  1.0000
  H   H18       1.0  0.48231309969002467  0.5080150519662253  0.7224070655678929  1.0000
  H   H19       1.0  0.9822993142911332  0.0080087927152661  0.7775921857394221  1.0000
  H   H20       1.0  0.9823181745192144  0.9919844427630475  0.222407436315386  1.0000
  H   H21       1.0  0.5168041480460986  0.1735269950159121  0.23852852744902006  1.0000
  H   H22       1.0  0.5168118178943005  0.8264746483238734  0.7614722735373005  1.0000
  H   H23       1.0  0.0167926722688279  0.32646787503080776  0.7385262622133693  1.0000
  H   H24       1.0  0.016816693395206504  0.6735213966235987  0.2614726567409704  1.0000
  H   H25       1.0  0.18328267061969683  0.2175418180042285  0.2643815235056621  1.0000
  H   H26       1.0  0.18328979354728864  0.7824612779216193  0.7356182756483561  1.0000
  H   H27       1.0  0.6832757199059573  0.28245619670337146  0.764379949010511  1.0000
  H   H28       1.0  0.6832928828614372  0.7175384844545504  0.2356194552899779  1.0000
  H   H29       1.0  0.3379353717060596  0.9024176691235863  0.289919735679021  1.0000
  H   H30       1.0  0.3379442963549479  0.09758678159379738  0.7100824529666737  1.0000
  H   H31       1.0  0.8379284929307218  0.5975787587381871  0.7899171802377934  1.0000
  H   H32       1.0  0.8379431290321905  0.4024131198975453  0.2100811982465203  1.0000
  H   H33       1.0  0.6512454641909288  0.9920766664916907  0.31529447264156835  1.0000
  H   H34       1.0  0.6512475931169064  0.007927721431784098  0.6847060467688519  1.0000
  H   H35       1.0  0.1512382970508241  0.5079188119925602  0.8152925838673537  1.0000
  H   H36       1.0  0.1512460676413454  0.4920732042397658  0.18470529455391466  1.0000
  H   H37       1.0  0.30774196067996945  0.9329536852951107  0.3837920252528946  1.0000
  H   H38       1.0  0.30774257218791945  0.06705631451986697  0.6162097619274929  1.0000
  H   H39       1.0  0.8077330014559224  0.5670483818710039  0.8837894331483298  1.0000
  H   H40       1.0  0.807739300652351  0.43294627433787963  0.11620854386749362  1.0000
  H   H41       1.0  0.05694453839372931  0.07548663890371898  0.3535223402081512  1.0000
  H   H42       1.0  0.05694547659841481  0.9245247969302992  0.6464796438160575  1.0000
  H   H43       1.0  0.5569354400576075  0.42451557421345837  0.8535201773303668  1.0000
  H   H44       1.0  0.5569423441785234  0.575483289542319  0.14647837600914218  1.0000
  C   C1        1.0  0.3994280718743042  0.2271613323941039  0.3863690508586899  1.0000
  C   C2        1.0  0.3994304448113156  0.7728458775211988  0.6136324236099995  1.0000
  C   C3        1.0  0.8994211248954614  0.272838557022645  0.8863667058576751  1.0000
  C   C4        1.0  0.8994314380313783  0.7271560808167689  0.113631717406804  1.0000
  C   C5        1.0  0.36897379365773736  0.39913696042832914  0.3527617943330056  1.0000
  C   C6        1.0  0.36896859741759164  0.6008702555930012  0.647240037433761  1.0000
  C   C7        1.0  0.868960636611753  0.10086379244079066  0.8527592428313823  1.0000
  C   C8        1.0  0.8689737083864487  0.8991294657513859  0.1472406761641878  1.0000
  C   C9        1.0  0.5132101723315899  0.3688132895158771  0.3015060871339799  1.0000
  C   C10       1.0  0.5132186365108424  0.6311925118253039  0.6984939522815168  1.0000
  C   C11       1.0  0.013196680220808298  0.13118257145421097  0.8015035874091581  1.0000
  C   C12       1.0  0.0132213436917539  0.8688094724455411  0.1984953289284093  1.0000
  C   C13       1.0  0.4047079015759182  0.1956024848304451  0.2745341508218003  1.0000
  C   C14       1.0  0.4047022404797219  0.8043991809660578  0.7254658095726895  1.0000
  C   C15       1.0  0.9046904806610812  0.3043942593717048  0.7745318437092124  1.0000
  C   C16       1.0  0.90470324598396  0.6955989916402243  0.22546544495796172  1.0000
  C   C17       1.0  0.4288475292097331  0.024818616505413598  0.3085721135250949  1.0000
  C   C18       1.0  0.4288515207044484  0.9751872017493707  0.6914290028889453  1.0000
  C   C19       1.0  0.9288425958181037  0.47518142956840825  0.8085700114868998  1.0000
  C   C20       1.0  0.9288484080057202  0.5248145881355553  0.19142805372383256  1.0000
  C   C21       1.0  0.2832678715345693  0.05580329453743358  0.3596122770121042  1.0000
  C   C22       1.0  0.28325820756607106  0.9442011671388211  0.6403902512951376  1.0000
  C   C23       1.0  0.7832524885417699  0.4441961974546728  0.859609758286872  1.0000
  C   C24       1.0  0.783261359797642  0.5558012351900742  0.14038895986079317  1.0000
  S   S1        1.0  0.2035195686246212  0.2683993344089045  0.445386592976952  1.0000
  S   S2        1.0  0.20352067000517593  0.7316106862806888  0.5546139798723287  1.0000
  S   S3        1.0  0.7035168223760098  0.2316042937441409  0.9453860958544025  1.0000
  S   S4        1.0  0.7035258318395564  0.7683945406460706  0.0546133231855563  1.0000
  I   I1        1.0  0.7898449279073675  0.7498449429308135  0.4360075327464371  1.0000
  I   I2        1.0  0.7898485136070122  0.2501580314551574  0.5639927081161886  1.0000
  I   I3        1.0  0.28983975883892305  0.7501537915392544  0.936006693789821  1.0000
  I   I4        1.0  0.2898387130984688  0.24984373999222945  0.0639939419111499  1.0000
