data_image0
_chemical_formula_structural       Zn4H64C108N4O16
_chemical_formula_sum              "Zn4 H64 C108 N4 O16"
_cell_length_a       15.443772802458907
_cell_length_b       15.443461505809577
_cell_length_c       17.685539961339085
_cell_angle_alpha    115.87625776645804
_cell_angle_beta     115.87670921202795
_cell_angle_gamma    90.0156318332438

_space_group_name_H-M_alt    "P 1"
_space_group_IT_number       1

loop_
  _space_group_symop_operation_xyz
  'x, y, z'

loop_
  _atom_site_type_symbol
  _atom_site_label
  _atom_site_symmetry_multiplicity
  _atom_site_fract_x
  _atom_site_fract_y
  _atom_site_fract_z
  _atom_site_occupancy
  Zn  Zn1       1.0  0.05010615129724979  0.0501286896482114  0.1002246554174562  1.0000
  Zn  Zn2       1.0  0.4501010602976122  0.4500480410500741  0.9001371527221451  1.0000
  Zn  Zn3       1.0  0.9499932055546622  0.9500099848827186  0.9000051000740967  1.0000
  Zn  Zn4       1.0  0.5498795217806887  0.5498831138035454  0.09978788790320443  1.0000
  H   H1        1.0  0.16615316060980936  0.28447829632391836  0.1775241351317902  1.0000
  H   H2        1.0  0.2534704512478356  0.4515342523653486  0.31859638875394575  1.0000
  H   H3        1.0  0.06096721214518654  0.2432085156745245  0.25215496567903983  1.0000
  H   H4        1.0  0.15059356006146624  0.3399692527102046  0.4327454533291331  1.0000
  H   H5        1.0  0.011242054966949354  0.8931042571006456  0.17771187036334615  1.0000
  H   H6        1.0  0.06497907960090994  0.8669575923908821  0.3186978328692547  1.0000
  H   H7        1.0  0.19116708202827942  0.00897511558502369  0.25212952345346207  1.0000
  H   H8        1.0  0.28201263485055966  0.09273211869890466  0.43271222119783914  1.0000
  H   H9        1.0  0.3019319007564364  0.030384389564183305  0.12696389285389395  1.0000
  H   H10       1.0  0.4835876884289975  0.09821668838102944  0.22595922543954586  1.0000
  H   H11       1.0  0.8252962506832306  0.09681009708812377  0.12721805483781887  1.0000
  H   H12       1.0  0.7429332275648407  0.12817743401220844  0.2264888758069149  1.0000
  H   H13       1.0  0.48757470689908194  0.21504754745937749  0.8237749629356231  1.0000
  H   H14       1.0  0.43404113163581576  0.04911865338575437  0.6819727455344591  1.0000
  H   H15       1.0  0.3359096436777235  0.6084720718667356  0.8236415634481631  1.0000
  H   H16       1.0  0.24747130719316587  0.6324160972342838  0.6817411274630345  1.0000
  H   H17       1.0  0.6754164633291565  0.46953393431121515  0.8727945926331273  1.0000
  H   H18       1.0  0.7584112196903873  0.40195129522582124  0.7737486587296446  1.0000
  H   H19       1.0  0.5002771443506262  0.3285610679195941  0.7482130790120963  1.0000
  H   H20       1.0  0.41572479113434474  0.23655440935054628  0.5678012207859382  1.0000
  H   H21       1.0  0.1975079845183245  0.4034718144002695  0.8729751804943292  1.0000
  H   H22       1.0  0.015476719323125034  0.371986560026059  0.7737810918530387  1.0000
  H   H23       1.0  0.2481664883204927  0.4195348622589917  0.7483617486102574  1.0000
  H   H24       1.0  0.1521639591653638  0.33127607686274985  0.5679985491240487  1.0000
  H   H25       1.0  0.9041499278359454  0.6982161971494778  0.8738742221191558  1.0000
  H   H26       1.0  0.872845377390732  0.5163002966282023  0.7743054585625729  1.0000
  H   H27       1.0  0.915326424878188  0.7465056988619522  0.7479202110977141  1.0000
  H   H28       1.0  0.8279426676611621  0.6509476461822314  0.5678947512843849  1.0000
  H   H29       1.0  0.9697084719692696  0.17556158916740122  0.8735783728730198  1.0000
  H   H30       1.0  0.9015357619762054  0.25804697917708797  0.7741539700997819  1.0000
  H   H31       1.0  0.8324747166147188  0.0013811682288676155  0.747895568897924  1.0000
  H   H32       1.0  0.7398378470727491  0.9168700047452488  0.5678376215605567  1.0000
  H   H33       1.0  0.7145889442202817  0.9877052255908866  0.8229449351074508  1.0000
  H   H34       1.0  0.548473830161143  0.9346719157758087  0.6815309151424529  1.0000
  H   H35       1.0  0.10809822311138345  0.8350229398235169  0.8228566292278998  1.0000
  H   H36       1.0  0.1325545357713834  0.7464094093884625  0.6812810505659357  1.0000
  H   H37       1.0  0.5301662270873352  0.8023212523761459  0.12633989739980936  1.0000
  H   H38       1.0  0.5979510994830264  0.9842991595405548  0.22563189746042414  1.0000
  H   H39       1.0  0.6687533691929631  0.7528742984905676  0.2516960599618799  1.0000
  H   H40       1.0  0.7614670352078294  0.8484861855136856  0.4317817217887028  1.0000
  H   H41       1.0  0.5963972608943564  0.3241958046573785  0.12661480154934418  1.0000
  H   H42       1.0  0.6281801684335947  0.24173825343650887  0.22613651501075088  1.0000
  H   H43       1.0  0.5830696729237701  0.49892214417627645  0.2518162766315016  1.0000
  H   H44       1.0  0.6705016655752658  0.5834783985091291  0.4318972449835031  1.0000
  H   H45       1.0  0.39115402797448695  0.5124990226423236  0.1760145188437647  1.0000
  H   H46       1.0  0.3667579926364509  0.5661650286362842  0.3177261599202197  1.0000
  H   H47       1.0  0.7847660084845246  0.663289390798816  0.17591260063638714  1.0000
  H   H48       1.0  0.9508323335967078  0.751244744794313  0.3176452219862257  1.0000
  H   H49       1.0  0.21401564598554748  0.011376897844925795  0.9534739497073303  1.0000
  H   H50       1.0  0.34620680812810883  0.9541229089192809  0.9151437546432106  1.0000
  H   H51       1.0  0.7395696431637971  0.9421244256852856  0.9535776899084992  1.0000
  H   H52       1.0  0.5690890611899702  0.9611133102031529  0.9151955060575999  1.0000
  H   H53       1.0  0.058059055370613157  0.7859511689556838  0.04687545178533265  1.0000
  H   H54       1.0  0.03967184926304406  0.6545823132236561  0.0862044380107534  1.0000
  H   H55       1.0  0.9885035898556112  0.2606220102404109  0.04607018495315176  1.0000
  H   H56       1.0  0.04583266246054763  0.431015533081883  0.08435011833635293  1.0000
  H   H57       1.0  0.7607018231857837  0.48858782150499275  0.0463214396881283  1.0000
  H   H58       1.0  0.9310432810266179  0.545764885058844  0.08433003616465144  1.0000
  H   H59       1.0  0.2860544929795381  0.5582450294851496  0.04714410632549713  1.0000
  H   H60       1.0  0.15444129898475012  0.5397880583957501  0.08620029510066732  1.0000
  H   H61       1.0  0.5113413955307705  0.7140047362137025  0.9530990195029503  1.0000
  H   H62       1.0  0.45419753851179917  0.8463349266932737  0.9149847389305847  1.0000
  H   H63       1.0  0.4417692182305544  0.23922956942660534  0.9531727272768153  1.0000
  H   H64       1.0  0.46081947365961873  0.06878957466623348  0.9149661916853943  1.0000
  C   C1        1.0  0.23085058511596665  0.30242069091727336  0.09782145515914215  1.0000
  C   C2        1.0  0.21635440136428497  0.33363153158524034  0.17754983517387762  1.0000
  C   C3        1.0  0.2658120530564431  0.42800134695846737  0.2569798825116649  1.0000
  C   C4        1.0  0.11163610290559219  0.21393520026472146  0.29582717871025466  1.0000
  C   C5        1.0  0.1603819926336882  0.26613315735515625  0.3956003260023023  1.0000
  C   C6        1.0  0.8668960296581504  0.7953988919513646  0.09791666821465836  1.0000
  C   C7        1.0  0.9610713458013651  0.8439107862544547  0.17768229086408385  1.0000
  C   C8        1.0  0.9910342463643718  0.8288615982933364  0.25705838749251336  1.0000
  C   C9        1.0  0.18413898725086847  0.08192014912479098  0.2957937833124475  1.0000
  C   C10       1.0  0.23511956191688904  0.12945064230824238  0.3955613885872964  1.0000
  C   C11       1.0  0.3134454350883118  0.8780556123092396  0.07126202631685177  1.0000
  C   C12       1.0  0.3514025351882566  0.9802357145348566  0.12744430671318702  1.0000
  C   C13       1.0  0.4540319370864482  0.0182016779178653  0.1834156935496481  1.0000
  C   C14       1.0  0.7579487662837396  0.19332481143529626  0.07140447255658706  1.0000
  C   C15       1.0  0.7762746589278323  0.147406166040426  0.12767722799791414  1.0000
  C   C16       1.0  0.7298175336561173  0.1655559931664072  0.18384154199048916  1.0000
  C   C17       1.0  0.6330053066076147  0.19779315149177285  0.9022111522707095  1.0000
  C   C18       1.0  0.5384437659334367  0.16664660423578675  0.8229332889112017  1.0000
  C   C19       1.0  0.50837036692306  0.07259441337608048  0.7430734036831836  1.0000
  C   C20       1.0  0.26898705982890203  0.7042315898420384  0.9021193680621878  1.0000
  C   C21       1.0  0.2841879187856762  0.6560251186585261  0.8227985954586999  1.0000
  C   C22       1.0  0.23432598739822202  0.6701345242909367  0.7428856503073719  1.0000
  C   C23       1.0  0.7422082433824642  0.6217965147241101  0.9283976176355678  1.0000
  C   C24       1.0  0.7243524237917142  0.5196585473327814  0.8722222621287726  1.0000
  C   C25       1.0  0.7711464359411478  0.4819335079421593  0.8163609250906632  1.0000
  C   C26       1.0  0.42321281855428344  0.3266109476746805  0.7047377966796233  1.0000
  C   C27       1.0  0.3755761520332115  0.27530210115509846  0.6049844207324427  1.0000
  C   C28       1.0  0.18620300744722557  0.3066590182390384  0.9284001551384478  1.0000
  C   C29       1.0  0.14795433176279718  0.35267473592728743  0.8722638095330666  1.0000
  C   C30       1.0  0.04530630879337134  0.3345497737910534  0.8163355617110994  1.0000
  C   C31       1.0  0.2817062920698986  0.37797047457859617  0.7048362165880633  1.0000
  C   C32       1.0  0.2294839231460132  0.329598286960028  0.6050900130415827  1.0000
  C   C33       1.0  0.8069016995169135  0.6864139383709044  0.9286893772473875  1.0000
  C   C34       1.0  0.8531882734967908  0.6484609253932874  0.8727942643667816  1.0000
  C   C35       1.0  0.8351161430832974  0.5458822029282828  0.8166189338953985  1.0000
  C   C36       1.0  0.875009481948581  0.7805648211422492  0.7044976947145544  1.0000
  C   C37       1.0  0.8259253947172951  0.7281581857170634  0.6047459971512269  1.0000
  C   C38       1.0  0.12178260987710822  0.2422238674073967  0.9285603331342428  1.0000
  C   C39       1.0  0.019618774737096906  0.2243164975939038  0.8726082466282818  1.0000
  C   C40       1.0  0.9815728306735566  0.2708103464786262  0.8165164850887124  1.0000
  C   C41       1.0  0.8293644000009265  0.9238996690272001  0.7044877580869269  1.0000
  C   C42       1.0  0.7787101645113877  0.8765449622258288  0.60473954841288  1.0000
  C   C43       1.0  0.6976296589646366  0.13311818906075956  0.9020476196074867  1.0000
  C   C44       1.0  0.6662889928900384  0.03869476540248936  0.8225194395905504  1.0000
  C   C45       1.0  0.572090519864055  0.008840460857356883  0.7428561888561447  1.0000
  C   C46       1.0  0.2042298139431932  0.7687662188612804  0.9019721325676713  1.0000
  C   C47       1.0  0.15596418698558512  0.783596768050728  0.8224089970189824  1.0000
  C   C48       1.0  0.17038058383325697  0.7336672324849333  0.7426663751534903  1.0000
  C   C49       1.0  0.3779900918092238  0.813618219692955  0.07125757280785178  1.0000
  C   C50       1.0  0.48011136086804374  0.8518533928232728  0.1272758651281053  1.0000
  C   C51       1.0  0.5179450912161627  0.954488655543784  0.18327880037839614  1.0000
  C   C52       1.0  0.6712402274110617  0.7190568227788816  0.29515466707234583  1.0000
  C   C53       1.0  0.7219220751946622  0.7714955537738318  0.3949031291111211  1.0000
  C   C54       1.0  0.6934024678386805  0.25776708153534855  0.07143106172767943  1.0000
  C   C55       1.0  0.6473897964617663  0.27559711791607816  0.12753829151440502  1.0000
  C   C56       1.0  0.6657496396016924  0.22911000194105205  0.18369961756756933  1.0000
  C   C57       1.0  0.6240884010069082  0.5761760836211636  0.2952435203608489  1.0000
  C   C58       1.0  0.6732010573612897  0.623553519312182  0.39498686458527044  1.0000
  C   C59       1.0  0.29528517548764915  0.367076224983279  0.09758929914101343  1.0000
  C   C60       1.0  0.3433685761448118  0.4617059531167626  0.17677334501858874  1.0000
  C   C61       1.0  0.32904357823773717  0.4918811922447687  0.25659029920477383  1.0000
  C   C62       1.0  0.8022120658890304  0.7304491833243745  0.09760181018014445  1.0000
  C   C63       1.0  0.8332888365059503  0.7149368420830271  0.17676243984867332  1.0000
  C   C64       1.0  0.9274110984837947  0.7645014383625436  0.2565725946917895  1.0000
  C   C65       1.0  0.22366748878948775  0.2236865868825575  0.4473795859303351  1.0000
  C   C66       1.0  0.27664291130466273  0.27660264352633857  0.5533195766647624  1.0000
  C   C67       1.0  0.7764005739062513  0.7764079460111191  0.552806018161192  1.0000
  C   C68       1.0  0.7235011330076446  0.7234770953698938  0.4468317872502254  1.0000
  C   C69       1.0  0.17534359911078923  0.2050823996339233  0.0012439942996494422  1.0000
  C   C70       1.0  0.25465340729631675  0.15893520778050876  0.9778566145762254  1.0000
  C   C71       1.0  0.1092407191135082  0.12665791543632568  0.9963792749909502  1.0000
  C   C72       1.0  0.26464153371426846  0.06235071633719967  0.9553671126517713  1.0000
  C   C73       1.0  0.33920595448780927  0.029908236356476426  0.9330826622384478  1.0000
  C   C74       1.0  0.8259429169509788  0.7962050562460946  0.0013838238290803798  1.0000
  C   C75       1.0  0.7232315280162993  0.818925574726471  0.9779073846470611  1.0000
  C   C76       1.0  0.8872166955528796  0.8697589324754771  0.9965515223283178  1.0000
  C   C77       1.0  0.6907980894733184  0.8930317143230437  0.9554157386443408  1.0000
  C   C78       1.0  0.5939574705137005  0.9032181573718104  0.9330930418614046  1.0000
  C   C79       1.0  0.20367789135332237  0.8242961033756515  0.9985903970827364  1.0000
  C   C80       1.0  0.1811506798618226  0.7452018454783341  0.022302453400485003  1.0000
  C   C81       1.0  0.12998058250094147  0.8899463543614132  0.003330691808905296  1.0000
  C   C82       1.0  0.10732934591938202  0.7355290970934831  0.04524306174887019  1.0000
  C   C83       1.0  0.09739389571288383  0.6613105512790655  0.06802645035912049  1.0000
  C   C84       1.0  0.7948832748897131  0.17427969749630995  0.9985859617461659  1.0000
  C   C85       1.0  0.8410035488644212  0.27697269262498747  0.021972192743376782  1.0000
  C   C86       1.0  0.8733633343924582  0.11341744470232848  0.003287109836527694  1.0000
  C   C87       1.0  0.9375986778265286  0.30941219314115637  0.04443275182875793  1.0000
  C   C88       1.0  0.9700956282289539  0.406240999867471  0.06665458696512869  1.0000
  C   C89       1.0  0.6742531797464864  0.29495449573498433  0.998770558012325  1.0000
  C   C90       1.0  0.7769053271361346  0.34105813514638317  0.022019696175888663  1.0000
  C   C91       1.0  0.6132033202428887  0.3733710961190511  0.0033853206674052993  1.0000
  C   C92       1.0  0.8094014201579967  0.43761778780915245  0.044454819770017286  1.0000
  C   C93       1.0  0.9062241213621861  0.4700482767594707  0.06662716163268817  1.0000
  C   C94       1.0  0.3244634429777096  0.7037692458062634  0.9987556490961824  1.0000
  C   C95       1.0  0.2452727717076685  0.6811594272615268  0.022351098933022263  1.0000
  C   C96       1.0  0.3902198714193973  0.6300397699512601  0.003436474186301676  1.0000
  C   C97       1.0  0.23548938354947793  0.6073545645138837  0.04526156135771947  1.0000
  C   C98       1.0  0.16121587192191106  0.5974586694877857  0.06798689570388926  1.0000
  C   C99       1.0  0.7049930145811062  0.675302888225211  0.001023152290692168  1.0000
  C   C100      1.0  0.6590162855243236  0.7547774466962379  0.9777701021245947  1.0000
  C   C101      1.0  0.6265193272769736  0.6096585742570042  0.996411405351573  1.0000
  C   C102      1.0  0.562397158019813  0.7647170469001452  0.9551620219258653  1.0000
  C   C103      1.0  0.530009596838262  0.8393607735089218  0.932990828415157  1.0000
  C   C104      1.0  0.29601410442330695  0.32572264228334546  0.001064578387605828  1.0000
  C   C105      1.0  0.318720104300368  0.22300676827931196  0.9777677181353894  1.0000
  C   C106      1.0  0.36990674576654203  0.3867799497533539  0.9965197886944281  1.0000
  C   C107      1.0  0.3927623781428763  0.19052820580398594  0.9551796480458208  1.0000
  C   C108      1.0  0.4029805814931888  0.09370784913281938  0.9329442225561876  1.0000
  N   N1        1.0  0.12355909820297475  0.1235994244051355  0.2471323002398691  1.0000
  N   N2        1.0  0.3767811705345634  0.3765904158101278  0.7534029248713238  1.0000
  N   N3        1.0  0.8765541531698557  0.8765981818430503  0.7532147785427411  1.0000
  N   N4        1.0  0.6233048760876798  0.6232677684577437  0.24652278431947383  1.0000
  O   O1        1.0  0.1260328871232801  0.1318104544173408  0.07553046978964059  1.0000
  O   O2        1.0  0.949554814776825  0.9437718992943616  0.07568518003288471  1.0000
  O   O3        1.0  0.14443829901802727  0.9531408035623625  0.08593555705798649  1.0000
  O   O4        1.0  0.9415590948553857  0.13287939578908947  0.08588661877609392  1.0000
  O   O5        1.0  0.5516229582248114  0.3686545838615416  0.9241111767808405  1.0000
  O   O6        1.0  0.3725592055529673  0.5554471548153757  0.9242049633731639  1.0000
  O   O7        1.0  0.5588486257646678  0.5458880287775331  0.9139908243079375  1.0000
  O   O8        1.0  0.3551759620872445  0.36818589333010004  0.914110939506891  1.0000
  O   O9        1.0  0.867740593222159  0.8553468832385958  0.9139598891461489  1.0000
  O   O10       1.0  0.04615581423765732  0.05849494121425637  0.9137815970817798  1.0000
  O   O11       1.0  0.8684837380943548  0.05139606259901087  0.9241866051671579  1.0000
  O   O12       1.0  0.055746871579074576  0.8728878629509179  0.9242489283437434  1.0000
  O   O13       1.0  0.4537758444799139  0.6447245225236031  0.08589398379022135  1.0000
  O   O14       1.0  0.6321359724528861  0.4412189138543921  0.08581450269045376  1.0000
  O   O15       1.0  0.4446610918995902  0.44813242515337487  0.07576365019659188  1.0000
  O   O16       1.0  0.6309898463027039  0.6275347377824686  0.07564503684209001  1.0000
