data_image0
_chemical_formula_structural       Zr6H46C96O32
_chemical_formula_sum              "Zr6 H46 C96 O32"
_cell_length_a       18.25726124067422
_cell_length_b       22.47718586146255
_cell_length_c       22.58299561396757
_cell_angle_alpha    65.02098197911896
_cell_angle_beta     89.41385281950242
_cell_angle_gamma    88.78588958413343

_space_group_name_H-M_alt    "P 1"
_space_group_IT_number       1

loop_
  _space_group_symop_operation_xyz
  'x, y, z'

loop_
  _atom_site_type_symbol
  _atom_site_label
  _atom_site_symmetry_multiplicity
  _atom_site_fract_x
  _atom_site_fract_y
  _atom_site_fract_z
  _atom_site_occupancy
  Zr  Zr1       1.0  0.2106686426089155  0.9721531261946622  0.03927692777886453  1.0000
  Zr  Zr2       1.0  0.9472593573190268  0.9463429859141427  0.031008280065748448  1.0000
  Zr  Zr3       1.0  0.08610921502788933  0.8564505655181022  0.13865487022508194  1.0000
  Zr  Zr4       1.0  0.07318316341783772  0.0624435701120305  0.932463339417346  1.0000
  Zr  Zr5       1.0  0.10287388097896162  0.8941343580487244  0.9635310599574538  1.0000
  Zr  Zr6       1.0  0.05459671003694672  0.030080942039035094  0.1001611166098044  1.0000
  H   H1        1.0  0.7400811325726409  0.0177389761099462  0.7413376412497853  1.0000
  H   H2        1.0  0.6082337231996533  0.1732343807231516  0.599317206205157  1.0000
  H   H3        1.0  0.747590145296094  0.21420323684058218  0.7302338158742643  1.0000
  H   H4        1.0  0.4520407778669835  0.7249669497896745  0.9763663893909184  1.0000
  H   H5        1.0  0.5680106486021971  0.7316567327358142  0.8061585045786047  1.0000
  H   H6        1.0  0.45082105220014074  0.9037056525701814  0.7985394680338658  1.0000
  H   H7        1.0  0.7077047409661077  0.1942420397275909  0.09628548917644512  1.0000
  H   H8        1.0  0.5761121058893651  0.18351022029045078  0.26036362838353716  1.0000
  H   H9        1.0  0.7045669315677472  0.014877635360313897  0.2733954047228337  1.0000
  H   H10       1.0  0.6306048411718878  0.0650771042813361  0.4873252893135174  1.0000
  H   H11       1.0  0.513463709611507  0.847490575213918  0.5795891482645102  1.0000
  H   H12       1.0  0.41022956648976816  0.8913969876268412  0.3214182680156695  1.0000
  H   H13       1.0  0.5408543559235072  0.7404938637214684  0.46972641132442317  1.0000
  H   H14       1.0  0.41143414716989923  0.6929127076409428  0.33739512382941683  1.0000
  H   H15       1.0  0.40387944552986715  0.257285362900319  0.9645503199191979  1.0000
  H   H16       1.0  0.5523106715895166  0.3881132565974923  0.8207559965108971  1.0000
  H   H17       1.0  0.4055707857137492  0.27053473966567765  0.7680104569499379  1.0000
  H   H18       1.0  0.7219591120667275  0.662718817689246  0.29453039608959847  1.0000
  H   H19       1.0  0.604949450222371  0.5219732716943852  0.2498179729426582  1.0000
  H   H20       1.0  0.7201058479375461  0.6788127088311456  0.09715114013820879  1.0000
  H   H21       1.0  0.6570340643568569  0.40204473365137255  0.48081905523880414  1.0000
  H   H22       1.0  0.4983747829041505  0.5090992606073428  0.5892242693080193  1.0000
  H   H23       1.0  0.5182830728356224  0.5036994610876775  0.9244732308079122  1.0000
  H   H24       1.0  0.630636860999033  0.41290105964184676  0.14480305124132542  1.0000
  H   H25       1.0  0.19140300639862323  0.0001563113946617  0.8987316874830427  1.0000
  H   H26       1.0  0.9987654113547606  0.8102166863213398  0.07135902933281095  1.0000
  H   H27       1.0  0.9501482906963833  0.0862901163514991  0.992707614141466  1.0000
  H   H28       1.0  0.17350635132688552  0.9512338572295818  0.17194772328468141  1.0000
  H   H29       1.0  0.08169515638481781  0.7779407106874247  0.9850536639260028  1.0000
  H   H30       1.0  0.0080306008562232  0.8333889982114115  0.2419420253934064  1.0000
  H   H31       1.0  0.994841343977285  0.9792295891050459  0.22420829830547012  1.0000
  H   H32       1.0  0.09677742559701132  0.9175017980686918  0.8429590289671012  1.0000
  H   H33       1.0  0.04236268986537081  0.11326418731059108  0.8019127347412223  1.0000
  H   H34       1.0  0.086811350284421  0.18969818205570732  0.8963728696948223  1.0000
  H   H35       1.0  0.07181203322140559  0.1587682913638204  0.0582298125601213  1.0000
  H   H36       1.0  0.974550859882662  0.8496680367330143  0.9420437691409944  1.0000
  H   H37       1.0  0.8552984418693085  0.9201475323405011  0.9408327683830959  1.0000
  H   H38       1.0  0.3142593078360818  0.05294630771641099  0.05525524232224651  1.0000
  H   H39       1.0  0.1293252873169806  0.061992811497262296  0.1823353668763943  1.0000
  H   H40       1.0  0.12460350718422575  0.13509349178828958  0.8043196622243515  1.0000
  H   H41       1.0  0.8599907297008755  0.8615217717627742  0.011095608475315539  1.0000
  H   H42       1.0  0.07759674406919709  0.7273570430024562  0.2084985726041353  1.0000
  H   H43       1.0  0.16911301944441703  0.7682424500342505  0.9969387942651907  1.0000
  H   H44       1.0  0.0430007132391665  0.1557985838256357  0.9902368506286479  1.0000
  H   H45       1.0  0.0463009685561531  0.9172709205150155  0.2230626145826094  1.0000
  H   H46       1.0  0.3239225617908091  0.9827365469482104  0.11499023314954131  1.0000
  C   C1        1.0  0.7493999522524321  0.11367492471399024  0.7413177430324254  1.0000
  C   C2        1.0  0.7214618139392784  0.06880033455889388  0.7192647305141051  1.0000
  C   C3        1.0  0.670736329592778  0.09026966717037509  0.667703244422782  1.0000
  C   C4        1.0  0.6474912377604555  0.15649627211642073  0.6393004777847153  1.0000
  C   C5        1.0  0.6743729144693447  0.20128222312407462  0.6618756904516943  1.0000
  C   C6        1.0  0.7257624112376606  0.17974606365135057  0.7128733269497545  1.0000
  C   C7        1.0  0.4465195984420092  0.8178807011473167  0.8909827363585665  1.0000
  C   C8        1.0  0.4695746745374765  0.7521645001896572  0.9259535516784396  1.0000
  C   C9        1.0  0.5135865086236607  0.720799063564094  0.8957260833834227  1.0000
  C   C10       1.0  0.5345980803844625  0.755872575918687  0.830015717568557  1.0000
  C   C11       1.0  0.5126939137458209  0.8220147732027171  0.7948385478652045  1.0000
  C   C12       1.0  0.46889738666433806  0.852917197511282  0.8257550100735997  1.0000
  C   C13       1.0  0.7115739079523705  0.10114806837305677  0.18162554007976442  1.0000
  C   C14       1.0  0.6873430001144457  0.166342334829146  0.1456599344428966  1.0000
  C   C15       1.0  0.6383257779132235  0.1963380603884133  0.1737600221595699  1.0000
  C   C16       1.0  0.6134182668514613  0.1603333706239525  0.23815640474963828  1.0000
  C   C17       1.0  0.6366084800172731  0.09470020304657821  0.2741729945198443  1.0000
  C   C18       1.0  0.6855564835649803  0.0652705290817224  0.24549793246240634  1.0000
  C   C19       1.0  0.5945735711400034  0.9848950796548976  0.5752826797571161  1.0000
  C   C20       1.0  0.5609222916841788  0.922187156486636  0.6023019142065068  1.0000
  C   C21       1.0  0.5394941842348262  0.8951403995867724  0.5595422299747241  1.0000
  C   C22       1.0  0.5493144844365858  0.9277888588180758  0.491531442935944  1.0000
  C   C23       1.0  0.5828668997983756  0.9905209168531641  0.46463354124009737  1.0000
  C   C24       1.0  0.604379204268632  0.0175266833264374  0.5073781731081085  1.0000
  C   C25       1.0  0.40551000767925416  0.7941971487628408  0.323525353936951  1.0000
  C   C26       1.0  0.42985726880445435  0.8406865788760242  0.3451255440452174  1.0000
  C   C27       1.0  0.47833805676575025  0.8212945115987369  0.3982780933809307  1.0000
  C   C28       1.0  0.503131096182436  0.755558483861428  0.4287058998114404  1.0000
  C   C29       1.0  0.4798706385349121  0.7092727876484871  0.4066518238686355  1.0000
  C   C30       1.0  0.4305908555157317  0.7286667252211172  0.35420579035149313  1.0000
  C   C31       1.0  0.39884521085971886  0.2585796369745453  0.8681623070319873  1.0000
  C   C32       1.0  0.42623425915114416  0.2779505044414847  0.915215466785604  1.0000
  C   C33       1.0  0.48131080244307617  0.325115171897103  0.8980822247343668  1.0000
  C   C34       1.0  0.5096511529960708  0.35157427110628  0.8341066910582812  1.0000
  C   C35       1.0  0.4829752752126666  0.33186159941106297  0.7871945577957078  1.0000
  C   C36       1.0  0.42714555902779244  0.28547765344756465  0.8043114417620175  1.0000
  C   C37       1.0  0.7259536220275964  0.6769929349061528  0.19368694467003425  1.0000
  C   C38       1.0  0.7039494770429614  0.6447009515264881  0.2593810446756777  1.0000
  C   C39       1.0  0.6600376630548865  0.5889685294692414  0.27978536758354994  1.0000
  C   C40       1.0  0.6384184175112467  0.5655386759206706  0.23412648078920034  1.0000
  C   C41       1.0  0.6595752506008523  0.5977734338376665  0.16817488171231085  1.0000
  C   C42       1.0  0.7030396918786509  0.6538894606030397  0.14796441767637694  1.0000
  C   C43       1.0  0.602238205714187  0.3898136055289001  0.5700313111942492  1.0000
  C   C44       1.0  0.556710702380812  0.42050432259836157  0.6011098000707804  1.0000
  C   C45       1.0  0.5334262489355127  0.4857604914097919  0.5655720281798652  1.0000
  C   C46       1.0  0.5533761427887569  0.521413413414173  0.5001299484375751  1.0000
  C   C47       1.0  0.5986160848888176  0.4906716658855998  0.4688131820853344  1.0000
  C   C48       1.0  0.6220909254792704  0.42548046804574813  0.5044562290031607  1.0000
  C   C49       1.0  0.5630389626994231  0.5274533159372865  0.9994452243839476  1.0000
  C   C50       1.0  0.5950518823110542  0.5009460142762735  0.06305076476842687  1.0000
  C   C51       1.0  0.605594895871363  0.4326617233614201  0.09657398237767012  1.0000
  C   C52       1.0  0.5861036089036348  0.38916888114086845  0.06973150555176501  1.0000
  C   C53       1.0  0.5537421833761017  0.41572236302196336  0.006300943332803353  1.0000
  C   C54       1.0  0.5433943622768567  0.48400068913571204  0.9726704086111226  1.0000
  C   C55       1.0  0.28652838817534837  0.8907768955088359  0.9693870597758122  1.0000
  C   C56       1.0  0.24387518386341614  0.11775080688118318  0.9212937704110971  1.0000
  C   C57       1.0  0.25828240309839867  0.8476519960850195  0.1747130902105737  1.0000
  C   C58       1.0  0.8668899707651934  0.8284014002351653  0.15057938487147746  1.0000
  C   C59       1.0  0.8769961999781942  0.025531963319934903  0.11049718734338398  1.0000
  C   C60       1.0  0.9018117041750175  0.05629882940183251  0.8864326584661129  1.0000
  C   C61       1.0  0.7727524768894514  0.731584369196014  0.17543190646053833  1.0000
  C   C62       1.0  0.8143704483580763  0.7768368190876062  0.16394585497594974  1.0000
  C   C63       1.0  0.6374535199318244  0.5705095503813666  0.12497202434811779  1.0000
  C   C64       1.0  0.6166770116546801  0.5410400865670084  0.09377811843817338  1.0000
  C   C65       1.0  0.6198296206619673  0.5255349335497713  0.40286923747769526  1.0000
  C   C66       1.0  0.638498807495985  0.5554567207823737  0.3460767567051661  1.0000
  C   C67       1.0  0.3427325384971881  0.21159616277690665  0.8846738474144189  1.0000
  C   C68       1.0  0.2952047696650268  0.17068999771341  0.8982400253255278  1.0000
  C   C69       1.0  0.5074171529116072  0.34935828734489155  0.9425104812730397  1.0000
  C   C70       1.0  0.5307965503647623  0.37622648233016787  0.9752639501786504  1.0000
  C   C71       1.0  0.5107859868575417  0.36029721522925945  0.7225170801844812  1.0000
  C   C72       1.0  0.5336997513234323  0.38642722043786654  0.6666609222105961  1.0000
  C   C73       1.0  0.31094362249815793  0.8247362840936814  0.22721269215099238  1.0000
  C   C74       1.0  0.3549696968476965  0.8120827599477207  0.2712442620094962  1.0000
  C   C75       1.0  0.5282506425293149  0.5869644415556577  0.4659718132940612  1.0000
  C   C76       1.0  0.5055196949132609  0.643355590271419  0.43802787242486113  1.0000
  C   C77       1.0  0.5253850768795516  0.8968056025653437  0.452331911989127  1.0000
  C   C78       1.0  0.5023463554708627  0.865146373377101  0.42413489754905936  1.0000
  C   C79       1.0  0.8135918094746087  0.04888396907420399  0.1338391508465193  1.0000
  C   C80       1.0  0.7649180815536454  0.07248359192000457  0.1549299275090235  1.0000
  C   C81       1.0  0.5969428106739798  0.025426968719223494  0.3968452149927302  1.0000
  C   C82       1.0  0.613391946896009  0.05820505346690649  0.3398055859222707  1.0000
  C   C83       1.0  0.6005256122744883  0.32091558578243706  0.10515054744668362  1.0000
  C   C84       1.0  0.6164280986498198  0.2631089227241289  0.1374088316815687  1.0000
  C   C85       1.0  0.3507262394942289  0.8687380997568184  0.945611798923089  1.0000
  C   C86       1.0  0.3971661070477097  0.8468688820176669  0.9206627288082886  1.0000
  C   C87       1.0  0.5491800023964543  0.5957069968258607  0.9638357091643073  1.0000
  C   C88       1.0  0.5342392481876529  0.6536983790956938  0.9315235863244382  1.0000
  C   C89       1.0  0.5325915093359583  0.8572191679524721  0.7280402890749754  1.0000
  C   C90       1.0  0.5474078762982657  0.8879686339524466  0.6702642696600453  1.0000
  C   C91       1.0  0.80233502175701  0.09292938554919769  0.7919042998542238  1.0000
  C   C92       1.0  0.8483580529556677  0.0765265725622939  0.8347775795413952  1.0000
  C   C93       1.0  0.6436191538520576  0.047609794195153696  0.6417309350749107  1.0000
  C   C94       1.0  0.6192098699271397  0.015798580562076805  0.6142713644010129  1.0000
  C   C95       1.0  0.6499404603911002  0.2677159353634835  0.632014008550115  1.0000
  C   C96       1.0  0.6273344591039418  0.3241950014628046  0.6042787358933168  1.0000
  O   O1        1.0  0.28921865765047267  0.018939660697796495  0.09227828027469091  1.0000
  O   O2        1.0  0.294599909607804  0.9334230686364579  0.9925486897181486  1.0000
  O   O3        1.0  0.2783971605531974  0.8969544651910438  0.12303885493476231  1.0000
  O   O4        1.0  0.18203114620549596  0.12625201937491679  0.8931913578141959  1.0000
  O   O5        1.0  0.19685069436457073  0.8197570388174782  0.1843482649368938  1.0000
  O   O6        1.0  0.2664095576501708  0.06609306036791911  0.96978682822796  1.0000
  O   O7        1.0  0.22694911171019072  0.8659331811298613  0.9636593569231239  1.0000
  O   O8        1.0  0.1486783872733  0.8962675671618926  0.05220281320784177  1.0000
  O   O9        1.0  0.16398460616299812  0.9931118584613334  0.9382740551498542  1.0000
  O   O10       1.0  0.14774695017005257  0.95273195904835  0.13392200109425545  1.0000
  O   O11       1.0  0.12437689506451484  0.0393788303986113  0.0204178055320057  1.0000
  O   O12       1.0  0.0483467335143359  0.15908905138418564  0.9192330982878758  1.0000
  O   O13       1.0  0.12327032547256782  0.7782343388115365  0.01358124487361321  1.0000
  O   O14       1.0  0.028077092625942202  0.9683353794581747  0.9604136246430954  1.0000
  O   O15       1.0  0.017190674746586896  0.8545396662350554  0.056623070982354376  1.0000
  O   O16       1.0  0.014974121286158505  0.9401122429917805  0.10220762175472958  1.0000
  O   O17       1.0  0.9861964426146628  0.05064977636457259  0.006006112695494899  1.0000
  O   O18       1.0  0.060720942924433516  0.7623929691229919  0.16793015563838046  1.0000
  O   O19       1.0  0.9025622173216806  0.832124895849752  0.19514389516194797  1.0000
  O   O20       1.0  0.8722271060856814  0.8676358523957858  0.08800556875807793  1.0000
  O   O21       1.0  0.1156806056283841  0.08139758749835121  0.1365662353160531  1.0000
  O   O22       1.0  0.8668563720194058  0.9936909974201242  0.07639645062896269  1.0000
  O   O23       1.0  0.055876816196416726  0.8540350632602339  0.2302625114981681  1.0000
  O   O24       1.0  0.043058874662264705  0.970048960155566  0.21092578581247792  1.0000
  O   O25       1.0  0.03443078059817142  0.1414873734023985  0.03934626038882531  1.0000
  O   O26       1.0  0.9385745227484963  0.040624586702954  0.1264692063035397  1.0000
  O   O27       1.0  0.8881574161549253  0.8861183053615419  0.9706782152356228  1.0000
  O   O28       1.0  0.09138771865904263  0.09812586316271417  0.8200636056389926  1.0000
  O   O29       1.0  0.881068338269664  0.013424209023014598  0.942106131638532  1.0000
  O   O30       1.0  0.9643150631291778  0.08271583021035411  0.8723184649095472  1.0000
  O   O31       1.0  0.1278942373129155  0.9339298652609073  0.867198692797544  1.0000
  O   O32       1.0  0.026498981904083493  0.8435896080588422  0.9353634559410722  1.0000
