data_image0
_chemical_formula_structural       Cu2H28C36N12Cl2
_chemical_formula_sum              "Cu2 H28 C36 N12 Cl2"
_cell_length_a       8.026516208725319
_cell_length_b       8.317987078328935
_cell_length_c       12.737549262772832
_cell_angle_alpha    85.42756312925036
_cell_angle_beta     78.56619702295006
_cell_angle_gamma    77.17002546237613

_space_group_name_H-M_alt    "P 1"
_space_group_IT_number       1

loop_
  _space_group_symop_operation_xyz
  'x, y, z'

loop_
  _atom_site_type_symbol
  _atom_site_label
  _atom_site_symmetry_multiplicity
  _atom_site_fract_x
  _atom_site_fract_y
  _atom_site_fract_z
  _atom_site_occupancy
  Cu  Cu1       1.0  0.0482607877679015  0.3644922560061729  0.5699277190083123  1.0000
  Cu  Cu2       1.0  0.9517418768556849  0.6355064912410525  0.43007239092936084  1.0000
  H   H1        1.0  0.36457801143855306  0.46472774869460654  0.6713720504371068  1.0000
  H   H2        1.0  0.6354263942440852  0.535274666125062  0.3286300216733834  1.0000
  H   H3        1.0  0.8208760553307286  0.5125429971062373  0.7624621671563006  1.0000
  H   H4        1.0  0.1791274607002222  0.4874520985993057  0.2375285976858166  1.0000
  H   H5        1.0  0.9377269533593872  0.6612573508484588  0.9154745185267997  1.0000
  H   H6        1.0  0.06226578748173487  0.33874024809602327  0.08452685872430979  1.0000
  H   H7        1.0  0.13862966183082648  0.6037520579640084  0.021781845619905493  1.0000
  H   H8        1.0  0.8613599761901012  0.39625420077685886  0.9782171282601765  1.0000
  H   H9        1.0  0.3305404018848464  0.7009364687658531  0.12154865175953229  1.0000
  H   H10       1.0  0.6694492853816811  0.29906363579080864  0.8784498342199143  1.0000
  H   H11       1.0  0.6725485489152376  0.7728543203567425  0.8238083335642656  1.0000
  H   H12       1.0  0.3274482553955806  0.22714199609335847  0.176195751487505  1.0000
  H   H13       1.0  0.4872294461849477  0.6662572426051266  0.7231828989634081  1.0000
  H   H14       1.0  0.512768915340807  0.3337378459765573  0.2768179162218729  1.0000
  H   H15       1.0  0.523866154106372  0.8839945122927941  0.3232451171973167  1.0000
  H   H16       1.0  0.47614182858144005  0.11600912089405571  0.6767533181046943  1.0000
  H   H17       1.0  0.7071544455176163  0.9985028287009995  0.4237890040453464  1.0000
  H   H18       1.0  0.2928512589338652  0.0014995962121914983  0.5762089836452446  1.0000
  H   H19       1.0  0.10020194167437066  0.9838951058935095  0.13750018305398726  1.0000
  H   H20       1.0  0.8998007772660939  0.016097491325787392  0.8624986530659982  1.0000
  H   H21       1.0  0.9125536930784931  0.879536507458205  0.03721085440891159  1.0000
  H   H22       1.0  0.08744433179506217  0.12047214407893847  0.9627869783560143  1.0000
  H   H23       1.0  0.8156708457738232  0.22192573013348485  0.45683637341096534  1.0000
  H   H24       1.0  0.18432801382614628  0.7780730616461681  0.5431618432794565  1.0000
  H   H25       1.0  0.36041747387443474  0.15464557253721978  0.40354470528461656  1.0000
  H   H26       1.0  0.6395786404510416  0.8453716616079986  0.5964631439474883  1.0000
  H   H27       1.0  0.2753872706479328  0.9537945791088872  0.2653228784116521  1.0000
  H   H28       1.0  0.7246296447451922  0.046202800141031695  0.734678700649603  1.0000
  C   C1        1.0  0.23127942877041352  0.4980583211412009  0.7151119954231362  1.0000
  C   C2        1.0  0.7687222259580577  0.5019392029882183  0.2848882979855246  1.0000
  C   C3        1.0  0.9502876062241157  0.5245516271611733  0.7690191212395305  1.0000
  C   C4        1.0  0.049720913640960915  0.47544954672689227  0.2309777995010975  1.0000
  C   C5        1.0  0.007918735803222948  0.5949680446255952  0.8446091731913723  1.0000
  C   C6        1.0  0.9920776073994302  0.40503079346746046  0.15538463766600336  1.0000
  C   C7        1.0  0.2979147559594892  0.6336730382020052  0.8658087666417273  1.0000
  C   C8        1.0  0.7020832725182087  0.36632942174443167  0.13419565147603407  1.0000
  C   C9        1.0  0.25395831714493494  0.6441239560820193  0.9779381960948541  1.0000
  C   C10       1.0  0.7460356275779672  0.35587976973369  0.022066657890455626  1.0000
  C   C11       1.0  0.3604408024818467  0.6989043937338694  0.03422189875634268  1.0000
  C   C12       1.0  0.6395524110771192  0.3010968876272031  0.9657808095851621  1.0000
  C   C13       1.0  0.5130780777892028  0.7456406308584175  0.9779563742487056  1.0000
  C   C14       1.0  0.4869103498115379  0.2543533011079618  0.02204728008410938  1.0000
  C   C15       1.0  0.5554896779249602  0.7343518923991323  0.8662411953191124  1.0000
  C   C16       1.0  0.4445074051170436  0.2656432027141306  0.13376056061785135  1.0000
  C   C17       1.0  0.4500694222043436  0.678040842683643  0.8096862494151367  1.0000
  C   C18       1.0  0.5499291876249471  0.3219529996235336  0.1903169521576586  1.0000
  C   C19       1.0  0.7034132229285246  0.8809527679237802  0.17372498923107568  1.0000
  C   C20       1.0  0.2965930085576858  0.11904718937807249  0.8262730557322299  1.0000
  C   C21       1.0  0.6474133358479292  0.9127510138106626  0.2830445169859032  1.0000
  C   C22       1.0  0.3525888118834785  0.08725020936045517  0.7169539638449506  1.0000
  C   C23       1.0  0.7503924248463176  0.9733841743982551  0.3390562802549013  1.0000
  C   C24       1.0  0.24961534864100085  0.026614542566335293  0.6609408525930718  1.0000
  C   C25       1.0  0.9127095798449075  0.0005320802827952983  0.2860913978419574  1.0000
  C   C26       1.0  0.08729646272590946  0.9994629774219133  0.7139022009990937  1.0000
  C   C27       1.0  0.9730147790080039  0.9636068695464811  0.1778027449427312  1.0000
  C   C28       1.0  0.026993312313550198  0.03638446358451829  0.8221931427239183  1.0000
  C   C29       1.0  0.8686655612373216  0.9049078106975016  0.12184715245944484  1.0000
  C   C30       1.0  0.13133357709383378  0.09508975974531349  0.8781487351161772  1.0000
  C   C31       1.0  0.9518383863724437  0.17460972632923694  0.42379866649194736  1.0000
  C   C32       1.0  0.048160945945376565  0.8253927478669991  0.5762008812888694  1.0000
  C   C33       1.0  0.2348397106522667  0.1372737809360558  0.3934507365367921  1.0000
  C   C34       1.0  0.7651480914225459  0.8627349270100664  0.6065538363245793  1.0000
  C   C35       1.0  0.19518110295547322  0.041704955349288794  0.3228459002734993  1.0000
  C   C36       1.0  0.804820174550613  0.958306098485373  0.6771576980512249  1.0000
  N   N1        1.0  0.08976828097590331  0.4647629617247516  0.689051826471072  1.0000
  N   N2        1.0  0.9102349258962263  0.5352333303799667  0.3109459829881587  1.0000
  N   N3        1.0  0.1862964853483859  0.5778227189568454  0.810251094703041  1.0000
  N   N4        1.0  0.8137012998970478  0.4221809914203759  0.1897501511101608  1.0000
  N   N5        1.0  0.6339511993356268  0.7993588133644706  0.0257283673876856  1.0000
  N   N6        1.0  0.36603825844532173  0.20063635834481622  0.9742719598059324  1.0000
  N   N7        1.0  0.5833087919726481  0.8286866581296122  0.12469366688591071  1.0000
  N   N8        1.0  0.4166925499928594  0.17131825398968195  0.8753070857870282  1.0000
  N   N9        1.0  0.015014999213903493  0.0673208382568617  0.3423746232558713  1.0000
  N   N10       1.0  0.9849876755522259  0.9326779173029178  0.6576239148476972  1.0000
  N   N11       1.0  0.08218613541016141  0.21930298849577665  0.4557493175221267  1.0000
  N   N12       1.0  0.9178083073869554  0.7807044405179082  0.5442529379683236  1.0000
  Cl  Cl1       1.0  0.7118542587167696  0.39573984453073746  0.6184727478503331  1.0000
  Cl  Cl2       1.0  0.28815168896698407  0.6042613299516686  0.3815284121448173  1.0000
