data_image0
_chemical_formula_structural       Sr2H36C28N8O20
_chemical_formula_sum              "Sr2 H36 C28 N8 O20"
_cell_length_a       9.214795256015076
_cell_length_b       9.21479727999975
_cell_length_c       11.27459045231619
_cell_angle_alpha    96.95283162115669
_cell_angle_beta     96.95278439822869
_cell_angle_gamma    94.08866891197985

_space_group_name_H-M_alt    "P 1"
_space_group_IT_number       1

loop_
  _space_group_symop_operation_xyz
  'x, y, z'

loop_
  _atom_site_type_symbol
  _atom_site_label
  _atom_site_symmetry_multiplicity
  _atom_site_fract_x
  _atom_site_fract_y
  _atom_site_fract_z
  _atom_site_occupancy
  Sr  Sr1       1.0  0.9138330315123824  0.08616563930481648  0.7499998478579144  1.0000
  Sr  Sr2       1.0  0.08616703357439089  0.913833802032073  0.24999962612282192  1.0000
  H   H1        1.0  0.8597634116426391  0.9647248033962582  0.4810424579318991  1.0000
  H   H2        1.0  0.0352746756157245  0.1402366730476245  0.018956338801743307  1.0000
  H   H3        1.0  0.1402364660321425  0.03527244308540389  0.5189567854751971  1.0000
  H   H4        1.0  0.9647276700203731  0.8597638697651602  0.9810434625160058  1.0000
  H   H5        1.0  0.8343007909310317  0.1314341997095312  0.4739283378403415  1.0000
  H   H6        1.0  0.8685656480466407  0.1656990448170106  0.02607107628749362  1.0000
  H   H7        1.0  0.165697990149603  0.8685630415750862  0.5260699119705095  1.0000
  H   H8        1.0  0.1314367944679375  0.8343025985962953  0.9739297278882333  1.0000
  H   H9        1.0  0.44119539658490237  0.8228799668556376  0.9125223503954135  1.0000
  H   H10       1.0  0.17711981630665724  0.5588016856278627  0.5874768331722606  1.0000
  H   H11       1.0  0.5588036719586783  0.1771205730576355  0.08747802041820313  1.0000
  H   H12       1.0  0.8228813453742632  0.4411977609060784  0.4125236344047212  1.0000
  H   H13       1.0  0.2877368671033907  0.18242421872684386  0.6965932558423662  1.0000
  H   H14       1.0  0.8175746008674951  0.7122627066973378  0.8034050191664549  1.0000
  H   H15       1.0  0.712263294861856  0.8175763232105735  0.30340722099634837  1.0000
  H   H16       1.0  0.18242446450360464  0.28773783004302794  0.19659446407602132  1.0000
  H   H17       1.0  0.6614444572014762  0.3174487069837113  0.6122270441640867  1.0000
  H   H18       1.0  0.6825506159233755  0.338556576672751  0.8877731117180901  1.0000
  H   H19       1.0  0.3385557952972817  0.6825529292084125  0.38777266039029723  1.0000
  H   H20       1.0  0.3174485494986854  0.6614450638410503  0.11222826195350422  1.0000
  H   H21       1.0  0.4915993592177018  0.38902719266059904  0.6349020179382664  1.0000
  H   H22       1.0  0.6109725542644641  0.5084010947664981  0.865098206882827  1.0000
  H   H23       1.0  0.5084008027475448  0.6109733492768115  0.3650984589004481  1.0000
  H   H24       1.0  0.38902760452830176  0.49159944399800537  0.1349013823847329  1.0000
  H   H25       1.0  0.5319350184812849  0.13319465535430197  0.44285036689716867  1.0000
  H   H26       1.0  0.8668064304682376  0.4680644165342969  0.05714923412237743  1.0000
  H   H27       1.0  0.4680652371899612  0.8668069840107221  0.5571502252283694  1.0000
  H   H28       1.0  0.1331938252030014  0.5319372228307273  0.9428513580031607  1.0000
  H   H29       1.0  0.5067730070612272  0.3167078138357126  0.41610309696076814  1.0000
  H   H30       1.0  0.6832938948856794  0.49322699020090255  0.08389757835053054  1.0000
  H   H31       1.0  0.49322615518835283  0.683293823505174  0.5838973891396722  1.0000
  H   H32       1.0  0.3167063607855667  0.5067746491641215  0.9161030137750076  1.0000
  H   H33       1.0  0.3619936394423675  0.20781618886812228  0.462888914582841  1.0000
  H   H34       1.0  0.7921841098947767  0.638006997919625  0.03711081174969173  1.0000
  H   H35       1.0  0.6380065193503981  0.792184349896388  0.5371106746847191  1.0000
  H   H36       1.0  0.20781614260398132  0.36199463827249184  0.962888892804699  1.0000
  C   C1        1.0  0.5494615162800471  0.005300966156191601  0.8023015580493581  1.0000
  C   C2        1.0  0.9946954991484915  0.4505362907050455  0.6976952783942992  1.0000
  C   C3        1.0  0.4505386425127115  0.9946995726083115  0.19769803121820934  1.0000
  C   C4        1.0  0.005302379094942497  0.5494631465835695  0.30230398353625537  1.0000
  C   C5        1.0  0.4018801185920822  0.032223445817962194  0.7959140315652391  1.0000
  C   C6        1.0  0.9677740526199586  0.5981173751797256  0.7040838222489755  1.0000
  C   C7        1.0  0.5981201339066757  0.9677781903741616  0.20408567298915165  1.0000
  C   C8        1.0  0.0322248253391493  0.4018809667054127  0.29591543041984647  1.0000
  C   C9        1.0  0.5192217505108162  0.17817249401155513  0.6886499345527497  1.0000
  C   C10       1.0  0.8218260399376477  0.48077894729299675  0.8113501134665173  1.0000
  C   C11       1.0  0.48077841145443767  0.8218280479258623  0.31135054228596465  1.0000
  C   C12       1.0  0.1781730286059329  0.5192215926202833  0.1886502573471063  1.0000
  C   C13       1.0  0.6286185975694708  0.8936467749476764  0.8592281420558696  1.0000
  C   C14       1.0  0.10635152637777172  0.3713800953090071  0.6407710133800322  1.0000
  C   C15       1.0  0.3713814675173026  0.10635266638922049  0.14077133192487426  1.0000
  C   C16       1.0  0.893648635587475  0.6286204466284104  0.3592294634586821  1.0000
  C   C17       1.0  0.2785730171071066  0.9727105816032446  0.852859579668703  1.0000
  C   C18       1.0  0.0272872426471977  0.7214260956091749  0.6471397195755771  1.0000
  C   C19       1.0  0.7214271416856521  0.027289957161258396  0.1471400095988571  1.0000
  C   C20       1.0  0.9727127287335761  0.27857224830010097  0.35285963911833573  1.0000
  C   C21       1.0  0.5428630616290421  0.2889181051697491  0.605131146090244  1.0000
  C   C22       1.0  0.711081437826394  0.4571378133239745  0.8948699340105863  1.0000
  C   C23       1.0  0.45713710033620464  0.7110824367676682  0.3948693307484704  1.0000
  C   C24       1.0  0.2889187241388528  0.5428627286134426  0.10513054282812821  1.0000
  C   C25       1.0  0.48141168639411097  0.232729433822513  0.4736652943054551  1.0000
  C   C26       1.0  0.7672717447169008  0.5185888391387721  0.026335360419857103  1.0000
  C   C27       1.0  0.5185884723986476  0.7672711049419901  0.526334294962112  1.0000
  C   C28       1.0  0.23272851095434535  0.48141280022625915  0.973665231705681  1.0000
  N   N1        1.0  0.6206571231691171  0.09795941150535728  0.736613732936725  1.0000
  N   N2        1.0  0.9020388163695048  0.379342112903295  0.7633860807598583  1.0000
  N   N3        1.0  0.37934194220197526  0.9020411252350082  0.26338575030575134  1.0000
  N   N4        1.0  0.09796015846808359  0.6206573295823715  0.23661417476694174  1.0000
  N   N5        1.0  0.3867082957358008  0.1415289539876099  0.7241779848172244  1.0000
  N   N6        1.0  0.8584677971196584  0.6132909537890257  0.7758208968802693  1.0000
  N   N7        1.0  0.6132918662294459  0.8584715879498075  0.27582249202149006  1.0000
  N   N8        1.0  0.1415312714239221  0.38670958612424755  0.22417947393335425  1.0000
  O   O1        1.0  0.7629937439321068  0.8863823298218207  0.8514722911959326  1.0000
  O   O2        1.0  0.11361481045258162  0.23700435199074832  0.6485275317477672  1.0000
  O   O3        1.0  0.23700622744867422  0.11361601408745507  0.14852706749798736  1.0000
  O   O4        1.0  0.8863840706790143  0.7629939930673045  0.35147260849220885  1.0000
  O   O5        1.0  0.818088683054107  0.04896901248324779  0.5210408613868013  1.0000
  O   O6        1.0  0.9510303902515178  0.18190979575478386  0.9789580200053154  1.0000
  O   O7        1.0  0.18191010119900847  0.9510282319742768  0.47895827599519697  1.0000
  O   O8        1.0  0.0489718648510689  0.8180896528032946  0.021042553596757305  1.0000
  O   O9        1.0  0.5562100012996681  0.7999529951523738  0.9137825781787756  1.0000
  O   O10       1.0  0.2000450428065719  0.4437870492974978  0.5862172723631717  1.0000
  O   O11       1.0  0.44378896719295113  0.20004644098747087  0.08621590220572273  1.0000
  O   O12       1.0  0.7999539383759853  0.5562123995339758  0.41378475830592276  1.0000
  O   O13       1.0  0.2995920705069324  0.8611357456313724  0.9104827477388684  1.0000
  O   O14       1.0  0.1388615140331169  0.700405120423454  0.5895162647076334  1.0000
  O   O15       1.0  0.7004080882858332  0.1388647931331377  0.08951684152869183  1.0000
  O   O16       1.0  0.8611385510536496  0.2995943209134425  0.4104832092731102  1.0000
  O   O17       1.0  0.16122869608671664  0.033666450727352505  0.8447036969014478  1.0000
  O   O18       1.0  0.9663316289596511  0.8387698433458368  0.6552935116791405  1.0000
  O   O19       1.0  0.8387714595335611  0.9663340848642433  0.15529500479497227  1.0000
  O   O20       1.0  0.03366833924864211  0.16122849739053183  0.34470495944363233  1.0000
