data_image0
_chemical_formula_structural       Zn8H72C76N8O26
_chemical_formula_sum              "Zn8 H72 C76 N8 O26"
_cell_length_a       15.85173408751572
_cell_length_b       15.852259275481707
_cell_length_c       20.602018861048457
_cell_angle_alpha    112.5175783144649
_cell_angle_beta     112.51556991429628
_cell_angle_gamma    90.27082983700595

_space_group_name_H-M_alt    "P 1"
_space_group_IT_number       1

loop_
  _space_group_symop_operation_xyz
  'x, y, z'

loop_
  _atom_site_type_symbol
  _atom_site_label
  _atom_site_symmetry_multiplicity
  _atom_site_fract_x
  _atom_site_fract_y
  _atom_site_fract_z
  _atom_site_occupancy
  Zn  Zn1       1.0  0.7854658823943627  0.18435877154961147  0.5675395414262996  1.0000
  Zn  Zn2       1.0  0.21645642540067203  0.8156837367077117  0.43262947871420476  1.0000
  Zn  Zn3       1.0  0.1843118236096758  0.783555309233826  0.5673655892204509  1.0000
  Zn  Zn4       1.0  0.8156469663360684  0.2145394336622959  0.432448596307218  1.0000
  Zn  Zn5       1.0  0.7821506372119632  0.383159426006927  0.567534524547533  1.0000
  Zn  Zn6       1.0  0.21619121246880724  0.6168927964732447  0.4326563144721193  1.0000
  Zn  Zn7       1.0  0.3831222370356003  0.7838157206485975  0.5673514064186876  1.0000
  Zn  Zn8       1.0  0.6168470592652044  0.21786209347349964  0.43246723399418147  1.0000
  H   H1        1.0  0.2850652488435941  0.5577825233575312  0.16823564743284444  1.0000
  H   H2        1.0  0.6273930981346468  0.884851269721885  0.26830922952984093  1.0000
  H   H3        1.0  0.6601603071095499  0.14214802210105423  0.9321089199386848  1.0000
  H   H4        1.0  0.5666994480361682  0.08378496408531796  0.8402648471329642  1.0000
  H   H5        1.0  0.6223685286821097  0.19748968657631868  0.8678741019564883  1.0000
  H   H6        1.0  0.47547111360322  0.21321966001605858  0.8841501118908967  1.0000
  H   H7        1.0  0.570914573156003  0.26219174440350945  0.9730140526582434  1.0000
  H   H8        1.0  0.8575868077055875  0.33999354288715006  0.06788689831366661  1.0000
  H   H9        1.0  0.9160140257324159  0.43344011169485697  0.15972318156238427  1.0000
  H   H10       1.0  0.8022404111163157  0.3779143539907325  0.1321155999753075  1.0000
  H   H11       1.0  0.7867260538909593  0.5247953880419373  0.11583355072424699  1.0000
  H   H12       1.0  0.7377109868474108  0.4293600788264412  0.02696888755311734  1.0000
  H   H13       1.0  0.6056593136430451  0.9927265638132637  0.3244691097581835  1.0000
  H   H14       1.0  0.17882155210766387  0.31607354183804426  0.9320892426546126  1.0000
  H   H15       1.0  0.11044234771346605  0.3146264469926267  0.840620016277633  1.0000
  H   H16       1.0  0.23054292915712477  0.3092463806232291  0.8676712552694216  1.0000
  H   H17       1.0  0.21418363860360076  0.4706238357590211  0.8849546707471918  1.0000
  H   H18       1.0  0.2736203325737918  0.4656048725077684  0.973581618206218  1.0000
  H   H19       1.0  0.3841596599178559  0.2470910656315795  0.0678861900627012  1.0000
  H   H20       1.0  0.474012636335246  0.2700999213772732  0.15941412098042929  1.0000
  H   H21       1.0  0.44189428820816096  0.36317237397598484  0.1323427853478805  1.0000
  H   H22       1.0  0.58605705578006  0.32914695154708073  0.11523550149517084  1.0000
  H   H23       1.0  0.49253815969069586  0.30020399403202447  0.026605133217969947  1.0000
  H   H24       1.0  0.6917410846160268  0.9899230309311519  0.2880948150488083  1.0000
  H   H25       1.0  0.2718743203273489  0.789766593558049  0.9319504223184439  1.0000
  H   H26       1.0  0.27345672755524214  0.7562846229337482  0.8400874010372306  1.0000
  H   H27       1.0  0.2454688630110839  0.6701757364969512  0.8677118442009334  1.0000
  H   H28       1.0  0.40865989936803276  0.6708576482709957  0.8839598733512732  1.0000
  H   H29       1.0  0.4020547633739967  0.7106073231864088  0.9727970138251295  1.0000
  H   H30       1.0  0.2104084090525404  0.7280741684316465  0.06810101856471108  1.0000
  H   H31       1.0  0.2438419546799651  0.7264720728873685  0.1599410143330076  1.0000
  H   H32       1.0  0.3299819928211819  0.7543442211123476  0.1323091616351918  1.0000
  H   H33       1.0  0.3291455429335172  0.5911793038999419  0.11603831557815172  1.0000
  H   H34       1.0  0.2894290681089373  0.5977819979421425  0.02720605164944352  1.0000
  H   H35       1.0  0.3898081113974003  0.11690609429582138  0.8318377231735569  1.0000
  H   H36       1.0  0.753139363231107  0.6160339504443119  0.9321741439607795  1.0000
  H   H37       1.0  0.7300844249438829  0.5261682585341848  0.8406427337787225  1.0000
  H   H38       1.0  0.637019505230356  0.5584515255129149  0.8676895098701467  1.0000
  H   H39       1.0  0.670793174584205  0.41420805207417316  0.8847651326816932  1.0000
  H   H40       1.0  0.6998124657134571  0.5077373973447766  0.9734179547219245  1.0000
  H   H41       1.0  0.6837823714884124  0.8210657887440789  0.06795287118559666  1.0000
  H   H42       1.0  0.6852265041642626  0.8894849979055123  0.1594175679839652  1.0000
  H   H43       1.0  0.6905150481568543  0.76938224105961  0.1323705578340652  1.0000
  H   H44       1.0  0.5291477305462209  0.7858484453246959  0.11505026448455888  1.0000
  H   H45       1.0  0.5341908859183706  0.7263573877774689  0.02644547779985376  1.0000
  H   H46       1.0  0.40747021218094676  0.10965975876830937  0.727703497228653  1.0000
  H   H47       1.0  0.32179467846329163  0.00712681349715205  0.6731650664694443  1.0000
  H   H48       1.0  0.44196503855409497  0.0004026643510145392  0.713384083539552  1.0000
  H   H49       1.0  0.8831150370674196  0.6104169650474631  0.16816414893478548  1.0000
  H   H50       1.0  0.8903109730583625  0.5927611985816413  0.27230429145311064  1.0000
  H   H51       1.0  0.9928430531927861  0.6784442660482881  0.3268260179268908  1.0000
  H   H52       1.0  0.38198058884118785  0.6795157175653515  0.27245922114892107  1.0000
  H   H53       1.0  0.9995676719066895  0.5582612928953807  0.2866627315304628  1.0000
  H   H54       1.0  0.1066147713856935  0.48832000287006855  0.8330644700070381  1.0000
  H   H55       1.0  0.11513898958316564  0.37238123526391603  0.7316752567335315  1.0000
  H   H56       1.0  0.007291688435224041  0.39417977992022213  0.6755201595929848  1.0000
  H   H57       1.0  0.010025390617166117  0.30812193398385573  0.711909077973708  1.0000
  H   H58       1.0  0.655394282827203  0.273243368152805  0.16690861159571566  1.0000
  H   H59       1.0  0.6407715718022261  0.38328118496004043  0.26821869210242266  1.0000
  H   H60       1.0  0.7186976218968015  0.3316454061870432  0.32442523773833193  1.0000
  H   H61       1.0  0.596246683452975  0.29799177414437134  0.28802759882345447  1.0000
  H   H62       1.0  0.44198482514362786  0.7148811198417848  0.8317262100510734  1.0000
  H   H63       1.0  0.33388014034829894  0.6483038045401768  0.3268952524995683  1.0000
  H   H64       1.0  0.3202428134199099  0.6180490145718239  0.7274746503518942  1.0000
  H   H65       1.0  0.3514864430432782  0.6661707246747569  0.6730584159097718  1.0000
  H   H66       1.0  0.27148682734439  0.7130568400741525  0.7132534896956886  1.0000
  H   H67       1.0  0.2870349787520895  0.7283488153617838  0.2867513253902628  1.0000
  H   H68       1.0  0.7266506726978864  0.34482445460725614  0.8330870081045563  1.0000
  H   H69       1.0  0.6166973659874061  0.3594860902418235  0.7317737150783545  1.0000
  H   H70       1.0  0.6682875913355916  0.28151034974460054  0.6755475181643791  1.0000
  H   H71       1.0  0.7020607266251493  0.4039497283107142  0.7120021781896715  1.0000
  H   H72       1.0  0.5114851307110726  0.8934548040476142  0.16693721051975519  1.0000
  C   C1        1.0  0.645131970899165  0.14497015191316376  0.2901106331815201  1.0000
  C   C2        1.0  0.09214371851179248  0.9078619144368929  0.49999154698639364  1.0000
  C   C3        1.0  0.45497331108268935  0.824571859136036  0.9598597553148311  1.0000
  C   C4        1.0  0.17542665309139244  0.5449590753087605  0.040139234585097945  1.0000
  C   C5        1.0  0.8235421964896265  0.46967572484163644  0.9606879948272611  1.0000
  C   C6        1.0  0.5086708161488219  0.8627655687693758  0.03922376894673367  1.0000
  C   C7        1.0  0.504839928961275  0.1353102941423434  0.9599678434032842  1.0000
  C   C8        1.0  0.3167202784879495  0.6644396426142052  0.2762922368625525  1.0000
  C   C9        1.0  0.6820317941138615  0.34818138167693763  0.7253741472616115  1.0000
  C   C10       1.0  0.6225508780245477  0.9565823865604484  0.274680405805917  1.0000
  C   C11       1.0  0.3885067694819286  0.040553633202485485  0.7238152142184477  1.0000
  C   C12       1.0  0.9594264973065592  0.6117075301150833  0.27619716408108996  1.0000
  C   C13       1.0  0.09102621951922882  0.5911961323332517  0.49995819232867694  1.0000
  C   C14       1.0  0.04341909911218525  0.37728942539671095  0.7253108272426871  1.0000
  C   C15       1.0  0.6520175705227588  0.31794200093010966  0.27461939975776056  1.0000
  C   C16       1.0  0.33536598164047166  0.6833178639046197  0.7236713004713453  1.0000
  C   C17       1.0  0.9077223294074913  0.40780899862298975  0.4998369375704996  1.0000
  C   C18       1.0  0.8048566089982929  0.4678271923641618  0.07466586423902309  1.0000
  C   C19       1.0  0.8479590064356445  0.40141851320372274  0.11117456248837958  1.0000
  C   C20       1.0  0.20443338074959902  0.446935246918905  0.9259381514995088  1.0000
  C   C21       1.0  0.17926247226891  0.340527837904418  0.8889796509291658  1.0000
  C   C22       1.0  0.5212935174958347  0.27856595611105217  0.07420130925736156  1.0000
  C   C23       1.0  0.4517473005209141  0.29054327323344603  0.11105562749575876  1.0000
  C   C24       1.0  0.3928658748671342  0.7301347454775782  0.9251463474120886  1.0000
  C   C25       1.0  0.2899585019246731  0.7368066074095126  0.8886477987985731  1.0000
  C   C26       1.0  0.2698957201791572  0.6070083583388451  0.07485750821875573  1.0000
  C   C27       1.0  0.5903774010692973  0.409618635763856  0.5000073921241752  1.0000
  C   C28       1.0  0.2633155213071561  0.7099241879970748  0.11137937998613272  1.0000
  C   C29       1.0  0.7214437063363096  0.4789185120339001  0.9258182846078925  1.0000
  C   C30       1.0  0.7096092750698234  0.54848336296449  0.8889868216346529  1.0000
  C   C31       1.0  0.5528875826304614  0.7955609044838923  0.07407967748743968  1.0000
  C   C32       1.0  0.6592955001590397  0.8206717403593443  0.11105317601374036  1.0000
  C   C33       1.0  0.5323924496419324  0.19505371171681707  0.9253278279558048  1.0000
  C   C34       1.0  0.5987759456568541  0.1518289481916073  0.8888136144013644  1.0000
  C   C35       1.0  0.407912945196671  0.5920894132405579  0.49999620906463366  1.0000
  C   C36       1.0  0.40881373925602577  0.9089619534169272  0.5000236905865166  1.0000
  C   C37       1.0  0.592196030114977  0.09227838155001697  0.5001511409441549  1.0000
  C   C38       1.0  0.9096951280330645  0.09032810301413749  0.500019696010398  1.0000
  C   C39       1.0  0.3545942333378208  0.8545101753059684  0.7089140297613526  1.0000
  C   C40       1.0  0.5276467025161865  0.02777477823017457  0.5001540225261394  1.0000
  C   C41       1.0  0.47336587736564456  0.9735314494346882  0.5001066684385195  1.0000
  C   C42       1.0  0.027914697645691468  0.9720753499638235  0.4999907441405825  1.0000
  C   C43       1.0  0.9739234077808238  0.026073249209190807  0.5000011167121347  1.0000
  C   C44       1.0  0.9722138780084891  0.4723654595508933  0.49982691200133905  1.0000
  C   C45       1.0  0.14549884920253228  0.645399880864474  0.2910796376054422  1.0000
  C   C46       1.0  0.026456076692788624  0.5266488776390262  0.499882856121218  1.0000
  C   C47       1.0  0.47214423070147415  0.5278633372060925  0.4999985996204687  1.0000
  C   C48       1.0  0.5261312517783453  0.47387378384129875  0.4999970531368164  1.0000
  C   C49       1.0  0.8550189254175395  0.354878227919656  0.7098797631876084  1.0000
  C   C50       1.0  0.1599974825597528  0.5821774241784894  0.1651036823939691  1.0000
  C   C51       1.0  0.8426220823453223  0.3998347867991969  0.835850252522839  1.0000
  C   C52       1.0  0.563806268116558  0.0066053978335746085  0.16413876515605358  1.0000
  C   C53       1.0  0.41718730101640505  0.9949479542350376  0.8349428099966263  1.0000
  C   C54       1.0  0.005033297770260978  0.5828532134809875  0.1650489575797636  1.0000
  C   C55       1.0  0.993401645494956  0.4361261957322784  0.8358571638271359  1.0000
  C   C56       1.0  0.6002190203124942  0.1573441138266531  0.1641391712648428  1.0000
  C   C57       1.0  0.41775576377659734  0.8399921376084264  0.8348890949872114  1.0000
  C   C58       1.0  0.10235409796140267  0.6023263792234272  0.20475772243266735  1.0000
  C   C59       1.0  0.8980978070507606  0.39801124691410206  0.7960097228558711  1.0000
  C   C60       1.0  0.6019891959284109  0.10188733194603837  0.20397990846421987  1.0000
  C   C61       1.0  0.39766423713912497  0.897636604809584  0.7952375138106476  1.0000
  C   C62       1.0  0.9633278563374503  0.5307542987412076  0.08294326028490659  1.0000
  C   C63       1.0  0.03745110084469189  0.4663840411256008  0.9179361793407996  1.0000
  C   C64       1.0  0.5482944704375896  0.11942332862344782  0.08208432522188502  1.0000
  C   C65       1.0  0.4476533058187115  0.8803491104082113  0.9169817792612562  1.0000
  C   C66       1.0  0.1196439208881515  0.5522944252678669  0.08301577752214229  1.0000
  C   C67       1.0  0.8805526169801114  0.45175487767587474  0.9179071602864187  1.0000
  C   C68       1.0  0.5335406263351103  0.9625456491305187  0.08206115997602136  1.0000
  C   C69       1.0  0.46929110348410347  0.036646804239410725  0.917053233097761  1.0000
  C   C70       1.0  0.020972874653232065  0.5210142300326835  0.04192771587658938  1.0000
  C   C71       1.0  0.9795406469782368  0.47960951792432427  0.9590157713131123  1.0000
  C   C72       1.0  0.5203776718997731  0.02044884816633195  0.040982711227293606  1.0000
  C   C73       1.0  0.478976056487632  0.9790190744992275  0.9580716191271963  1.0000
  C   C74       1.0  0.8646550540068462  0.4952778018970818  0.0400266920933491  1.0000
  C   C75       1.0  0.13723376663544704  0.49121107937286046  0.9607804134797606  1.0000
  C   C76       1.0  0.5304430664783838  0.17643737497564868  0.03931086167276734  1.0000
  N   N1        1.0  0.2548713022500166  0.5884009419945283  0.20431098468908712  1.0000
  N   N2        1.0  0.7524121902087874  0.3506412602995969  0.7969184923241885  1.0000
  N   N3        1.0  0.5535412978042942  0.9553604389717023  0.2030774613063357  1.0000
  N   N4        1.0  0.38432978504093307  0.05063871058411729  0.7957471828400602  1.0000
  N   N5        1.0  0.9493602273552142  0.6158048016303397  0.20424628987040455  1.0000
  N   N6        1.0  0.04467876969938811  0.44632534818270403  0.796918183032517  1.0000
  N   N7        1.0  0.6494846719490328  0.24751647656641754  0.20306707938136273  1.0000
  N   N8        1.0  0.41144891101923536  0.7451072302195245  0.7956602116332052  1.0000
  O   O1        1.0  0.7500358537271696  0.24997216313371254  0.4999968495004553  1.0000
  O   O2        1.0  0.26841154804264283  0.855921807670491  0.675154377837366  1.0000
  O   O3        1.0  0.18058256642882506  0.5928960296892285  0.324771364922107  1.0000
  O   O4        1.0  0.8485295691491717  0.4091047151425758  0.6761615560080687  1.0000
  O   O5        1.0  0.590907301980586  0.15152366591091507  0.3238402263021529  1.0000
  O   O6        1.0  0.4071005447471594  0.8194056954826581  0.6752263818625652  1.0000
  O   O7        1.0  0.14411163999953683  0.7315876400300566  0.3248366011884587  1.0000
  O   O8        1.0  0.827809678848226  0.2669390521951415  0.6761943653116518  1.0000
  O   O9        1.0  0.7330787520941301  0.17213138186678395  0.32378869228345064  1.0000
  O   O10       1.0  0.25003858965455117  0.7499725486549453  0.5000023851477666  1.0000
  O   O11       1.0  0.8809789470371286  0.11133762793976157  0.44229660302438856  1.0000
  O   O12       1.0  0.08846213073272238  0.8544719500491951  0.5323206641156875  1.0000
  O   O13       1.0  0.1105576011596697  0.5630511720690664  0.44143767545523377  1.0000
  O   O14       1.0  0.8565036680262141  0.4437497844889864  0.5342652458616117  1.0000
  O   O15       1.0  0.561441928759024  0.33095153545469463  0.44219645483198644  1.0000
  O   O16       1.0  0.44393106099575874  0.6778164513677751  0.5323542623079618  1.0000
  O   O17       1.0  0.33078378966671096  0.8786105025572937  0.4414707731198035  1.0000
  O   O18       1.0  0.6778224005758489  0.09068314117227062  0.5345536426176807  1.0000
  O   O19       1.0  0.12138683714084683  0.6692211582931833  0.5585150081690886  1.0000
  O   O20       1.0  0.9093169178812988  0.32217924368172407  0.46542933233197925  1.0000
  O   O21       1.0  0.8886782714212631  0.11903798113364435  0.5577370436559265  1.0000
  O   O22       1.0  0.1455416305142166  0.9115410747069673  0.46766811852596396  1.0000
  O   O23       1.0  0.4369578943105596  0.8894295132068423  0.5585409617507439  1.0000
  O   O24       1.0  0.5562487274799114  0.143488908315611  0.46571293204443276  1.0000
  O   O25       1.0  0.6690466417792681  0.438534703150218  0.5578096099709173  1.0000
  O   O26       1.0  0.322184936189224  0.5560733557123642  0.4676395763201385  1.0000
