data_image0
_chemical_formula_structural       Co2H16C16S4N8O4
_chemical_formula_sum              "Co2 H16 C16 S4 N8 O4"
_cell_length_a       8.382464200328265
_cell_length_b       8.562270403968594
_cell_length_c       8.56112275100507
_cell_angle_alpha    113.93600024896821
_cell_angle_beta     96.27490007500111
_cell_angle_gamma    96.27083878739413

_space_group_name_H-M_alt    "P 1"
_space_group_IT_number       1

loop_
  _space_group_symop_operation_xyz
  'x, y, z'

loop_
  _atom_site_type_symbol
  _atom_site_label
  _atom_site_symmetry_multiplicity
  _atom_site_fract_x
  _atom_site_fract_y
  _atom_site_fract_z
  _atom_site_occupancy
  Co  Co1       1.0  0.2500038488795155  0.7276122130707138  0.2723992537950011  1.0000
  Co  Co2       1.0  0.7499932975801045  0.2723824167199567  0.7275980634397783  1.0000
  H   H1        1.0  0.9012695179747396  0.6411378015238471  0.4759642880941116  1.0000
  H   H2        1.0  0.5987460419538451  0.5240445916956491  0.3588479624597128  1.0000
  H   H3        1.0  0.0987329158804044  0.35886719301894493  0.5240436267494815  1.0000
  H   H4        1.0  0.4012580315272345  0.47596296878005984  0.6411541578176526  1.0000
  H   H5        1.0  0.8770133631374009  0.10140849309055262  0.24556927362869632  1.0000
  H   H6        1.0  0.6229597506444975  0.7544314062442867  0.898538258533897  1.0000
  H   H7        1.0  0.1229884420225602  0.8985925992586348  0.7544323269374902  1.0000
  H   H8        1.0  0.3770438261560257  0.2455657654598227  0.10145611495757124  1.0000
  H   H9        1.0  0.8961420953543142  0.9405241745757923  0.04057887266482408  1.0000
  H   H10       1.0  0.6038433193590932  0.9593888727595046  0.05943506713504117  1.0000
  H   H11       1.0  0.1038589366501483  0.05947951826212261  0.9594236916543937  1.0000
  H   H12       1.0  0.3961575097179947  0.040613510758227306  0.9405622748133455  1.0000
  H   H13       1.0  0.051896157739193385  0.9965213300757085  0.22432243005182073  1.0000
  H   H14       1.0  0.4480908415048646  0.7756914325796987  0.003438699649770242  1.0000
  H   H15       1.0  0.9481044534757217  0.003479763447046502  0.7756767041520547  1.0000
  H   H16       1.0  0.5519089206635428  0.22430447197533715  0.9965570816365812  1.0000
  C   C1        1.0  0.8322329259689383  0.8447233988281867  0.22281930918362036  1.0000
  C   C2        1.0  0.6677580120781315  0.7771771163506713  0.15526435985404416  1.0000
  C   C3        1.0  0.1677657181454322  0.1552802963568638  0.7771783224109827  1.0000
  C   C4        1.0  0.33224173515547756  0.22281880752957764  0.8447384360586342  1.0000
  C   C5        1.0  0.8311118031981053  0.6767787208419593  0.38495001093490094  1.0000
  C   C6        1.0  0.6689069832425929  0.615046176262908  0.32322055042251924  1.0000
  C   C7        1.0  0.16888529211613698  0.3232301785414081  0.6150507172701509  1.0000
  C   C8        1.0  0.3310900212458492  0.38495495298922583  0.6767828757382971  1.0000
  C   C9        1.0  0.9726848935728114  0.37254906752114186  0.08689276545452886  1.0000
  C   C10       1.0  0.5273560206015163  0.9131297917194985  0.6274731146647455  1.0000
  C   C11       1.0  0.027314729113562898  0.6274533332744953  0.9131079556534872  1.0000
  C   C12       1.0  0.47263687052338094  0.08686099737388282  0.3725315330846755  1.0000
  C   C13       1.0  0.9210617192699503  0.9782157592415219  0.18047696923441955  1.0000
  C   C14       1.0  0.5789228457148212  0.8195187120516395  0.021740826472551975  1.0000
  C   C15       1.0  0.07894051414695719  0.021787922760218202  0.819524554133949  1.0000
  C   C16       1.0  0.42107853616645485  0.18047978420325714  0.9782585130826789  1.0000
  S   S1        1.0  0.12090343431705719  0.4376723486168714  0.25134394364830115  1.0000
  S   S2        1.0  0.3791512291053607  0.7486819800254311  0.5623621962280226  1.0000
  S   S3        1.0  0.8790919579259295  0.5623261792728016  0.7486524169304829  1.0000
  S   S4        1.0  0.6208475295997218  0.2513152511277  0.43764218658879633  1.0000
  N   N1        1.0  0.6314858212614638  0.034833243052986504  0.6730299825274743  1.0000
  N   N2        1.0  0.8685289687192325  0.32697672889807466  0.9651694028644542  1.0000
  N   N3        1.0  0.36850630417533387  0.9651601368665157  0.326972121661818  1.0000
  N   N4        1.0  0.13147023317759482  0.6730230725824031  0.0348278881282127  1.0000
  N   N5        1.0  0.9127929730121311  0.7899931621792576  0.3346163998984224  1.0000
  N   N6        1.0  0.5872086322445752  0.665402260014858  0.2099910005964816  1.0000
  N   N7        1.0  0.08720642932293292  0.21000795184227175  0.6653872825694692  1.0000
  N   N8        1.0  0.41279001186979497  0.3346014351701854  0.7900066309981213  1.0000
  O   O1        1.0  0.06895245685884532  0.8468028441238575  0.3967366270435805  1.0000
  O   O2        1.0  0.43104326646612634  0.6032943479972775  0.1531807336691387  1.0000
  O   O3        1.0  0.9310505522026914  0.15319823416829342  0.6032627634673702  1.0000
  O   O4        1.0  0.5689609415187178  0.39670672267956775  0.8468187849953424  1.0000
