data_image0
_chemical_formula_structural       Cd6H126C162N30O30
_chemical_formula_sum              "Cd6 H126 C162 N30 O30"
_cell_length_a       10.984323180018643
_cell_length_b       20.844304033055526
_cell_length_c       20.84397364907456
_cell_angle_alpha    119.99918887785806
_cell_angle_beta     90.00020693923338
_cell_angle_gamma    89.99986288915376

_space_group_name_H-M_alt    "P 1"
_space_group_IT_number       1

loop_
  _space_group_symop_operation_xyz
  'x, y, z'

loop_
  _atom_site_type_symbol
  _atom_site_label
  _atom_site_symmetry_multiplicity
  _atom_site_fract_x
  _atom_site_fract_y
  _atom_site_fract_z
  _atom_site_occupancy
  Cd  Cd1       1.0  0.9400448275720952  0.9790655476118246  0.5490810626662112  1.0000
  Cd  Cd2       1.0  0.7734302385265652  0.5490847289560749  0.570012181239626  1.0000
  Cd  Cd3       1.0  0.6067170878560902  0.5700160990558275  0.02094022975593654  1.0000
  Cd  Cd4       1.0  0.4400495432404484  0.020932242551296495  0.45091490342735346  1.0000
  Cd  Cd5       1.0  0.27343467972708174  0.4509239063368682  0.4299909540727853  1.0000
  Cd  Cd6       1.0  0.10671354047510559  0.4299828955396163  0.9790617759458017  1.0000
  H   H1        1.0  0.845672157646952  0.09098252252491082  0.22792511951885072  1.0000
  H   H2        1.0  0.6790313188716297  0.22792121622251932  0.13695957498949698  1.0000
  H   H3        1.0  0.5123575301958783  0.13695651071341064  0.9090322377534648  1.0000
  H   H4        1.0  0.3456741249984745  0.909018056143239  0.7720717737042977  1.0000
  H   H5        1.0  0.17901632174907436  0.7720791482386956  0.8630517090718826  1.0000
  H   H6        1.0  0.0123641566645176  0.863042393922541  0.09096781662427833  1.0000
  H   H7        1.0  0.055945923280354706  0.06973068801806186  0.2622513418484829  1.0000
  H   H8        1.0  0.8893129348757471  0.2622490349406874  0.19252402279833802  1.0000
  H   H9        1.0  0.7226244145160052  0.19254189408332661  0.9302853303173889  1.0000
  H   H10       1.0  0.5559500012770259  0.9302662997211613  0.7377430099254025  1.0000
  H   H11       1.0  0.3892977139723897  0.7377521486978296  0.8074857550595738  1.0000
  H   H12       1.0  0.22263205853673906  0.8074565190493176  0.06971356905498284  1.0000
  H   H13       1.0  0.0795244822103598  0.036606625477993746  0.3604664636743351  1.0000
  H   H14       1.0  0.9129058749254926  0.3604892274859637  0.3238530449083186  1.0000
  H   H15       1.0  0.746180528387896  0.32387947078252904  0.9634019374427112  1.0000
  H   H16       1.0  0.5795231868322474  0.9633909808029203  0.6395263405846309  1.0000
  H   H17       1.0  0.4128920235296008  0.6395226347575046  0.6761547201333755  1.0000
  H   H18       1.0  0.24618854246580216  0.6761197437639126  0.03660002904040024  1.0000
  H   H19       1.0  0.6224783244592658  0.9745966544210347  0.1969658782997002  1.0000
  H   H20       1.0  0.4558809269389742  0.19697210620132205  0.22238546248418337  1.0000
  H   H21       1.0  0.28914347806344415  0.22237952729172153  0.025415574521211733  1.0000
  H   H22       1.0  0.12248087365157552  0.02540454957792088  0.803033938357551  1.0000
  H   H23       1.0  0.9558385148370263  0.8030248465522831  0.7776113615370406  1.0000
  H   H24       1.0  0.789158060766113  0.7776264802011142  0.9745882900325425  1.0000
  H   H25       1.0  0.4057402345786941  0.986610636421318  0.17231276480779895  1.0000
  H   H26       1.0  0.23914652082956428  0.17229640629848572  0.18570908527836144  1.0000
  H   H27       1.0  0.07241373537678443  0.18569574073087847  0.013392991385281081  1.0000
  H   H28       1.0  0.905744538060603  0.013385668848741155  0.8276932773220907  1.0000
  H   H29       1.0  0.7391060680939745  0.8276931565867116  0.8142948479788429  1.0000
  H   H30       1.0  0.5724282336530423  0.8143100983009361  0.9866069227497221  1.0000
  H   H31       1.0  0.4168229802222925  0.2114861756761997  0.3623609340621812  1.0000
  H   H32       1.0  0.25016257997771163  0.3623398910229483  0.15087211748160456  1.0000
  H   H33       1.0  0.08350044068764362  0.1508675938640421  0.7885145454700719  1.0000
  H   H34       1.0  0.916827017872308  0.7885140027990049  0.6376412491018328  1.0000
  H   H35       1.0  0.7501705683155535  0.6376519176222215  0.8491363007921251  1.0000
  H   H36       1.0  0.5835103953768411  0.8491415988345212  0.21148874579677124  1.0000
  H   H37       1.0  0.6334072141179664  0.1880653641909902  0.37933091144366676  1.0000
  H   H38       1.0  0.4667468021473056  0.37933281785567635  0.1912658738003898  1.0000
  H   H39       1.0  0.3000763582430324  0.19127301826068782  0.8119391028772328  1.0000
  H   H40       1.0  0.1334058566400316  0.8119370174843397  0.6206667821543945  1.0000
  H   H41       1.0  0.9667518604513321  0.6206673402050171  0.8087363944761421  1.0000
  H   H42       1.0  0.8000845155691396  0.8087338157065249  0.18806394933978496  1.0000
  H   H43       1.0  0.6578308434057832  0.9063473236564049  0.5112039746610293  1.0000
  H   H44       1.0  0.4912027677947607  0.5112081365145755  0.604835684615658  1.0000
  H   H45       1.0  0.3245041477166809  0.6048517834270728  0.09365618067386809  1.0000
  H   H46       1.0  0.15783821886254404  0.09365058190599732  0.4887915103078199  1.0000
  H   H47       1.0  0.9912147030872307  0.4887946528146615  0.39516206499450135  1.0000
  H   H48       1.0  0.8245008825667242  0.3951408112377731  0.9063409933242141  1.0000
  H   H49       1.0  0.6037157513931961  0.7627277825833688  0.4781350431905339  1.0000
  H   H50       1.0  0.4370378440727124  0.4781466586101855  0.7153888222150399  1.0000
  H   H51       1.0  0.2703736056646378  0.7154067963321397  0.23727071049854925  1.0000
  H   H52       1.0  0.10372087993486902  0.2372684288981688  0.5218591872658678  1.0000
  H   H53       1.0  0.9370461427626113  0.5218494907919791  0.28460494277390314  1.0000
  H   H54       1.0  0.7703698612489094  0.2845873339151908  0.762726776731391  1.0000
  H   H55       1.0  0.985646429489279  0.7945937444310971  0.4993261100411529  1.0000
  H   H56       1.0  0.8189802727267549  0.49933172660137604  0.704749258205652  1.0000
  H   H57       1.0  0.6523087510240018  0.7047460095931443  0.2054135028119858  1.0000
  H   H58       1.0  0.4856524683321838  0.20540867607306268  0.5006767987303747  1.0000
  H   H59       1.0  0.3189899401887645  0.5006663900463194  0.2952462245076077  1.0000
  H   H60       1.0  0.15230546534976952  0.29525437116289754  0.7945833377448608  1.0000
  H   H61       1.0  0.7609783459953762  0.6663806537984841  0.49840803346397416  1.0000
  H   H62       1.0  0.5942568044770485  0.4984230628409704  0.8320266360780479  1.0000
  H   H63       1.0  0.42761776891308056  0.8320333294555909  0.33362208123688936  1.0000
  H   H64       1.0  0.2609783466540563  0.33361966262346954  0.5015928502801189  1.0000
  H   H65       1.0  0.09426559821213235  0.5015742604324984  0.16796647029561732  1.0000
  H   H66       1.0  0.9276138957000699  0.16796597923874385  0.6663742691789949  1.0000
  H   H67       1.0  0.909391564962917  0.6686324673409132  0.4668941967721593  1.0000
  H   H68       1.0  0.7426819275107306  0.4669168536252998  0.7982827493193981  1.0000
  H   H69       1.0  0.5760357215293723  0.798279307901588  0.3313718144011021  1.0000
  H   H70       1.0  0.40938905999132663  0.3313697815847405  0.5331078252526638  1.0000
  H   H71       1.0  0.24269080875374274  0.5330827334498949  0.20171404256092268  1.0000
  H   H72       1.0  0.07603473110977893  0.2017185568896094  0.6686245648416076  1.0000
  H   H73       1.0  0.6833358174141041  0.5508964680953881  0.4049701616240141  1.0000
  H   H74       1.0  0.516648304773618  0.40497100038604816  0.8540771092335433  1.0000
  H   H75       1.0  0.3500002223574016  0.8540757658368038  0.4491173335618441  1.0000
  H   H76       1.0  0.18334048407488984  0.4491041570555439  0.595030312766724  1.0000
  H   H77       1.0  0.016641957360093305  0.5950274227552583  0.1459224727003629  1.0000
  H   H78       1.0  0.8500002120633071  0.14592564200559358  0.5508787360682703  1.0000
  H   H79       1.0  0.6272765847052996  0.4651042699095669  0.27522358260262786  1.0000
  H   H80       1.0  0.4606067622962727  0.27522588472064774  0.8101212122914347  1.0000
  H   H81       1.0  0.29396439070313823  0.8101099212905895  0.5349055547048708  1.0000
  H   H82       1.0  0.12727901714659137  0.5348948647170175  0.7247763906990556  1.0000
  H   H83       1.0  0.9605998366226276  0.724772079900987  0.18987940350584848  1.0000
  H   H84       1.0  0.7939690569906689  0.18988883376943017  0.4650882976485065  1.0000
  H   H85       1.0  0.7894589843103577  0.6127683628142649  0.2105588806681453  1.0000
  H   H86       1.0  0.6227918706282622  0.21058018231288128  0.597801007682861  1.0000
  H   H87       1.0  0.45615824858409587  0.5977973138481261  0.3872280221919481  1.0000
  H   H88       1.0  0.28945888744704723  0.38722967178983936  0.7894414433570206  1.0000
  H   H89       1.0  0.12279094351904973  0.7894162042335965  0.40219786994895673  1.0000
  H   H90       1.0  0.9561574975673112  0.4022041049076746  0.6127710526123806  1.0000
  H   H91       1.0  0.8464695752257967  0.6985933165425494  0.3410201587317658  1.0000
  H   H92       1.0  0.6797856800315146  0.34104009080223824  0.642436251664357  1.0000
  H   H93       1.0  0.5131381513073734  0.6424384591870052  0.3014015913017332  1.0000
  H   H94       1.0  0.3464680662951737  0.30140373526418784  0.6589793029899483  1.0000
  H   H95       1.0  0.17978959222114813  0.658957177601259  0.3575608584385961  1.0000
  H   H96       1.0  0.0131330165392143  0.3575618300381932  0.6985970794468699  1.0000
  H   H97       1.0  0.6194896634246234  0.4340321562477954  0.14637968504097632  1.0000
  H   H98       1.0  0.4528283626212186  0.14638517775251353  0.7123537602601503  1.0000
  H   H99       1.0  0.28618545022236935  0.7123399301430381  0.5659728385111862  1.0000
  H   H100      1.0  0.11949465586153714  0.5659680152675862  0.8536202007553584  1.0000
  H   H101      1.0  0.9528278926637483  0.8536133440108814  0.28764628830180783  1.0000
  H   H102      1.0  0.7861976538344281  0.2876616522306249  0.43402105488036813  1.0000
  H   H103      1.0  0.6467200530761091  0.5041924902034225  0.12372131650649013  1.0000
  H   H104      1.0  0.480055081748077  0.1237291125675242  0.6195349995645287  1.0000
  H   H105      1.0  0.31342606184351507  0.6195234711099857  0.4958096453800707  1.0000
  H   H106      1.0  0.14672187731694217  0.4958098661300737  0.8762802577116418  1.0000
  H   H107      1.0  0.9800578742553514  0.8762698778047097  0.38046557516496904  1.0000
  H   H108      1.0  0.8134328610899575  0.3804775461634335  0.504184848427478  1.0000
  H   H109      1.0  0.8209506037946213  0.36196986335961884  0.15384758492634626  1.0000
  H   H110      1.0  0.6542820855258284  0.15384481846344036  0.7918818485820722  1.0000
  H   H111      1.0  0.4876289697835221  0.7918707693301814  0.6380482392528678  1.0000
  H   H112      1.0  0.32095157648419104  0.6380317193278771  0.8461569077601752  1.0000
  H   H113      1.0  0.1542804851966793  0.846151278225328  0.2081173597246391  1.0000
  H   H114      1.0  0.9876455940134792  0.20813275828597  0.3619535649476191  1.0000
  H   H115      1.0  0.037990917272551904  0.3353723008657071  0.07664614742424894  1.0000
  H   H116      1.0  0.8713214048462845  0.07664640790615342  0.7412785954523997  1.0000
  H   H117      1.0  0.7046803274578652  0.7412689787892432  0.6646324662316943  1.0000
  H   H118      1.0  0.5379929175401231  0.6646287892416892  0.9233555926514397  1.0000
  H   H119      1.0  0.3713161581780113  0.9233571129514574  0.25872018625135945  1.0000
  H   H120      1.0  0.2046959194371283  0.2587351243726559  0.335373193257503  1.0000
  H   H121      1.0  0.8452309406874864  0.5045426261072805  0.06383972119454737  1.0000
  H   H122      1.0  0.6785615529471016  0.0638506285864863  0.559302657168061  1.0000
  H   H123      1.0  0.5119436630050986  0.5593025860076751  0.4954474538778086  1.0000
  H   H124      1.0  0.3452349964218088  0.495456013872399  0.9361591102081093  1.0000
  H   H125      1.0  0.17856022266704494  0.9361500727375759  0.4406967753504532  1.0000
  H   H126      1.0  0.011950480812807  0.4407016357626503  0.5045501611781447  1.0000
  C   C1        1.0  0.9001133646806923  0.013493223012119332  0.4379265787238396  1.0000
  C   C2        1.0  0.7335112845098595  0.4379510039166874  0.4244211570492595  1.0000
  C   C3        1.0  0.5667610404380526  0.4244398072772098  0.9865109165077328  1.0000
  C   C4        1.0  0.4001117246389755  0.986505691405469  0.5620682113279756  1.0000
  C   C5        1.0  0.23349709767231275  0.5620632416496818  0.5755791945858562  1.0000
  C   C6        1.0  0.0667675324372183  0.575561176947801  0.013495764268981207  1.0000
  C   C7        1.0  0.6567235689434697  0.040059440058890075  0.3976154009340149  1.0000
  C   C8        1.0  0.4901051629839516  0.3976193175945753  0.3575694919543864  1.0000
  C   C9        1.0  0.3233751453834373  0.3575594578046972  0.9599555955748399  1.0000
  C   C10       1.0  0.1567223249441128  0.9599369525101196  0.6023796766241034  1.0000
  C   C11       1.0  0.9900927810653715  0.6023921274554738  0.6424330333034121  1.0000
  C   C12       1.0  0.823383046451035  0.6424472327234839  0.04006010385390371  1.0000
  C   C13       1.0  0.8871610207058183  0.03565568895378136  0.3798433432479769  1.0000
  C   C14       1.0  0.7205453912166463  0.37985806085605134  0.3441830247504569  1.0000
  C   C15       1.0  0.5538190659409709  0.34419783908541735  0.9643550436463783  1.0000
  C   C16       1.0  0.3871589677364684  0.9643428252371323  0.6201499112463081  1.0000
  C   C17       1.0  0.22053422000747966  0.6201522579524338  0.655818358449018  1.0000
  C   C18       1.0  0.053824434596585  0.6558006231762619  0.035647425860773393  1.0000
  C   C19       1.0  0.7695624221363676  0.046773943683227466  0.3602570213081506  1.0000
  C   C20       1.0  0.6029422724573622  0.3602722267947627  0.3134874623318566  1.0000
  C   C21       1.0  0.4362205912387155  0.31348881394310263  0.9532324328702516  1.0000
  C   C22       1.0  0.2695614638601853  0.9532217944602766  0.6397359784078844  1.0000
  C   C23       1.0  0.10293122205376193  0.6397344850247251  0.6865144970507941  1.0000
  C   C24       1.0  0.9362274277282695  0.6865101201329511  0.04676910086012496  1.0000
  C   C25       1.0  0.7569250892476447  0.06730183495907469  0.30597977411139243  1.0000
  C   C26       1.0  0.5902941146307868  0.3059872803477077  0.2386860511487328  1.0000
  C   C27       1.0  0.4235835900727807  0.23868520792856146  0.9327086237595381  1.0000
  C   C28       1.0  0.2569218638476656  0.9327000164663275  0.6940176503142864  1.0000
  C   C29       1.0  0.0902815080522714  0.6940188084619621  0.7613174743774067  1.0000
  C   C30       1.0  0.9235947791043702  0.7613138598558679  0.0672946788962179  1.0000
  C   C31       1.0  0.8584942472847248  0.07497690334114536  0.2699597678360917  1.0000
  C   C32       1.0  0.6918615248880755  0.2699631717850295  0.19499466737950405  1.0000
  C   C33       1.0  0.5251575134954152  0.1949975837346398  0.9250372730343557  1.0000
  C   C34       1.0  0.3584903924434288  0.9250236700851316  0.7300371472415819  1.0000
  C   C35       1.0  0.19184632211764815  0.730039274737635  0.8050126321695004  1.0000
  C   C36       1.0  0.025167935692032004  0.8050015184280499  0.07496355990624441  1.0000
  C   C37       1.0  0.9751933820879588  0.06313946828052505  0.28904959849309353  1.0000
  C   C38       1.0  0.8085660922322833  0.28905301481971435  0.22591661484017314  1.0000
  C   C39       1.0  0.6418574368395015  0.2259257576618552  0.9368781646482632  1.0000
  C   C40       1.0  0.4751920742388763  0.9368583817309357  0.7109453937898564  1.0000
  C   C41       1.0  0.30854803370669975  0.710950546229043  0.7740925999013513  1.0000
  C   C42       1.0  0.14186518739482074  0.7740720603150281  0.06312218473797773  1.0000
  C   C43       1.0  0.9888294103766101  0.04443917788189811  0.34435563624570886  1.0000
  C   C44       1.0  0.8222074786574894  0.3443735821016745  0.2999116948845781  1.0000
  C   C45       1.0  0.6554903984328179  0.2999282086246705  0.9555693114730558  1.0000
  C   C46       1.0  0.4888276397522447  0.9555599772401424  0.6556390280618203  1.0000
  C   C47       1.0  0.32219553843674487  0.6556369522201919  0.7000934425620926  1.0000
  C   C48       1.0  0.1554983572870583  0.700069658099743  0.044433885348666886  1.0000
  C   C49       1.0  0.5714169115665089  0.02534357216842404  0.2307624813174272  1.0000
  C   C50       1.0  0.4048043635821657  0.2307610332019294  0.205429000746328  1.0000
  C   C51       1.0  0.23808125526927174  0.2054240176974316  0.9746677086374618  1.0000
  C   C52       1.0  0.07142038229965662  0.9746578554713566  0.7692380050273685  1.0000
  C   C53       1.0  0.9047749661918374  0.7692332448422547  0.7945694723812126  1.0000
  C   C54       1.0  0.7380974689297802  0.7945794635217711  0.02533573758174163  1.0000
  C   C55       1.0  0.45171807949628123  0.033150340135527735  0.21847545579907293  1.0000
  C   C56       1.0  0.2851073712524653  0.21846105410850208  0.18533157936512618  1.0000
  C   C57       1.0  0.1183879641651586  0.18532097008448278  0.966852576147005  1.0000
  C   C58       1.0  0.9517241113033066  0.9668486419258501  0.7815289285446242  1.0000
  C   C59       1.0  0.7850789657353517  0.7815274761727055  0.8146686485687411  1.0000
  C   C60       1.0  0.6184041399315348  0.8146811407475668  0.0331453688507182  1.0000
  C   C61       1.0  0.384267417698574  0.10042530575675096  0.2667026607128378  1.0000
  C   C62       1.0  0.21764468781625376  0.26667704820665966  0.16627339387851242  1.0000
  C   C63       1.0  0.05094256608928301  0.16626797202306415  0.899573641977085  1.0000
  C   C64       1.0  0.8842725150647867  0.8995739066475396  0.7333023653759341  1.0000
  C   C65       1.0  0.7176284665030012  0.7333113956435966  0.8337354686235514  1.0000
  C   C66       1.0  0.550952742299785  0.833734646131994  0.10042466778038761  1.0000
  C   C67       1.0  0.45820467821805283  0.15794268586244442  0.3253009762752583  1.0000
  C   C68       1.0  0.29156263123251597  0.32528464657455913  0.16735867841484262  1.0000
  C   C69       1.0  0.12488228922049421  0.16735274955439639  0.8420574642243536  1.0000
  C   C70       1.0  0.9582078155806291  0.8420569959488446  0.674700797688942  1.0000
  C   C71       1.0  0.791556682854335  0.6747063340984312  0.8326467834758234  1.0000
  C   C72       1.0  0.6248892217748222  0.832650723632554  0.15794296480848397  1.0000
  C   C73       1.0  0.5775111313590388  0.14652243359621048  0.334734531396947  1.0000
  C   C74       1.0  0.4108663448689784  0.3347341598515712  0.1882197306370301  1.0000
  C   C75       1.0  0.2441823031602014  0.18821815312342227  0.8534846032111432  1.0000
  C   C76       1.0  0.07751080034938701  0.853480173696866  0.6652638236464624  1.0000
  C   C77       1.0  0.9108584760630125  0.6652614807180154  0.8117812258147763  1.0000
  C   C78       1.0  0.7441901627711192  0.8117871160318446  0.1465189819278763  1.0000
  C   C79       1.0  0.7184199962589803  0.8620237728925774  0.5040322942873915  1.0000
  C   C80       1.0  0.5517756007503395  0.5040338528928174  0.6419909526796488  1.0000
  C   C81       1.0  0.3850850980165603  0.6420097332416647  0.13798024246268162  1.0000
  C   C82       1.0  0.21842539869349056  0.13797466185719284  0.4959627399940274  1.0000
  C   C83       1.0  0.051784807953190216  0.49596560948406676  0.35800475700023066  1.0000
  C   C84       1.0  0.8850798779726575  0.35798412744042457  0.8620205415130471  1.0000
  C   C85       1.0  0.6897947597846683  0.7913833944957532  0.4877753330499814  1.0000
  C   C86       1.0  0.52313682632186  0.4877857393590403  0.6963837557186424  1.0000
  C   C87       1.0  0.35645805377910733  0.6963974490837688  0.20861822576564049  1.0000
  C   C88       1.0  0.1898008629554866  0.2086149777393231  0.5122206861586633  1.0000
  C   C89       1.0  0.0231437673537656  0.5122107078331126  0.3036110941037151  1.0000
  C   C90       1.0  0.856451687644068  0.30360222001234394  0.7913805505362959  1.0000
  C   C91       1.0  0.889792518887127  0.806262047688513  0.4982292095208578  1.0000
  C   C92       1.0  0.7231345446838092  0.4982357941514691  0.6919687906288914  1.0000
  C   C93       1.0  0.5564566805480881  0.6919758827623782  0.19374056248158664  1.0000
  C   C94       1.0  0.3897986181968633  0.19373829027859552  0.5017708601069586  1.0000
  C   C95       1.0  0.2231424737118104  0.5017618819460026  0.30802604893435154  1.0000
  C   C96       1.0  0.05645159587184881  0.308023503483632  0.8062561888943592  1.0000
  C   C97       1.0  0.8128229861932753  0.6785929992177416  0.46076843118952826  1.0000
  C   C98       1.0  0.6461224551026208  0.4607777207183971  0.782183548693105  1.0000
  C   C99       1.0  0.4794735615246212  0.782186413685608  0.3214116956227783  1.0000
  C   C100      1.0  0.3128242098499642  0.3214066134999313  0.539231304456294  1.0000
  C   C101      1.0  0.14612868729908973  0.5392204666131093  0.2178116393239691  1.0000
  C   C102      1.0  0.9794695454211466  0.21781451579426656  0.6785869391796028  1.0000
  C   C103      1.0  0.7716359476996788  0.6294753189084545  0.38171398058341305  1.0000
  C   C104      1.0  0.6049420250643821  0.3817213927955406  0.7522405798779062  1.0000
  C   C105      1.0  0.4382996627892055  0.7522469779727246  0.37053065539540586  1.0000
  C   C106      1.0  0.27163566769530695  0.3705227972033497  0.6182852793285463  1.0000
  C   C107      1.0  0.10494537174314901  0.6182766629362676  0.2477566053866624  1.0000
  C   C108      1.0  0.9382951751603061  0.24775341438120066  0.6294684631920333  1.0000
  C   C109      1.0  0.7080217326236564  0.5643619972787306  0.3625021997054034  1.0000
  C   C110      1.0  0.541334300949224  0.3625094104989371  0.7981446619268623  1.0000
  C   C111      1.0  0.3746873045627056  0.7981418511007591  0.4356471864756202  1.0000
  C   C112      1.0  0.20802037785917094  0.43563758407397296  0.6374983909976564  1.0000
  C   C113      1.0  0.04133542599802101  0.6374895565089389  0.2018544081188763  1.0000
  C   C114      1.0  0.874688953125876  0.20185699949343666  0.5643485939596857  1.0000
  C   C115      1.0  0.6759358637679114  0.5159621264600744  0.2889513582616274  1.0000
  C   C116      1.0  0.5092613999719121  0.2889588372680834  0.772995104881872  1.0000
  C   C117      1.0  0.3426145449713829  0.7729835336867907  0.4840435917522967  1.0000
  C   C118      1.0  0.17593661255807555  0.48403731957306917  0.711051245197865  1.0000
  C   C119      1.0  0.0092569005851288  0.7110377984642896  0.22700433593451647  1.0000
  C   C120      1.0  0.8426184798122593  0.22701416777471906  0.5159504177728849  1.0000
  C   C121      1.0  0.7060585678738606  0.5325032855297352  0.2337713558791279  1.0000
  C   C122      1.0  0.5393851207694453  0.233783936238737  0.7012752154208642  1.0000
  C   C123      1.0  0.3727512372452821  0.7012665278383494  0.4674989129450254  1.0000
  C   C124      1.0  0.20605885838279656  0.46749443197658985  0.7662301366805977  1.0000
  C   C125      1.0  0.03938814398293291  0.7662128356135655  0.29872220930216276  1.0000
  C   C126      1.0  0.8727513179560873  0.2987338369957655  0.5324972697039385  1.0000
  C   C127      1.0  0.7658118233067202  0.5993186409037534  0.2533545385569695  1.0000
  C   C128      1.0  0.5991364344017996  0.25336903613717954  0.654045212198497  1.0000
  C   C129      1.0  0.432494442137859  0.6540397323614401  0.40068038663701333  1.0000
  C   C130      1.0  0.26580955220462243  0.4006789978472368  0.7466442316763207  1.0000
  C   C131      1.0  0.0991362276798995  0.7466287993103293  0.34595506434889955  1.0000
  C   C132      1.0  0.9324947649509525  0.3459608108046409  0.5993166546020063  1.0000
  C   C133      1.0  0.7983119189888654  0.6473651790354397  0.3267060488248034  1.0000
  C   C134      1.0  0.6316290253870919  0.326718022867368  0.6793455085999297  1.0000
  C   C135      1.0  0.4649823396762258  0.6793482824300412  0.3526336467262752  1.0000
  C   C136      1.0  0.2983084544876604  0.352632649187761  0.6732935335524316  1.0000
  C   C137      1.0  0.13163262037929974  0.67327919100822  0.3206525531316231  1.0000
  C   C138      1.0  0.964982195280257  0.3206507340036211  0.6473630443830345  1.0000
  C   C139      1.0  0.683830375730878  0.4773384922367896  0.1532416968839456  1.0000
  C   C140      1.0  0.5171644577671516  0.1532530727973125  0.6759098828624985  1.0000
  C   C141      1.0  0.35052799295269205  0.6758976381007499  0.5226631661384714  1.0000
  C   C142      1.0  0.18383278674533446  0.5226618557311722  0.8467590553379978  1.0000
  C   C143      1.0  0.01716364710629391  0.8467437624642145  0.32409032816821776  1.0000
  C   C144      1.0  0.8505375958491117  0.3241021275340684  0.4773307084183145  1.0000
  C   C145      1.0  0.8585868083040824  0.3865745141120698  0.12312436968656469  1.0000
  C   C146      1.0  0.6919201523454606  0.12312712753926273  0.7365530183627484  1.0000
  C   C147      1.0  0.5252781220468211  0.7365423516373752  0.6134304942659271  1.0000
  C   C148      1.0  0.35858810260936747  0.613424728691477  0.876876754696667  1.0000
  C   C149      1.0  0.1919178801806184  0.8768699874642751  0.2634461798777537  1.0000
  C   C150      1.0  0.0252949527659538  0.26345841236194195  0.38656867694581365  1.0000
  C   C151      1.0  0.9660753495402973  0.3745189448803927  0.08513448799500618  1.0000
  C   C152      1.0  0.7994087936507486  0.08513436367125123  0.7106199833441167  1.0000
  C   C153      1.0  0.6327723280807902  0.7106154521776631  0.6254905481681234  1.0000
  C   C154      1.0  0.4660759382761627  0.625482044399412  0.9148669481630378  1.0000
  C   C155      1.0  0.2994047053873032  0.9148638153044217  0.2893782901847855  1.0000
  C   C156      1.0  0.1327862275260969  0.2893886260661915  0.3745121645352683  1.0000
  C   C157      1.0  0.8694128183271916  0.46206450936337967  0.07716077889327268  1.0000
  C   C158      1.0  0.7027470905862644  0.07716714967408204  0.615100850323536  1.0000
  C   C159      1.0  0.5361290587316888  0.6150979358241814  0.5379325285477137  1.0000
  C   C160      1.0  0.3694165901839455  0.5379343977093853  0.9228378167451511  1.0000
  C   C161      1.0  0.20274817070691856  0.9228317513306692  0.38489849490359507  1.0000
  C   C162      1.0  0.03613857076847181  0.3849056478738929  0.46206671545031947  1.0000
  N   N1        1.0  0.8435119128065268  0.8704799986331083  0.5106794620955809  1.0000
  N   N2        1.0  0.6768729548925237  0.5106808772852105  0.6401950598782378  1.0000
  N   N3        1.0  0.5101778966549021  0.6402049778130989  0.1295251407971847  1.0000
  N   N4        1.0  0.34351639784205196  0.12952063524009108  0.48932025164027954  1.0000
  N   N5        1.0  0.17688220454835601  0.4893192164425386  0.3598020995570863  1.0000
  N   N6        1.0  0.010173926056531  0.3597920829649367  0.8704719571365302  1.0000
  N   N7        1.0  0.7991415722992627  0.7567959098903289  0.48417469520374823  1.0000
  N   N8        1.0  0.6324654789120532  0.48418482190777473  0.7273797078340181  1.0000
  N   N9        1.0  0.4657993855395475  0.7273908640869067  0.24320516000378933  1.0000
  N   N10       1.0  0.2991457222607253  0.24320357987931362  0.5158232266544616  1.0000
  N   N11       1.0  0.1324740125948622  0.5158111750554965  0.272613814900879  1.0000
  N   N12       1.0  0.9657911030429461  0.2726064901270675  0.7567931944314381  1.0000
  N   N13       1.0  0.7982260929464859  0.44153361191771984  0.11687759923382401  1.0000
  N   N14       1.0  0.6315639401223195  0.11688623261932905  0.675349450871458  1.0000
  N   N15       1.0  0.46492751824166595  0.6753424653687787  0.5584687541307432  1.0000
  N   N16       1.0  0.2982285898453513  0.5584652500445273  0.883121908770022  1.0000
  N   N17       1.0  0.13156387856154342  0.8831103531015289  0.32465019845380283  1.0000
  N   N18       1.0  0.9649396051516066  0.32465917245756504  0.4415272344512431  1.0000
  N   N19       1.0  0.9714655544854626  0.42217610872756967  0.056925958640057686  1.0000
  N   N20       1.0  0.8048044703305167  0.056934440157853115  0.6347547258676086  1.0000
  N   N21       1.0  0.6381782235482447  0.6347522410717018  0.577818838358027  1.0000
  N   N22       1.0  0.47146928348750816  0.5778222768721689  0.9430723312331181  1.0000
  N   N23       1.0  0.3048016827473532  0.9430658040215647  0.36524340839680747  1.0000
  N   N24       1.0  0.13819028347509035  0.36525026719186837  0.4221806538508517  1.0000
  N   N25       1.0  0.6356812969413855  0.08094934290413386  0.2884457565387635  1.0000
  N   N26       1.0  0.4690503465088513  0.28845039409150525  0.20750834655991204  1.0000
  N   N27       1.0  0.30234719592233017  0.20749722323158443  0.9190578942335961  1.0000
  N   N28       1.0  0.1356828052507169  0.9190506934491722  0.7115523663929721  1.0000
  N   N29       1.0  0.9690357630579458  0.7115486551064335  0.7924950335869879  1.0000
  N   N30       1.0  0.8023610677797279  0.7925004548986864  0.08094376249349003  1.0000
  O   O1        1.0  0.0023658349229905003  0.024722783958757925  0.4720144978304219  1.0000
  O   O2        1.0  0.8357670165985596  0.4720251462322125  0.4472849931153462  1.0000
  O   O3        1.0  0.6690121295629582  0.4472944149771789  0.9752743061044031  1.0000
  O   O4        1.0  0.5023646338600545  0.9752746312140064  0.5279812760696176  1.0000
  O   O5        1.0  0.3357528282712395  0.5279875241755007  0.5527189852540033  1.0000
  O   O6        1.0  0.16901971247554576  0.5527043513814436  0.024727049071493805  1.0000
  O   O7        1.0  0.8098917192721873  0.98417895509337  0.45109204627762267  1.0000
  O   O8        1.0  0.6432919129233383  0.4511411066628028  0.46690877940925185  1.0000
  O   O9        1.0  0.4765436035718978  0.4669207546901148  0.015833371578480575  1.0000
  O   O10       1.0  0.30988802375897256  0.01582040174017137  0.5489041034354614  1.0000
  O   O11       1.0  0.14327931644999134  0.5488797835488696  0.5330924865011823  1.0000
  O   O12       1.0  0.9765520789375018  0.5330795279057695  0.9841707038684645  1.0000
  O   O13       1.0  0.6301503399382541  0.09355414493086295  0.4615375439707492  1.0000
  O   O14       1.0  0.4634880288894366  0.4615304137262726  0.3679806301658744  1.0000
  O   O15       1.0  0.2967970610879932  0.36800011860835  0.9064682785326214  1.0000
  O   O16       1.0  0.130146170920419  0.9064434949714909  0.5384581707876847  1.0000
  O   O17       1.0  0.9634767764132168  0.538482535758007  0.6320261131520724  1.0000
  O   O18       1.0  0.7968126581076477  0.6320109746907223  0.0935506595941575  1.0000
  O   O19       1.0  0.590035352944341  0.983333174004656  0.36042964499072383  1.0000
  O   O20       1.0  0.42344394708961636  0.3604347375368775  0.3771252483039547  1.0000
  O   O21       1.0  0.25669139341433583  0.37709418617597384  0.016682876227861156  1.0000
  O   O22       1.0  0.09003045224956455  0.01666125264382843  0.6395644336086903  1.0000
  O   O23       1.0  0.9234330835071064  0.6395774914951886  0.622877366066902  1.0000
  O   O24       1.0  0.7566949032378717  0.6229048159417304  0.9833327493899162  1.0000
  O   O25       1.0  0.2730015255717859  0.1090561305232711  0.2586328011311707  1.0000
  O   O26       1.0  0.10637971452224092  0.2585935754658877  0.14956821881781218  1.0000
  O   O27       1.0  0.9396800816184837  0.14955967514318022  0.8909424965989176  1.0000
  O   O28       1.0  0.7730094484464588  0.8909409658506037  0.7413770753838661  1.0000
  O   O29       1.0  0.6063663018328782  0.7413931578766721  0.8504470075876894  1.0000
  O   O30       1.0  0.4396914408281987  0.8504448514637276  0.10905632742678509  1.0000
