data_image0
_chemical_formula_structural       Zn2H44C58N2O8
_chemical_formula_sum              "Zn2 H44 C58 N2 O8"
_cell_length_a       10.75710667491503
_cell_length_b       14.12731028222372
_cell_length_c       15.086564372550448
_cell_angle_alpha    88.29054901829772
_cell_angle_beta     88.17435163448174
_cell_angle_gamma    90.78529567008393

_space_group_name_H-M_alt    "P 1"
_space_group_IT_number       1

loop_
  _space_group_symop_operation_xyz
  'x, y, z'

loop_
  _atom_site_type_symbol
  _atom_site_label
  _atom_site_symmetry_multiplicity
  _atom_site_fract_x
  _atom_site_fract_y
  _atom_site_fract_z
  _atom_site_occupancy
  Zn  Zn1       1.0  0.5120124085537086  0.6045973738862715  0.49220610223612493  1.0000
  Zn  Zn2       1.0  0.5118327246834228  0.4015962917820631  0.5004709677620482  1.0000
  H   H1        1.0  0.9218346255949329  0.5704422039538456  0.3756417828201891  1.0000
  H   H2        1.0  0.8852759273635584  0.40967459935328787  0.6219240473824286  1.0000
  H   H3        1.0  0.5700781635359463  0.3678688010581652  0.7864509263012993  1.0000
  H   H4        1.0  0.34744757083318945  0.6159237501933107  0.7629669603000337  1.0000
  H   H5        1.0  0.6620942130114216  0.06482362778002941  0.4176165618977238  1.0000
  H   H6        1.0  0.5604154636256099  0.9542134571757686  0.3679029816932414  1.0000
  H   H7        1.0  0.3719855664684033  0.25429034020142893  0.5910035958069387  1.0000
  H   H8        1.0  0.44334077110783443  0.7408079465150624  0.6181075975003338  1.0000
  H   H9        1.0  0.34900373943107615  0.07817557359622643  0.603496673506264  1.0000
  H   H10       1.0  0.431378273597133  0.9150026609316985  0.6407128285553868  1.0000
  H   H11       1.0  0.914731335669387  0.44552873614716754  0.37482644208283494  1.0000
  H   H12       1.0  0.8889263035832543  0.35089420971377183  0.5204361621452664  1.0000
  H   H13       1.0  0.13147460945637593  0.44184221121156486  0.38223317549114466  1.0000
  H   H14       1.0  0.10673796549374263  0.34433599223601874  0.5226097053155243  1.0000
  H   H15       1.0  0.13809493312892582  0.5667103458674562  0.3854269374527064  1.0000
  H   H16       1.0  0.1021994610263164  0.3977704035219959  0.6265440204453796  1.0000
  H   H17       1.0  0.9132976985412996  0.6543397346152986  0.5198183494614883  1.0000
  H   H18       1.0  0.891262249687884  0.5906958343996183  0.6211397674860707  1.0000
  H   H19       1.0  0.12877819304941343  0.6467726601942658  0.5357378986784127  1.0000
  H   H20       1.0  0.10678497237866222  0.5765670489622038  0.6338721803731674  1.0000
  H   H21       1.0  0.6082144214439895  0.587329349274988  0.2013036783297437  1.0000
  H   H22       1.0  0.2860875123091304  0.40857513774781046  0.24524454539177043  1.0000
  H   H23       1.0  0.5316659232173749  0.3633425550112791  0.951380618670143  1.0000
  H   H24       1.0  0.30334162326730063  0.6096302572845433  0.92676253070276  1.0000
  H   H25       1.0  0.8494096447405041  0.19301977728280661  0.4400394600799019  1.0000
  H   H26       1.0  0.9911128917743853  0.25182000670362475  0.3165243189102398  1.0000
  H   H27       1.0  0.9055752849011327  0.335628570185122  0.1850600931079214  1.0000
  H   H28       1.0  0.6764779403319922  0.3622422166686974  0.1788175932864249  1.0000
  H   H29       1.0  0.536002600705274  0.3048029287043903  0.30249346145461703  1.0000
  H   H30       1.0  0.7497535639503494  0.70051982619146  0.40472870564181573  1.0000
  H   H31       1.0  0.8732990599819745  0.6706087725025399  0.26652187506622477  1.0000
  H   H32       1.0  0.8008026312752037  0.7305085364558082  0.12024091053355332  1.0000
  H   H33       1.0  0.6027225517806302  0.8181938091625585  0.1123845066659399  1.0000
  H   H34       1.0  0.48129343095792626  0.8514082959503569  0.2506887407881493  1.0000
  H   H35       1.0  0.7582222189521277  0.4952836741207278  0.0760064265076323  1.0000
  H   H36       1.0  0.9311647476542078  0.5674195241447323  0.9835481875819171  1.0000
  H   H37       1.0  0.8903525761126544  0.702290514497257  0.8780963928855243  1.0000
  H   H38       1.0  0.6756404699373563  0.7651799058218813  0.8684981637643931  1.0000
  H   H39       1.0  0.5037571715636204  0.6934045686408936  0.9621305790817873  1.0000
  H   H40       1.0  0.15265288042373026  0.4959555524667394  0.9893843044709172  1.0000
  H   H41       1.0  0.9754233992804159  0.39820374700612154  0.941695196357422  1.0000
  H   H42       1.0  0.9455155020602533  0.23263611762040173  0.0007265808145505053  1.0000
  H   H43       1.0  0.09493869910052412  0.1659889233248464  0.10833220176806443  1.0000
  H   H44       1.0  0.27281889290537725  0.26405580482823154  0.155502351250469  1.0000
  C   C1        1.0  0.4722549945762183  0.4996800329905399  0.32974514368002883  1.0000
  C   C2        1.0  0.08127601758368291  0.582941545873787  0.5638167001444999  1.0000
  C   C3        1.0  0.5183520129792499  0.5440064536586818  0.0827839800150656  1.0000
  C   C4        1.0  0.3314140519628809  0.4447732487327585  0.10736279588584813  1.0000
  C   C5        1.0  0.5314349822088715  0.5475795508010108  0.17440487159714022  1.0000
  C   C6        1.0  0.3501560319619088  0.44686390834831985  0.19904945255036924  1.0000
  C   C7        1.0  0.44855588700899324  0.4986435770580401  0.23265410980899057  1.0000
  C   C8        1.0  0.4167501185826767  0.49358225936001804  0.04842468889710011  1.0000
  C   C9        1.0  0.48889124395745404  0.4174660347189985  0.9097145255613983  1.0000
  C   C10       1.0  0.36113321544370797  0.5559108585123199  0.896050027795269  1.0000
  C   C11       1.0  0.5116117450154078  0.42021602180745543  0.8183225112907735  1.0000
  C   C12       1.0  0.3858495880943097  0.5600146318445028  0.8048313202898996  1.0000
  C   C13       1.0  0.46394362459640354  0.4935221278352984  0.7656424918311588  1.0000
  C   C14       1.0  0.4161084125859065  0.4867597271727889  0.9500220611522465  1.0000
  C   C15       1.0  0.5942697146205446  0.10355144303702704  0.4567799690518868  1.0000
  C   C16       1.0  0.5341349726903601  0.9099328466730513  0.4258876621687834  1.0000
  C   C17       1.0  0.7491818549820692  0.5063225367662058  0.49617433868713334  1.0000
  C   C18       1.0  0.5968511509379796  0.20222911793869264  0.44845645385252203  1.0000
  C   C19       1.0  0.5466918476503508  0.8120455067071717  0.4193702976681237  1.0000
  C   C20       1.0  0.43332098679496067  0.20851386606636885  0.5530344672950777  1.0000
  C   C21       1.0  0.46935274180111014  0.791758592477592  0.564662345382672  1.0000
  C   C22       1.0  0.4223409718021501  0.1103056534146845  0.5605962387350729  1.0000
  C   C23       1.0  0.46120427992426727  0.8888485977326754  0.5763304213295299  1.0000
  C   C24       1.0  0.5036370237908302  0.055200441202565294  0.5098778054733586  1.0000
  C   C25       1.0  0.4966976522809219  0.9509110805344605  0.5053570330053248  1.0000
  C   C26       1.0  0.49909199230327783  0.5014623147495528  0.6688085866579669  1.0000
  C   C27       1.0  0.27267359991058276  0.4962087837729215  0.5153274293395571  1.0000
  C   C28       1.0  0.9505557260933913  0.5056724733484544  0.41128662730879023  1.0000
  C   C29       1.0  0.9280428873771881  0.41135897736216265  0.5546242901037673  1.0000
  C   C30       1.0  0.09365427316979691  0.5032010679170327  0.41689206307252397  1.0000
  C   C31       1.0  0.0716513833485379  0.4060204248172283  0.5578821543853325  1.0000
  C   C32       1.0  0.9386618351920718  0.5888828804509743  0.5555524073232192  1.0000
  C   C33       1.0  0.8897731214992107  0.5033563418134364  0.5056746436246585  1.0000
  C   C34       1.0  0.13123686668286894  0.4961898771662306  0.5150338863410866  1.0000
  C   C35       1.0  0.683309471808201  0.24560095597143328  0.37949364695703036  1.0000
  C   C36       1.0  0.8116951233455512  0.2299003695524391  0.382488326539999  1.0000
  C   C37       1.0  0.8911750414168226  0.26305057120638514  0.31317925640256317  1.0000
  C   C38       1.0  0.8432579334904561  0.3108537833292645  0.23959551282131036  1.0000
  C   C39       1.0  0.715404221465704  0.3255165955769428  0.23599316574281914  1.0000
  C   C40       1.0  0.6355837753381268  0.2930094137163978  0.3053822111271458  1.0000
  C   C41       1.0  0.6086677144929312  0.7792409732809846  0.3369050479573802  1.0000
  C   C42       1.0  0.7185142936711274  0.7271886035892553  0.3407499465627525  1.0000
  C   C43       1.0  0.787351072876554  0.7104471974800859  0.2629687182142604  1.0000
  C   C44       1.0  0.7471430416669874  0.7442065724769833  0.18090947144936825  1.0000
  C   C45       1.0  0.6360112223038855  0.7939504034341881  0.17657647721366496  1.0000
  C   C46       1.0  0.5677693072430047  0.8121282271811907  0.25413771862466217  1.0000
  C   C47       1.0  0.6186068827287913  0.5884714057967456  0.02462124457142781  1.0000
  C   C48       1.0  0.7402116059927977  0.5544602103712536  0.030221616456415707  1.0000
  C   C49       1.0  0.8374996688819821  0.5951203273438564  0.9781045487173899  1.0000
  C   C50       1.0  0.8147398238929429  0.6708659256419124  0.9194881055144677  1.0000
  C   C51       1.0  0.6942919795596155  0.7059814014118333  0.91402251991115  1.0000
  C   C52       1.0  0.5972516848099545  0.6652610497786287  0.9662589783707958  1.0000
  C   C53       1.0  0.22580708989237053  0.3871479558185129  0.07586353310460942  1.0000
  C   C54       1.0  0.1408267728389134  0.4234544750685529  0.015187658091527105  1.0000
  C   C55       1.0  0.04079255367176421  0.36838489482072845  0.9884374822000694  1.0000
  C   C56       1.0  0.0237308287697005  0.27557228081428786  0.021615968398741404  1.0000
  C   C57       1.0  0.1073752118716413  0.23841921655446194  0.08206692784040112  1.0000
  C   C58       1.0  0.20704952531396262  0.2937041574388033  0.10896448489596369  1.0000
  N   N1        1.0  0.5164359375785211  0.2541314278699573  0.49734345444642974  1.0000
  N   N2        1.0  0.5130877251229364  0.7532452674161477  0.48900791990357834  1.0000
  O   O1        1.0  0.5217959965518874  0.5741993132154805  0.3588995692869049  1.0000
  O   O2        1.0  0.4442641214806144  0.4243309221311123  0.3748381112549596  1.0000
  O   O3        1.0  0.6962288132602837  0.5850376839408895  0.5092675447572361  1.0000
  O   O4        1.0  0.6944707031274933  0.4306882631422155  0.47356519843506834  1.0000
  O   O5        1.0  0.4831325287514332  0.5816110173639474  0.630112057961334  1.0000
  O   O6        1.0  0.542785465815726  0.4277902959724643  0.6330519091944069  1.0000
  O   O7        1.0  0.326432164829626  0.5734409167774999  0.4887710920662087  1.0000
  O   O8        1.0  0.3266200624116422  0.4203335873551169  0.5389385190535947  1.0000
