data_image0
_chemical_formula_structural       Al2H18C42N6O12F6
_chemical_formula_sum              "Al2 H18 C42 N6 O12 F6"
_cell_length_a       3.966593828509013
_cell_length_b       27.9185459034527
_cell_length_c       27.92100217242436
_cell_angle_alpha    120.00937091292607
_cell_angle_beta     89.99066987065443
_cell_angle_gamma    90.00351902668753

_space_group_name_H-M_alt    "P 1"
_space_group_IT_number       1

loop_
  _space_group_symop_operation_xyz
  'x, y, z'

loop_
  _atom_site_type_symbol
  _atom_site_label
  _atom_site_symmetry_multiplicity
  _atom_site_fract_x
  _atom_site_fract_y
  _atom_site_fract_z
  _atom_site_occupancy
  Al  Al1       1.0  0.9929463136517854  0.49994983197596116  0.5000012623668085  1.0000
  Al  Al2       1.0  0.9931725554229444  0.16670470490991815  0.8333294200667396  1.0000
  H   H1        1.0  0.30977960927678083  0.1838753720440352  0.694996213531205  1.0000
  H   H2        1.0  0.33419803230003703  0.23735752218653533  0.6446200529365529  1.0000
  H   H3        1.0  0.6686297597594474  0.38088673582438315  0.7948734899871328  1.0000
  H   H4        1.0  0.6686150331563638  0.2857730360981777  0.5384429874196925  1.0000
  H   H5        1.0  0.3343142645438775  0.429308610570324  0.6887309742624553  1.0000
  H   H6        1.0  0.30973850931106744  0.4827872974793552  0.638352672510294  1.0000
  H   H7        1.0  0.3099147090175692  0.01117089052350904  0.8161481822009904  1.0000
  H   H8        1.0  0.33442530584817837  0.9072288868943803  0.7625827439211152  1.0000
  H   H9        1.0  0.6686536673859537  0.9139688954112087  0.6191205595513338  1.0000
  H   H10       1.0  0.6687107581616233  0.752694942230768  0.7141958371312782  1.0000
  H   H11       1.0  0.3341410675989209  0.7594258662507516  0.5707614586334915  1.0000
  H   H12       1.0  0.3094420266059855  0.6554811407437314  0.5172157002905352  1.0000
  H   H13       1.0  0.3097519425629045  0.305013276572872  0.9888894177354928  1.0000
  H   H14       1.0  0.3344576039638554  0.35538948633217876  0.09280852923379264  1.0000
  H   H15       1.0  0.6686000514105288  0.20510064418424895  0.08594650020103242  1.0000
  H   H16       1.0  0.6686610341853483  0.461592498849285  0.2473966715690921  1.0000
  H   H17       1.0  0.3344063407746774  0.31130045519128663  0.24052493905052336  1.0000
  H   H18       1.0  0.30965276740297293  0.36166127359128813  0.34444322868054666  1.0000
  C   C1        1.0  0.4934489394996858  0.46510961252181465  0.4154109824492239  1.0000
  C   C2        1.0  0.4933722675754098  0.450218834470995  0.5348542869977139  1.0000
  C   C3        1.0  0.493356641155593  0.5845604828429884  0.549737604370904  1.0000
  C   C4        1.0  0.4936652328762321  0.21643005664235204  0.7984662171807956  1.0000
  C   C5        1.0  0.4936505721092317  0.08209396497399991  0.7836103483712621  1.0000
  C   C6        1.0  0.49349276175302503  0.2015578345832838  0.9179239144147007  1.0000
  C   C7        1.0  0.4956887560260057  0.2507450927875184  0.7714260987814399  1.0000
  C   C8        1.0  0.39444988038309253  0.22676184181926126  0.7157694819038625  1.0000
  C   C9        1.0  0.40671168363722643  0.2561226771056867  0.6878993876085957  1.0000
  C   C10       1.0  0.5095298536899692  0.311840974145156  0.7164578051635715  1.0000
  C   C11       1.0  0.5980311159941251  0.3373601569120979  0.7725055467854531  1.0000
  C   C12       1.0  0.5975254656423061  0.3062305983502186  0.7986322281788107  1.0000
  C   C13       1.0  0.5980018254151104  0.32930099602747026  0.5608213061694444  1.0000
  C   C14       1.0  0.5095653704981586  0.3548201406073731  0.6168778730368346  1.0000
  C   C15       1.0  0.4067486709038661  0.41053961275502365  0.6454372103264633  1.0000
  C   C16       1.0  0.3943822855080655  0.4398987844162221  0.6175692105521975  1.0000
  C   C17       1.0  0.49550343662168234  0.4159090982637253  0.5619026530686925  1.0000
  C   C18       1.0  0.5973553506284616  0.3604242621497846  0.5346916305653053  1.0000
  C   C19       1.0  0.49570252440599916  0.02071637304556631  0.7492805217517644  1.0000
  C   C20       1.0  0.394499567817121  0.9890369930066214  0.7732575082709516  1.0000
  C   C21       1.0  0.4067820607184487  0.9317909240062011  0.7438722173749429  1.0000
  C   C22       1.0  0.5095910598876047  0.9046282155952812  0.6881580124188817  1.0000
  C   C23       1.0  0.5980899608578129  0.9351720308662053  0.6626511912855194  1.0000
  C   C24       1.0  0.5975580101714473  0.9924390732315376  0.6937923399352645  1.0000
  C   C25       1.0  0.5979945332600352  0.7314897794865376  0.670680441616618  1.0000
  C   C26       1.0  0.5094649711732799  0.7620281028769186  0.645169974426338  1.0000
  C   C27       1.0  0.406502935471444  0.7348633277836428  0.5894728722854269  1.0000
  C   C28       1.0  0.3941320238352759  0.6776255254310685  0.5601012429055531  1.0000
  C   C29       1.0  0.4954064437789397  0.6459372370746551  0.5840674838414373  1.0000
  C   C30       1.0  0.5973466178847459  0.6742229319027261  0.6395477339796046  1.0000
  C   C31       1.0  0.4954627287672793  0.2285706754148082  0.9792848126328978  1.0000
  C   C32       1.0  0.3943642750083001  0.28423731928035073  0.010993949515643935  1.0000
  C   C33       1.0  0.4067458584328847  0.3120896475285235  0.06822861700935332  1.0000
  C   C34       1.0  0.5095193228344852  0.28352832495335895  0.09537265399720242  1.0000
  C   C35       1.0  0.5979610556287369  0.2274632398212191  0.06479982603481461  1.0000
  C   C36       1.0  0.5973978104275658  0.20134787456854752  0.007534219811383008  1.0000
  C   C37       1.0  0.5979545811307362  0.439229382598306  0.2685398369767213  1.0000
  C   C38       1.0  0.5094686986652803  0.3831652233561158  0.23796481329701888  1.0000
  C   C39       1.0  0.4066753570167094  0.35459178964716653  0.265102291187752  1.0000
  C   C40       1.0  0.39429261591691034  0.38244087027523216  0.3223370564171262  1.0000
  C   C41       1.0  0.49543703407092476  0.43810476721940717  0.3540527556009962  1.0000
  C   C42       1.0  0.5973757768415381  0.4653293638952648  0.3258008102360322  1.0000
  N   N1        1.0  0.5204299838438473  0.34625955946459197  0.6928720859823444  1.0000
  N   N2        1.0  0.520500099656374  0.32040377492295147  0.6404624233146877  1.0000
  N   N3        1.0  0.5205389817481462  0.8466217974007793  0.6537498591502243  1.0000
  N   N4        1.0  0.5205586374022174  0.8200395614821759  0.6795777120908824  1.0000
  N   N5        1.0  0.520434903388896  0.30713967676135917  0.15338183137863842  1.0000
  N   N6        1.0  0.520478741423787  0.3595567189011105  0.17995096282305675  1.0000
  O   O1        1.0  0.729127801575018  0.5578536105241199  0.55694598842571  1.0000
  O   O2        1.0  0.7292593074278102  0.4990184876195158  0.44212019069368585  1.0000
  O   O3        1.0  0.7291230588845965  0.4429935452253275  0.5009184819212109  1.0000
  O   O4        1.0  0.2576855915494035  0.5629779391065597  0.514096753708138  1.0000
  O   O5        1.0  0.25761526019954323  0.48584992786317127  0.5489090020325734  1.0000
  O   O6        1.0  0.2578093750091739  0.4510286071338215  0.43697869001933753  1.0000
  O   O7        1.0  0.7293213095777062  0.16764496692433553  0.8912113241296852  1.0000
  O   O8        1.0  0.7293995911205543  0.22365959843548236  0.8323932332673538  1.0000
  O   O9        1.0  0.7294679170847473  0.10879840829852581  0.7763927044486678  1.0000
  O   O10       1.0  0.2578993024003111  0.21563765469402804  0.8963540122709617  1.0000
  O   O11       1.0  0.2579272571083068  0.10368215809968018  0.8192500405616272  1.0000
  O   O12       1.0  0.2579900369602726  0.18078472584258518  0.7844094965241412  1.0000
  F   F1        1.0  0.6871968360421121  0.3317317886671774  0.852763646960014  1.0000
  F   F2        1.0  0.686910808042242  0.3349173163457451  0.4805514223261014  1.0000
  F   F3        1.0  0.6871853832392818  0.02110576350384008  0.668328794779768  1.0000
  F   F4        1.0  0.6870306483668146  0.6455578014493996  0.6650098041342005  1.0000
  F   F5        1.0  0.6870328737907343  0.14720563986608703  0.9788349295004013  1.0000
  F   F6        1.0  0.6870646822210773  0.5194741547786563  0.35450747456297904  1.0000
