data_image0
_chemical_formula_structural       Sm2CuH16C32N4O26
_chemical_formula_sum              "Sm2 Cu1 H16 C32 N4 O26"
_cell_length_a       9.855296556074387
_cell_length_b       10.42072336720425
_cell_length_c       11.07122898467462
_cell_angle_alpha    69.63827381227155
_cell_angle_beta     84.84444335366288
_cell_angle_gamma    70.73422827394138

_space_group_name_H-M_alt    "P 1"
_space_group_IT_number       1

loop_
  _space_group_symop_operation_xyz
  'x, y, z'

loop_
  _atom_site_type_symbol
  _atom_site_label
  _atom_site_symmetry_multiplicity
  _atom_site_fract_x
  _atom_site_fract_y
  _atom_site_fract_z
  _atom_site_occupancy
  Sm  Sm1       1.0  0.4037502464546137  0.40744926283588273  0.415966180633326  1.0000
  Sm  Sm2       1.0  0.5962504080343791  0.5925510695307354  0.5840356155202499  1.0000
  Cu  Cu1       1.0  0.499998256206048  0.9999995888205505  0.5000007015704356  1.0000
  H   H1        1.0  0.9204770286695448  0.35876267877534934  0.48329846009230704  1.0000
  H   H2        1.0  0.07952668983269018  0.6412408459112199  0.5167056840681425  1.0000
  H   H3        1.0  0.8130948362507623  0.9660611071590993  0.6649768927183856  1.0000
  H   H4        1.0  0.186897584029424  0.033949087208988316  0.33501158148589383  1.0000
  H   H5        1.0  0.25421638407651403  0.9533112461139481  0.6541211318332643  1.0000
  H   H6        1.0  0.7457771198274443  0.046689137509652305  0.3458776108908808  1.0000
  H   H7        1.0  0.45135241625219896  0.3725854094635892  0.9784023121739622  1.0000
  H   H8        1.0  0.5486475724563746  0.6274106035338464  0.021600915437431884  1.0000
  H   H9        1.0  0.34977649341517036  0.9870532865441249  0.20325272154555304  1.0000
  H   H10       1.0  0.6502204362879597  0.012945946651782902  0.7967515318973213  1.0000
  H   H11       1.0  0.2915705156315695  0.15079617066252382  0.7898286803512493  1.0000
  H   H12       1.0  0.7084467866351645  0.8491966432539331  0.2101696564037212  1.0000
  H   H13       1.0  0.22841542410299806  0.677176587941162  0.18223982177349266  1.0000
  H   H14       1.0  0.7715825162147213  0.3228226668331899  0.8177625367838673  1.0000
  H   H15       1.0  0.15271506149979794  0.5566372908939741  0.21892854442486248  1.0000
  H   H16       1.0  0.8472893170051918  0.4433577168856857  0.7810683271359481  1.0000
  C   C1        1.0  0.09821172449580468  0.16395437514496086  0.5603051679133273  1.0000
  C   C2        1.0  0.9017889240212045  0.8360491859593184  0.43969650208964584  1.0000
  C   C3        1.0  0.9517355498607858  0.24285179464568782  0.535414346290807  1.0000
  C   C4        1.0  0.04826508594239698  0.7571518001762743  0.46458460410749314  1.0000
  C   C5        1.0  0.8489892596357365  0.1718348805037024  0.5712142390290111  1.0000
  C   C6        1.0  0.15101032567735473  0.8281720113912884  0.42877922782508193  1.0000
  C   C7        1.0  0.8912469231397181  0.023561797241079305  0.6391316672881687  1.0000
  C   C8        1.0  0.1087485900494442  0.9764450870147318  0.36086303336374204  1.0000
  C   C9        1.0  0.03575348411300887  0.949732868067102  0.672688670868645  1.0000
  C   C10       1.0  0.9642393276187065  0.0502729048787742  0.3273093117917228  1.0000
  C   C11       1.0  0.14150547532017296  0.016264362234061  0.6317099205180412  1.0000
  C   C12       1.0  0.8584880268497413  0.9837392388879778  0.3682896025903873  1.0000
  C   C13       1.0  0.2035785468496627  0.24209849709641423  0.5040930516068229  1.0000
  C   C14       1.0  0.7964244999001763  0.7579039369586413  0.4959123978608346  1.0000
  C   C15       1.0  0.6956523927388928  0.25172552376044166  0.5295036453420467  1.0000
  C   C16       1.0  0.30434651484981856  0.7482835062406964  0.47049100066865174  1.0000
  C   C17       1.0  0.3763332397545868  0.2698474661922036  0.8716103826551703  1.0000
  C   C18       1.0  0.6236704949295484  0.7301495897798065  0.12839492034137115  1.0000
  C   C19       1.0  0.41091563744088677  0.28483407139190575  0.9851759856452915  1.0000
  C   C20       1.0  0.5890904802583561  0.7151586849893335  0.014828690292084404  1.0000
  C   C21       1.0  0.3997194994533828  0.18398380804524814  0.10499609421656694  1.0000
  C   C22       1.0  0.6002801478891016  0.8160100677460422  0.8950060360539497  1.0000
  C   C23       1.0  0.3509758194103867  0.0702870998654603  0.11147004264462623  1.0000
  C   C24       1.0  0.6490292707225082  0.9297056798942408  0.8885329020386978  1.0000
  C   C25       1.0  0.3061399832697873  0.0642230914537123  0.9987064244582201  1.0000
  C   C26       1.0  0.6938616860717345  0.9357772512521125  0.0012943833447351281  1.0000
  C   C27       1.0  0.3194143267601176  0.16133127535366754  0.8779467733901497  1.0000
  C   C28       1.0  0.6805904100627204  0.8386658246752319  0.12205482165109775  1.0000
  C   C29       1.0  0.40980469311467976  0.36290464081601936  0.741525314676423  1.0000
  C   C30       1.0  0.5902085709316579  0.6370880755474605  0.2584815081554908  1.0000
  C   C31       1.0  0.44105275140270817  0.18883830361408377  0.2304670025356543  1.0000
  C   C32       1.0  0.5589356714967763  0.8111588332934689  0.769534088487539  1.0000
  N   N1        1.0  0.07739746816690742  0.7944699168489677  0.7492814165167943  1.0000
  N   N2        1.0  0.922594648118803  0.20553161540230044  0.2507116518571522  1.0000
  N   N3        1.0  0.24800566030012314  0.9485416221649672  0.009058576033609688  1.0000
  N   N4        1.0  0.7519970069421547  0.0514587758369771  0.9909376172791583  1.0000
  O   O1        1.0  0.3387315473395489  0.17372092921875298  0.5006608768224439  1.0000
  O   O2        1.0  0.6612691241012101  0.8262793581909591  0.49934454547069157  1.0000
  O   O3        1.0  0.1606847523882493  0.37851300569887775  0.4577041658360557  1.0000
  O   O4        1.0  0.8393179894029287  0.6214904074954503  0.5423091254890267  1.0000
  O   O5        1.0  0.6427465994212085  0.38376991864954857  0.5231397945308274  1.0000
  O   O6        1.0  0.35724723563891553  0.6162358421570815  0.4768590128486992  1.0000
  O   O7        1.0  0.6212055352495653  0.18993354426608994  0.4965380525596927  1.0000
  O   O8        1.0  0.3787967642347994  0.8100744252211598  0.5034548518906092  1.0000
  O   O9        1.0  0.9789112066631847  0.7414166760023664  0.7890540745051736  1.0000
  O   O10       1.0  0.021075465867937692  0.2585955935365902  0.21094142714371603  1.0000
  O   O11       1.0  0.2071556583582749  0.7259722040819981  0.7687807262730716  1.0000
  O   O12       1.0  0.7928367892779205  0.27401864033854656  0.23120669176503847  1.0000
  O   O13       1.0  0.3763604964405758  0.3403447206068435  0.6444772100530898  1.0000
  O   O14       1.0  0.6236578979258098  0.6596382600866664  0.3555332082915328  1.0000
  O   O15       1.0  0.4735656624113247  0.4512712882500624  0.7402467403536122  1.0000
  O   O16       1.0  0.5264353207299309  0.5487312150403696  0.25975343353616853  1.0000
  O   O17       1.0  0.4245297902182583  0.30830120061475  0.24332338720645902  1.0000
  O   O18       1.0  0.5754579252912605  0.6916981530735244  0.7566725372291073  1.0000
  O   O19       1.0  0.48950207144103086  0.062286272752658106  0.3152382540113479  1.0000
  O   O20       1.0  0.5104856889518031  0.9377161748025816  0.6847684226923006  1.0000
  O   O21       1.0  0.2553444840122267  0.8542930521703271  0.11780957435066597  1.0000
  O   O22       1.0  0.7446581789921113  0.1457073570708333  0.8821857124272157  1.0000
  O   O23       1.0  0.1945078345165355  0.9493216210950454  0.9119125800093498  1.0000
  O   O24       1.0  0.8054968811165965  0.050675535129975906  0.08808448235744488  1.0000
  O   O25       1.0  0.21620958191874698  0.5921382358089817  0.2514164768019498  1.0000
  O   O26       1.0  0.7837920951287883  0.4078556606607365  0.748583676767318  1.0000
