data_image0
_chemical_formula_structural       Cu2H24C18N4O8
_chemical_formula_sum              "Cu2 H24 C18 N4 O8"
_cell_length_a       7.948971120363431
_cell_length_b       8.11504799265483
_cell_length_c       10.546802999458386
_cell_angle_alpha    105.14524773647625
_cell_angle_beta     114.18792706549378
_cell_angle_gamma    92.93692231639197

_space_group_name_H-M_alt    "P 1"
_space_group_IT_number       1

loop_
  _space_group_symop_operation_xyz
  'x, y, z'

loop_
  _atom_site_type_symbol
  _atom_site_label
  _atom_site_symmetry_multiplicity
  _atom_site_fract_x
  _atom_site_fract_y
  _atom_site_fract_z
  _atom_site_occupancy
  Cu  Cu1       1.0  0.04979457906055976  0.5891892489307435  0.13869268837251517  1.0000
  Cu  Cu2       1.0  0.9502172874968406  0.41079995866154917  0.8613135589479838  1.0000
  H   H1        1.0  0.8540455028257341  0.9820146950646417  0.8643848387063571  1.0000
  H   H2        1.0  0.14602240247327813  0.017937727686522492  0.13567093385553622  1.0000
  H   H3        1.0  0.7019425300935184  0.9636991664610192  0.945662860026154  1.0000
  H   H4        1.0  0.29809304292864175  0.03635386312385689  0.054386552618595416  1.0000
  H   H5        1.0  0.6320522850999948  0.8409929933936482  0.7577345000757701  1.0000
  H   H6        1.0  0.36795445223667406  0.15905382524761785  0.2422911932404476  1.0000
  H   H7        1.0  0.4866568291312702  0.1325989118795334  0.9251310184519353  1.0000
  H   H8        1.0  0.5133817872311964  0.8673948405884175  0.07482916603651545  1.0000
  H   H9        1.0  0.5030486580957572  0.3153747917566534  0.07178931626886957  1.0000
  H   H10       1.0  0.49696662692000604  0.6846087016786412  0.9281770964940464  1.0000
  H   H11       1.0  0.3891977902141477  0.31595846727203986  0.8876166307964155  1.0000
  H   H12       1.0  0.6108382540747499  0.6840348629565368  0.11236399502949014  1.0000
  H   H13       1.0  0.3100644788604753  0.10303008776347156  0.644671875344656  1.0000
  H   H14       1.0  0.6899235557030678  0.8969970182334135  0.3553148411090915  1.0000
  H   H15       1.0  0.27166280786831004  0.970898526089101  0.3613850494510444  1.0000
  H   H16       1.0  0.7283017988464874  0.02910560529321058  0.6385935415931029  1.0000
  H   H17       1.0  0.0033107514139629783  0.7944309224004016  0.6997223462722602  1.0000
  H   H18       1.0  0.9966820983394695  0.20555530045008646  0.3002485917989333  1.0000
  H   H19       1.0  0.14660395656817826  0.0037877269375599  0.7777692813974326  1.0000
  H   H20       1.0  0.8533599827299339  0.9961982052054238  0.2222146873634259  1.0000
  H   H21       1.0  0.24966876964302995  0.8154213174798384  0.8006834333297447  1.0000
  H   H22       1.0  0.7503272639627453  0.1845854450397084  0.19930712606701922  1.0000
  H   H23       1.0  0.9231367236985903  0.46081927424325636  0.33211920640609083  1.0000
  H   H24       1.0  0.0768319235498822  0.5391907672940164  0.6679104069149134  1.0000
  C   C1        1.0  0.8399658944091681  0.7451935818373768  0.915647778724761  1.0000
  C   C2        1.0  0.15999823734748733  0.2547879519014487  0.084372609010984  1.0000
  C   C3        1.0  0.749229110239753  0.8910376326895387  0.8671928213554665  1.0000
  C   C4        1.0  0.25082215747740827  0.10896180388571247  0.1328622910158828  1.0000
  C   C5        1.0  0.68925363993651  0.354197875658997  0.9759809624484318  1.0000
  C   C6        1.0  0.3107666261482436  0.6458024025782833  0.024002694624748157  1.0000
  C   C7        1.0  0.5062551467215002  0.2744928664577131  0.9655202725235483  1.0000
  C   C8        1.0  0.4937414051542105  0.7254987578510351  0.03444689982177346  1.0000
  C   C9        1.0  0.09094331970747761  0.7037319590579186  0.46841612122596393  1.0000
  C   C10       1.0  0.9090494114187778  0.2962680903149674  0.531580868829991  1.0000
  C   C11       1.0  0.2445383862211514  0.9766606426712342  0.5638488962722404  1.0000
  C   C12       1.0  0.7554563713349937  0.0233602706111  0.4361416799121968  1.0000
  C   C13       1.0  0.22257192622110714  0.9096454117524856  0.42271627274473633  1.0000
  C   C14       1.0  0.7774050461297435  0.0903604798260815  0.5772710524031267  1.0000
  C   C15       1.0  0.1396314293434884  0.8663004133803724  0.7254325265980128  1.0000
  C   C16       1.0  0.8603511603798496  0.13368750578152339  0.2745653768577441  1.0000
  C   C17       1.0  0.9985387996794512  0.5345632031167398  0.44751912581527614  1.0000
  C   C18       1.0  0.0014426464086553599  0.46544787375982105  0.5524817904047764  1.0000
  N   N1        1.0  0.16053655928217833  0.8466363133372281  0.591825983088377  1.0000
  N   N2        1.0  0.8394651776048007  0.15337078922254216  0.4081601006458584  1.0000
  N   N3        1.0  0.12582531649263726  0.7427056578097505  0.3636936570043758  1.0000
  N   N4        1.0  0.874179504799507  0.2573077718131671  0.6363117289746469  1.0000
  O   O1        1.0  0.9182583958114064  0.7677721473905804  0.05312611245042834  1.0000
  O   O2        1.0  0.0817168720854013  0.232191954719724  0.9468860146966733  1.0000
  O   O3        1.0  0.8336862485017775  0.6137144509611758  0.8156626338204659  1.0000
  O   O4        1.0  0.16624994600527995  0.38626956482040936  0.18436107005111063  1.0000
  O   O5        1.0  0.714904325090913  0.30837226159815145  0.8614154956447849  1.0000
  O   O6        1.0  0.2851215006737177  0.6916191541170134  0.13857405516856863  1.0000
  O   O7        1.0  0.8017933721665428  0.46227305066594226  0.09921685154726842  1.0000
  O   O8        1.0  0.19821622894870217  0.5377330340086315  0.9007764021499085  1.0000
