data_image0
_chemical_formula_structural       Ag4P4H28C20O12
_chemical_formula_sum              "Ag4 P4 H28 C20 O12"
_cell_length_a       6.093428639035997
_cell_length_b       6.697016739631384
_cell_length_c       15.744209345023698
_cell_angle_alpha    93.31663553466716
_cell_angle_beta     90.00009030356347
_cell_angle_gamma    89.99960446701651

_space_group_name_H-M_alt    "P 1"
_space_group_IT_number       1

loop_
  _space_group_symop_operation_xyz
  'x, y, z'

loop_
  _atom_site_type_symbol
  _atom_site_label
  _atom_site_symmetry_multiplicity
  _atom_site_fract_x
  _atom_site_fract_y
  _atom_site_fract_z
  _atom_site_occupancy
  Ag  Ag1       1.0  0.4011646455035348  0.9198377745953292  0.8206554858287942  1.0000
  Ag  Ag2       1.0  0.9011669093123944  0.08015902694614849  0.6793456242563565  1.0000
  Ag  Ag3       1.0  0.5988369562304429  0.08015954972378839  0.17934356135113916  1.0000
  Ag  Ag4       1.0  0.0988297690308997  0.9198560886343471  0.3206609195938483  1.0000
  P   P1        1.0  0.8863914018216762  0.7212711056815733  0.8147475981922695  1.0000
  P   P2        1.0  0.38638864582275534  0.2787274378703088  0.6852465651041371  1.0000
  P   P3        1.0  0.11361348212395941  0.27872922412814916  0.185250899903167  1.0000
  P   P4        1.0  0.6136080325299959  0.7212789740706282  0.3147476609413288  1.0000
  H   H1        1.0  0.7115713436840211  0.4338927271055652  0.7873738724226484  1.0000
  H   H2        1.0  0.21156811140190973  0.566108361990139  0.7126208844483699  1.0000
  H   H3        1.0  0.28842533469676823  0.5661076453921652  0.21262272134436697  1.0000
  H   H4        1.0  0.7884285669656779  0.43389645476393207  0.2873777421803823  1.0000
  H   H5        1.0  0.867929331125275  0.6611360901503075  0.08667171977243268  1.0000
  H   H6        1.0  0.3679073136846398  0.3388600195036062  0.4133298372937801  1.0000
  H   H7        1.0  0.1320788351311322  0.3388432295872904  0.9133293523698639  1.0000
  H   H8        1.0  0.6320696713274004  0.6611491989037149  0.5866727265184153  1.0000
  H   H9        1.0  0.7439242776942905  0.5286485264007297  0.9983959069173594  1.0000
  H   H10       1.0  0.24390125538356952  0.47134775091555525  0.5016044499468322  1.0000
  H   H11       1.0  0.2560822474187958  0.47133829998283955  0.0016041098990555941  1.0000
  H   H12       1.0  0.7560822940574996  0.528665982833182  0.49839697285126755  1.0000
  H   H13       1.0  0.604578837953369  0.5581577346095372  0.09781127316986728  1.0000
  H   H14       1.0  0.10455269712677762  0.441835491142811  0.40219002875264914  1.0000
  H   H15       1.0  0.39542932827239946  0.44182765301329135  0.9021861616999232  1.0000
  H   H16       1.0  0.8954275701179525  0.5581722031727095  0.5978137617662043  1.0000
  H   H17       1.0  0.6672525918505984  0.19495039529927274  0.8884401736830442  1.0000
  H   H18       1.0  0.16725203519213494  0.8050359218310061  0.6115579420840335  1.0000
  H   H19       1.0  0.3327555743873915  0.8050334255787134  0.11156039221906157  1.0000
  H   H20       1.0  0.8327364376433694  0.19496428003957075  0.3884462689867973  1.0000
  H   H21       1.0  0.011194523072852298  0.7821142142780529  0.9573414293665152  1.0000
  H   H22       1.0  0.5111836948731394  0.21787906380468772  0.542655513201602  1.0000
  H   H23       1.0  0.9888218487045535  0.21787557491310847  0.0426599426934189  1.0000
  H   H24       1.0  0.48880806018510736  0.7821182889864173  0.4573422644250015  1.0000
  H   H25       1.0  0.9981770731729044  0.001064327714892993  0.8999559967705437  1.0000
  H   H26       1.0  0.49817825218123357  0.9989289631440882  0.6000419003860884  1.0000
  H   H27       1.0  0.0018310930277536002  0.9989299341996086  0.10004613859819497  1.0000
  H   H28       1.0  0.5018151439891981  0.001068389642021796  0.3999558772409131  1.0000
  C   C1        1.0  0.7112195738202304  0.6325118015345766  0.0534395666311553  1.0000
  C   C2        1.0  0.21119090108339833  0.36748077510704036  0.4465617865589664  1.0000
  C   C3        1.0  0.28880008022589726  0.3674660367492776  0.946560827893329  1.0000
  C   C4        1.0  0.7887860839400604  0.6325254520207009  0.5534406915630399  1.0000
  C   C5        1.0  0.6070426261248941  0.8217771040088949  0.0257607031006586  1.0000
  C   C6        1.0  0.1070089632879956  0.1782161494323873  0.474238695678089  1.0000
  C   C7        1.0  0.3929852334575514  0.17820816978591128  0.9742418099777268  1.0000
  C   C8        1.0  0.8929696628538509  0.8217871432948199  0.525761157652191  1.0000
  C   C9        1.0  0.6938736560925207  0.9277393876120427  0.9586499245186673  1.0000
  C   C10       1.0  0.19386208580673528  0.07225725120981248  0.5413478691842002  1.0000
  C   C11       1.0  0.30614763896439  0.07226535796205269  0.04135187599341349  1.0000
  C   C12       1.0  0.8061231047597278  0.9277520382775891  0.4586515207525608  1.0000
  C   C13       1.0  0.5849758808985968  0.10199293301602808  0.9335061362234498  1.0000
  C   C14       1.0  0.08496786265280322  0.8980073457105462  0.5664923255926411  1.0000
  C   C15       1.0  0.4150486964169176  0.8980028387093314  0.0664954072188451  1.0000
  C   C16       1.0  0.9150189690354652  0.1020004054690347  0.433508925825862  1.0000
  C   C17       1.0  0.9058562685797044  0.866881681971165  0.9157994939073858  1.0000
  C   C18       1.0  0.40585096016368993  0.1331136238378363  0.584200306035413  1.0000
  C   C19       1.0  0.09416010318058449  0.13311259413937648  0.08420200668783909  1.0000
  C   C20       1.0  0.5941457182148185  0.8668896403924008  0.4158008168501723  1.0000
  O   O1        1.0  0.7339332007939492  0.8245834034532676  0.7537537143179094  1.0000
  O   O2        1.0  0.23394133140413234  0.17541747838696156  0.7462442271838582  1.0000
  O   O3        1.0  0.26606675981333444  0.17541837934820134  0.2462467309478882  1.0000
  O   O4        1.0  0.7660701169801456  0.8245858284613589  0.2537549913788339  1.0000
  O   O5        1.0  0.785611549910911  0.5143798844151987  0.8384000169398789  1.0000
  O   O6        1.0  0.285610381161881  0.4856177058304495  0.6615972289386747  1.0000
  O   O7        1.0  0.21438841070158793  0.4856218415022298  0.16160296742784644  1.0000
  O   O8        1.0  0.714384656087816  0.5143886065684099  0.3384014405347813  1.0000
  O   O9        1.0  0.12383388658498261  0.6966875176927304  0.7828721465258751  1.0000
  O   O10       1.0  0.6238345712300061  0.30331423343498903  0.7171168551864042  1.0000
  O   O11       1.0  0.876164432922991  0.30330695756689596  0.2171204672082609  1.0000
  O   O12       1.0  0.37616538927261445  0.6967087585227674  0.2828721291765603  1.0000
