data_image0
_chemical_formula_structural       Sm4H48C36N4O40
_chemical_formula_sum              "Sm4 H48 C36 N4 O40"
_cell_length_a       7.263723023766105
_cell_length_b       11.660846610508854
_cell_length_c       18.622515074096896
_cell_angle_alpha    99.45343329442416
_cell_angle_beta     90.00019047810183
_cell_angle_gamma    89.99747862983993

_space_group_name_H-M_alt    "P 1"
_space_group_IT_number       1

loop_
  _space_group_symop_operation_xyz
  'x, y, z'

loop_
  _atom_site_type_symbol
  _atom_site_label
  _atom_site_symmetry_multiplicity
  _atom_site_fract_x
  _atom_site_fract_y
  _atom_site_fract_z
  _atom_site_occupancy
  Sm  Sm1       1.0  0.2637812198910082  0.30451232874165873  0.3677520876107466  1.0000
  Sm  Sm2       1.0  0.7638099693030751  0.19547676205647246  0.13224327114467377  1.0000
  Sm  Sm3       1.0  0.7362122447225873  0.6954885700789505  0.632247742472565  1.0000
  Sm  Sm4       1.0  0.2361917554497808  0.8045267782157737  0.8677578729330054  1.0000
  H   H1        1.0  0.9979339081333409  0.1307537085959822  0.27914093698164083  1.0000
  H   H2        1.0  0.49794468537949393  0.3692378411557585  0.22086344660963428  1.0000
  H   H3        1.0  0.0020499196206885  0.8692455537282128  0.7208619670399374  1.0000
  H   H4        1.0  0.5020694295652319  0.6307700789342974  0.7791391692904883  1.0000
  H   H5        1.0  0.1578657171614921  0.0683757827289284  0.31895723491539496  1.0000
  H   H6        1.0  0.6578575361328093  0.4316287083393107  0.18104855830716107  1.0000
  H   H7        1.0  0.842123617254721  0.9316277916465125  0.6810449864263506  1.0000
  H   H8        1.0  0.3421565786920766  0.5683827055633445  0.8189549118828199  1.0000
  H   H9        1.0  0.8544713702716963  0.4220144226200233  0.363417921370342  1.0000
  H   H10       1.0  0.3544786055417148  0.07799885711265381  0.13657219491682332  1.0000
  H   H11       1.0  0.1455331079454751  0.5779873282938226  0.6365814489927291  1.0000
  H   H12       1.0  0.6455313795274334  0.9220020584440219  0.8634281737799798  1.0000
  H   H13       1.0  0.9258695917607015  0.34692141378005914  0.28987314908664535  1.0000
  H   H14       1.0  0.42590246047738134  0.1530743550703235  0.21011920049325286  1.0000
  H   H15       1.0  0.0741224963953897  0.6530725652966396  0.7101271269259686  1.0000
  H   H16       1.0  0.5741061480557762  0.846922367136543  0.7898856212688233  1.0000
  H   H17       1.0  0.2785031725996348  0.5469027750267871  0.32230331818836094  1.0000
  H   H18       1.0  0.7785319888030173  0.9531022290833491  0.17768844277664197  1.0000
  H   H19       1.0  0.7215013057142556  0.4530964191483874  0.6776974313084596  1.0000
  H   H20       1.0  0.22146698269661166  0.0468969990994097  0.8223133839786245  1.0000
  H   H21       1.0  0.28257902809207297  0.5739965106528685  0.409557866451806  1.0000
  H   H22       1.0  0.7826103547052979  0.925986802589172  0.09043676260506574  1.0000
  H   H23       1.0  0.7174144366754194  0.426000059074461  0.590442107679877  1.0000
  H   H24       1.0  0.21739825379197703  0.0740107379328236  0.90956652219181  1.0000
  H   H25       1.0  0.18523709733467086  0.4872367106216443  0.4972780332533021  1.0000
  H   H26       1.0  0.6852376937941785  0.0127443186368339  0.0027224316944583007  1.0000
  H   H27       1.0  0.8147660043124532  0.5127616822230648  0.5027247918368191  1.0000
  H   H28       1.0  0.3147736680779758  0.9872540571275935  0.9972798547619423  1.0000
  H   H29       1.0  0.0366792119042856  0.38385665590110557  0.4998680523698484  1.0000
  H   H30       1.0  0.5367096357682897  0.11615084496771996  0.00012662755037949884  1.0000
  H   H31       1.0  0.9633211362049325  0.6161451459667405  0.5001329338775095  1.0000
  H   H32       1.0  0.4632975959867879  0.8838474969229965  0.999874581655448  1.0000
  H   H33       1.0  0.2607865120062272  0.8297855985524051  0.439294730934428  1.0000
  H   H34       1.0  0.7607751061000416  0.670194313940712  0.06071031170501585  1.0000
  H   H35       1.0  0.7392317333305557  0.17021339184502443  0.5606995550274763  1.0000
  H   H36       1.0  0.23924451610240996  0.3298004152064991  0.9392862728120266  1.0000
  H   H37       1.0  0.18559589828689843  0.21073614377578312  0.6542839922662511  1.0000
  H   H38       1.0  0.6855359503410768  0.28926132500408386  0.8457137316632741  1.0000
  H   H39       1.0  0.8143851758033309  0.7892688128615148  0.3457070757472423  1.0000
  H   H40       1.0  0.31446026787672576  0.7107344772664984  0.15428939531227573  1.0000
  H   H41       1.0  0.0764048645221678  0.21309489601265605  0.5680373452938526  1.0000
  H   H42       1.0  0.5763568736918359  0.2868960616111238  0.9319602274871673  1.0000
  H   H43       1.0  0.9235803401127783  0.7868979424991949  0.4319542337770914  1.0000
  H   H44       1.0  0.42365035803648243  0.7131031834224404  0.06804213788832678  1.0000
  H   H45       1.0  0.3128680869692175  0.24002457511836892  0.5765224722518669  1.0000
  H   H46       1.0  0.8128205496739369  0.2599666823155217  0.9234726525790083  1.0000
  H   H47       1.0  0.6871116108691169  0.7599673094304933  0.4234663347729823  1.0000
  H   H48       1.0  0.18717704517657555  0.740030756566206  0.07652740046502522  1.0000
  C   C1        1.0  0.2379582874298407  0.0611944643320825  0.5759312538373609  1.0000
  C   C2        1.0  0.7378746900256489  0.43880439527949017  0.9240741621293156  1.0000
  C   C3        1.0  0.7620241638089098  0.9387984929768223  0.4240640956246439  1.0000
  C   C4        1.0  0.2621242815615759  0.561192191336886  0.07592635062484024  1.0000
  C   C5        1.0  0.24318929256679667  0.9987253115114073  0.5039265715593262  1.0000
  C   C6        1.0  0.7431166702707088  0.5012655396837573  0.9960779001091499  1.0000
  C   C7        1.0  0.75680967904173  0.0012703210654905093  0.4960711691442443  1.0000
  C   C8        1.0  0.256883677838509  0.49873626218408873  0.003923086138215119  1.0000
  C   C9        1.0  0.2649743549199925  0.8783003008703572  0.49454161741547165  1.0000
  C   C10       1.0  0.764932845253888  0.621692381187401  0.005459754502936698  1.0000
  C   C11       1.0  0.7350315001446219  0.12169701913782659  0.5054546652330033  1.0000
  C   C12       1.0  0.23507851654468231  0.37830761424175563  0.9945389193960924  1.0000
  C   C13       1.0  0.2963902741233113  0.8215180087426431  0.5537298883896613  1.0000
  C   C14       1.0  0.7963721160037024  0.6784661993759116  0.9462756387445741  1.0000
  C   C15       1.0  0.7036210877415598  0.17848029915961663  0.4462702435588428  1.0000
  C   C16       1.0  0.2036364923950273  0.3215338809192119  0.05372572829157462  1.0000
  C   C17       1.0  0.298773924750698  0.8918246702225757  0.6227577452881123  1.0000
  C   C18       1.0  0.7987628763794561  0.6081629314598871  0.8772475549837683  1.0000
  C   C19       1.0  0.7012222933022657  0.10817535934801731  0.3772420058772284  1.0000
  C   C20       1.0  0.2012360953026686  0.39183108145228124  0.12275379827717366  1.0000
  C   C21       1.0  0.2011146228277951  0.18876436496965712  0.5951479936428472  1.0000
  C   C22       1.0  0.7010646650603289  0.31123512750000515  0.9048450940410934  1.0000
  C   C23       1.0  0.7988623212724875  0.8112371318434909  0.4048432973381041  1.0000
  C   C24       1.0  0.2989370598482494  0.6887641006445051  0.09515673271192784  1.0000
  C   C25       1.0  0.22730639888632  0.052608717369956495  0.4359485515252502  1.0000
  C   C26       1.0  0.7272726447310377  0.44739207260688835  0.06405589323726706  1.0000
  C   C27       1.0  0.7726980793880358  0.9473912611892744  0.5640495837524285  1.0000
  C   C28       1.0  0.2727277032565141  0.5526132061080063  0.9359454086729857  1.0000
  C   C29       1.0  0.32036459332185524  0.6922925936972036  0.541054401580148  1.0000
  C   C30       1.0  0.8203360233868081  0.8076919534851825  0.9589554743444143  1.0000
  C   C31       1.0  0.6796371314328342  0.30771096354058614  0.45894728112450894  1.0000
  C   C32       1.0  0.17967533847988196  0.19230637138262102  0.041045196231067414  1.0000
  C   C33       1.0  0.34499309166600517  0.8493001095267161  0.6928795765399091  1.0000
  C   C34       1.0  0.8449907917512505  0.6506879973660631  0.8071274219620225  1.0000
  C   C35       1.0  0.6550017494263971  0.15070675499831757  0.3071170355635149  1.0000
  C   C36       1.0  0.15501781666877432  0.3493111288895747  0.19287117302353354  1.0000
  N   N1        1.0  0.263633286499882  0.005940751693735504  0.6332630249799538  1.0000
  N   N2        1.0  0.7636127197713307  0.494053883001669  0.8667409560915619  1.0000
  N   N3        1.0  0.7363395275964493  0.9940583071969229  0.36673341552694455  1.0000
  N   N4        1.0  0.23639864220972842  0.5059408971569042  0.13325724431314265  1.0000
  O   O1        1.0  0.2442800149715296  0.16376742788663992  0.44295240817989173  1.0000
  O   O2        1.0  0.7441948699612341  0.3362214897234921  0.057047751240716635  1.0000
  O   O3        1.0  0.7557382303993093  0.8362307272301164  0.5570428761202352  1.0000
  O   O4        1.0  0.2557834508514034  0.6637812325587049  0.9429549298212695  1.0000
  O   O5        1.0  0.2016994402453562  0.9856042040868402  0.37637490673050444  1.0000
  O   O6        1.0  0.7016528240725605  0.5143928265159303  0.12362626663919235  1.0000
  O   O7        1.0  0.7982885174499686  0.014399217617828704  0.6236224669696002  1.0000
  O   O8        1.0  0.2983475235822511  0.48562203049392133  0.876376441970969  1.0000
  O   O9        1.0  0.20863314551316847  0.6331761920305539  0.49544917842513325  1.0000
  O   O10       1.0  0.7086018071959828  0.8668086464294334  0.004556265059093836  1.0000
  O   O11       1.0  0.7913754628977471  0.36682284939737286  0.5045467234255627  1.0000
  O   O12       1.0  0.2914054246412263  0.13318700299827668  0.9954420142647041  1.0000
  O   O13       1.0  0.4444831861496965  0.6456128825645565  0.5740053618935976  1.0000
  O   O14       1.0  0.9444523915045266  0.8543691197237067  0.9260054675187637  1.0000
  O   O15       1.0  0.5554923813853421  0.3543876053625468  0.42600893221688113  1.0000
  O   O16       1.0  0.0555562169136792  0.1456299895663875  0.07399258883982181  1.0000
  O   O17       1.0  0.5070959026177208  0.8116224994200608  0.699962703057871  1.0000
  O   O18       1.0  0.0071119383268368015  0.6883571648387702  0.8000566556540039  1.0000
  O   O19       1.0  0.4928989385714004  0.1883818083663087  0.3000352881793163  1.0000
  O   O20       1.0  0.9928994234145491  0.3116446029450088  0.19994325333041735  1.0000
  O   O21       1.0  0.2276563882066966  0.8609049435969071  0.7439622134485478  1.0000
  O   O22       1.0  0.7276751003800968  0.6390923544605441  0.7560406814124934  1.0000
  O   O23       1.0  0.7723412066292284  0.1390923595604718  0.2560335305796926  1.0000
  O   O24       1.0  0.27232524778812467  0.36090769201822337  0.24395960837644995  1.0000
  O   O25       1.0  0.1306870593809535  0.13586624469921563  0.2917933633990871  1.0000
  O   O26       1.0  0.6307100590074199  0.3641260476219728  0.2082139835793627  1.0000
  O   O27       1.0  0.8692926380826264  0.8641382838495631  0.7082116300011096  1.0000
  O   O28       1.0  0.3693123160838638  0.6358845817818948  0.7917921008230098  1.0000
  O   O29       1.0  0.9432598059695395  0.36272279107353017  0.34378972481385284  1.0000
  O   O30       1.0  0.4432988153611532  0.1372620640427513  0.15620164937443096  1.0000
  O   O31       1.0  0.056728152168005905  0.63726861435633  0.6562113917089152  1.0000
  O   O32       1.0  0.5567015326945182  0.86274154411079  0.8438016492122674  1.0000
  O   O33       1.0  0.3138430751465862  0.5164145123991943  0.3658686980429594  1.0000
  O   O34       1.0  0.8139354234275161  0.9835634157523148  0.1341200990620593  1.0000
  O   O35       1.0  0.6861517662967955  0.4835829434863115  0.6341318936302971  1.0000
  O   O36       1.0  0.18606767818737072  0.016435829338611506  0.8658822663168096  1.0000
  O   O37       1.0  0.16465422611736363  0.4014619522209769  0.4871402439445235  1.0000
  O   O38       1.0  0.664686011686875  0.09852535964569141  0.01284895720591091  1.0000
  O   O39       1.0  0.8353433687422651  0.5985355714884619  0.51286250223437  1.0000
  O   O40       1.0  0.33532122004326237  0.9014739023534162  0.9871539467965607  1.0000
