data_image0
_chemical_formula_structural       Cd4H16C8N16Cl8
_chemical_formula_sum              "Cd4 H16 C8 N16 Cl8"
_cell_length_a       6.851731762182076
_cell_length_b       9.005749651201745
_cell_length_c       10.699010660389968
_cell_angle_alpha    90.00017456636738
_cell_angle_beta     98.85551585757217
_cell_angle_gamma    90.00071092792378

_space_group_name_H-M_alt    "P 1"
_space_group_IT_number       1

loop_
  _space_group_symop_operation_xyz
  'x, y, z'

loop_
  _atom_site_type_symbol
  _atom_site_label
  _atom_site_symmetry_multiplicity
  _atom_site_fract_x
  _atom_site_fract_y
  _atom_site_fract_z
  _atom_site_occupancy
  Cd  Cd1       1.0  0.7471104329531214  0.09465613421374292  0.4733236118823781  1.0000
  Cd  Cd2       1.0  0.752893765933642  0.5946559306088233  0.026678072434535197  1.0000
  Cd  Cd3       1.0  0.252887601037351  0.9053448763518971  0.5266754450332768  1.0000
  Cd  Cd4       1.0  0.2471087262161333  0.40534285917186724  0.973319580449903  1.0000
  H   H1        1.0  0.6638126814450942  0.39379445224341947  0.3713759016945488  1.0000
  H   H2        1.0  0.8361819875331092  0.8937909610873052  0.12862178876400773  1.0000
  H   H3        1.0  0.33618383487416287  0.606205447918093  0.6286258009073435  1.0000
  H   H4        1.0  0.16382192746240776  0.10620671830537991  0.871379751468808  1.0000
  H   H5        1.0  0.6355357823273949  0.5838951417015822  0.3972254154979068  1.0000
  H   H6        1.0  0.8644564949467151  0.0838873438930037  0.10276938948364024  1.0000
  H   H7        1.0  0.3644548936276806  0.4161092000297586  0.602771003915187  1.0000
  H   H8        1.0  0.1355444524635985  0.9161125562902585  0.8972327756744602  1.0000
  H   H9        1.0  0.7714826175225582  0.6925778039132312  0.5861328967529714  1.0000
  H   H10       1.0  0.7285142121333906  0.19256540312813544  0.9138691114038692  1.0000
  H   H11       1.0  0.22851097191011144  0.30743208984611675  0.41386663091682846  1.0000
  H   H12       1.0  0.27148676234516234  0.8074322762484201  0.08613118716679938  1.0000
  H   H13       1.0  0.8977197351930213  0.5880132006978229  0.7089467477201479  1.0000
  H   H14       1.0  0.6022811897993279  0.0880102691971771  0.7910554293628421  1.0000
  H   H15       1.0  0.1022782310883414  0.41198892027764344  0.2910569756545697  1.0000
  H   H16       1.0  0.3977242022072858  0.9119851893992958  0.20894626505062056  1.0000
  C   C1        1.0  0.9739051975272803  0.31993257339582476  0.693277455450584  1.0000
  C   C2        1.0  0.526082023968641  0.8199312386454453  0.8067238646896014  1.0000
  C   C3        1.0  0.026088337672646796  0.6800706579596111  0.30672580537030564  1.0000
  C   C4        1.0  0.473932203209614  0.18007310321161193  0.19328062143798513  1.0000
  C   C5        1.0  0.7940596610182313  0.47173225721495987  0.5451948058263625  1.0000
  C   C6        1.0  0.7059346775489602  0.9717320440933437  0.9548038938441435  1.0000
  C   C7        1.0  0.20593535115429523  0.5282643117373456  0.4548086091656599  1.0000
  C   C8        1.0  0.29407221859475635  0.028265635310603394  0.04519608817680168  1.0000
  N   N1        1.0  0.8674003210866273  0.3353064941923521  0.5830303395099248  1.0000
  N   N2        1.0  0.632590161607439  0.8353010105817662  0.9169685549625438  1.0000
  N   N3        1.0  0.13259175061706693  0.66469562675249  0.4169718338318446  1.0000
  N   N4        1.0  0.36741970212148084  0.16469444803159658  0.08303080213311627  1.0000
  N   N5        1.0  0.0729661676733713  0.29604042548933757  0.7916179874847697  1.0000
  N   N6        1.0  0.4270120713751382  0.7960380795806188  0.7083711406570571  1.0000
  N   N7        1.0  0.9270245082335719  0.7039583642333442  0.20837843191643654  1.0000
  N   N8        1.0  0.5729992965486375  0.20396626225060294  0.2916265040603604  1.0000
  N   N9        1.0  0.6958342321202904  0.4845178583418035  0.42811747533438177  1.0000
  N   N10       1.0  0.804162023276227  0.9845116394219321  0.07187967038279908  1.0000
  N   N11       1.0  0.3041607936441154  0.5154842626175408  0.5718850063781956  1.0000
  N   N12       1.0  0.1958419052630376  0.015486039969133  0.9281209365586701  1.0000
  N   N13       1.0  0.819192726674622  0.590907486305575  0.6196581320310556  1.0000
  N   N14       1.0  0.6807994134017648  0.09090450776582061  0.8803412657525627  1.0000
  N   N15       1.0  0.18080083559354423  0.40909352424316847  0.3803432622024018  1.0000
  N   N16       1.0  0.3192045422346155  0.9090942820237374  0.11965747460861556  1.0000
  Cl  Cl1       1.0  0.0435468121581053  0.05786608967309091  0.34884918702542916  1.0000
  Cl  Cl2       1.0  0.4564495900268285  0.5578704775918056  0.15114507070730804  1.0000
  Cl  Cl3       1.0  0.9564468448970445  0.9421327000608529  0.6511456741639066  1.0000
  Cl  Cl4       1.0  0.5435528750258314  0.4421272017903846  0.8488544487574285  1.0000
  Cl  Cl5       1.0  0.5535343323759746  0.8428071404156654  0.4051081022686559  1.0000
  Cl  Cl6       1.0  0.9464684231407716  0.3428023091857071  0.09488282859714299  1.0000
  Cl  Cl7       1.0  0.44646670984057113  0.1571927597562636  0.5948875298500835  1.0000
  Cl  Cl8       1.0  0.0535369959822134  0.6571964806127184  0.9051169992407748  1.0000
