data_image0
_chemical_formula_structural       Zn2H36C56N8O24
_chemical_formula_sum              "Zn2 H36 C56 N8 O24"
_cell_length_a       9.740582974533822
_cell_length_b       11.8939835357003
_cell_length_c       13.16
_cell_angle_alpha    113.87292351581468
_cell_angle_beta     93.41818660694457
_cell_angle_gamma    108.24160520107493

_space_group_name_H-M_alt    "P 1"
_space_group_IT_number       1

loop_
  _space_group_symop_operation_xyz
  'x, y, z'

loop_
  _atom_site_type_symbol
  _atom_site_label
  _atom_site_symmetry_multiplicity
  _atom_site_fract_x
  _atom_site_fract_y
  _atom_site_fract_z
  _atom_site_occupancy
  Zn  Zn1       1.0  0.6280669161368451  0.9873382143522064  0.6023273867676053  1.0000
  Zn  Zn2       1.0  0.3719323873913893  0.0126611377006896  0.3976718135781567  1.0000
  H   H1        1.0  0.529224066794491  0.827345045829972  0.834825193504514  1.0000
  H   H2        1.0  0.4707750258186962  0.1726562849894648  0.1651747213180172  1.0000
  H   H3        1.0  0.48118902045825973  0.6577202311784731  0.6566075310052426  1.0000
  H   H4        1.0  0.518813566315373  0.3422820890242306  0.34339365978912884  1.0000
  H   H5        1.0  0.1687982944772628  0.8554534245184726  0.9911542241171389  1.0000
  H   H6        1.0  0.8312020375132504  0.1445459275344305  0.0088427419805086  1.0000
  H   H7        1.0  0.30729100465140397  0.9988595825263501  0.9076369557478612  1.0000
  H   H8        1.0  0.6927076791881674  0.0011407589098126998  0.09236029950745459  1.0000
  H   H9        1.0  0.1645195982815082  0.0478574581323912  0.7750466768861486  1.0000
  H   H10       1.0  0.8354794943316719  0.9521438726870456  0.2249509583011289  1.0000
  H   H11       1.0  0.7945064422501388  0.5560601108468433  0.6050552379929073  1.0000
  H   H12       1.0  0.20549511606122192  0.4439422093558605  0.39494666729272865  1.0000
  H   H13       1.0  0.7816176289365515  0.6661497766352156  0.48082447236161124  1.0000
  H   H14       1.0  0.2183835206011935  0.3338515541842213  0.5191770529920632  1.0000
  H   H15       1.0  0.018015489063003567  0.8022058063334612  0.4529374659968752  1.0000
  H   H16       1.0  0.9819852517011256  0.1977945351027088  0.5470629195464198  1.0000
  H   H17       1.0  0.8271958689211374  0.9361593965838679  0.4283154080155995  1.0000
  H   H18       1.0  0.1728005601353146  0.06383797670249439  0.5716814219350965  1.0000
  H   H19       1.0  0.832525945303594  0.7582484970497134  0.251529100456743  1.0000
  H   H20       1.0  0.1674704837528509  0.2417488762366418  0.7484700091292139  1.0000
  H   H21       1.0  0.4028378999451334  0.5149393633969623  0.26480246140761204  1.0000
  H   H22       1.0  0.5971605860358692  0.48505800988939274  0.735199778466324  1.0000
  H   H23       1.0  0.4195199779732661  0.7030686133392337  0.4456876308302639  1.0000
  H   H24       1.0  0.5804782970926894  0.2969307387136624  0.5543122840067625  1.0000
  H   H25       1.0  0.496438161713833  0.4219205165417605  0.10804056860009581  1.0000
  H   H26       1.0  0.5035603242671769  0.5780768567445946  0.8919593916385792  1.0000
  H   H27       1.0  0.8086023610920776  0.5757696149599596  0.0933227336601661  1.0000
  H   H28       1.0  0.19139591397387787  0.4242297370929363  0.9066779410552783  1.0000
  H   H29       1.0  0.8469676693237602  0.2716856352073052  0.7402497967776396  1.0000
  H   H30       1.0  0.15303409990264777  0.7283147062288647  0.2597498742743837  1.0000
  H   H31       1.0  0.8856731184078585  0.4693683700005451  0.922310280349066  1.0000
  H   H32       1.0  0.1143272135826621  0.5306309820523509  0.07769048514067828  1.0000
  H   H33       1.0  0.4756974876106099  0.24364057704806186  0.9748684408963015  1.0000
  H   H34       1.0  0.5243034640685735  0.7563577856215673  0.025131230170217116  1.0000
  H   H35       1.0  0.45697411987048037  0.055900154730729  0.7915148941291504  1.0000
  H   H36       1.0  0.5430284799596521  0.9440972185556262  0.2084860075365427  1.0000
  C   C1        1.0  0.9535842904525609  0.9328578246133077  0.7855220568287179  1.0000
  C   C2        1.0  0.04641501307567351  0.0671415274395883  0.21447562376020807  1.0000
  C   C3        1.0  0.8737701089767214  0.8510101042548256  0.8316500108861504  1.0000
  C   C4        1.0  0.12623125147607078  0.1489892477980703  0.16834852035549366  1.0000
  C   C5        1.0  0.9566428554846595  0.825495888499148  0.9053129407911981  1.0000
  C   C6        1.0  0.043358913741748495  0.17450445293702188  0.09468597038240739  1.0000
  C   C7        1.0  0.11103778555784771  0.8778243696267224  0.9329361145714044  1.0000
  C   C8        1.0  0.8889633639798973  0.12217696119270727  0.06706161139017298  1.0000
  C   C9        1.0  0.1872577574727572  0.9582463886937588  0.8863081484883041  1.0000
  C   C10       1.0  0.8127405175931983  0.04175296335914419  0.1136864471997967  1.0000
  C   C11       1.0  0.1085440753009266  0.9848657455615495  0.8130065525572333  1.0000
  C   C12       1.0  0.8914543976235907  0.015136574641154298  0.18699217705327703  1.0000
  C   C13       1.0  0.8766317628720941  0.9692908741319711  0.7071423519614796  1.0000
  C   C14       1.0  0.1233685691184263  0.0307084779209248  0.2928576536498539  1.0000
  C   C15       1.0  0.7063872693699125  0.7929441895470076  0.7987004176939719  1.0000
  C   C16       1.0  0.2936149086301114  0.207057141272422  0.2013003931684381  1.0000
  C   C17       1.0  0.15747116958323912  0.764992133415106  0.5576281152847286  1.0000
  C   C18       1.0  0.8425310084167847  0.2350091974043309  0.44237193569925637  1.0000
  C   C19       1.0  0.1663257647229841  0.7000935378476356  0.6252486350517473  1.0000
  C   C20       1.0  0.8336760045034238  0.2999068035885273  0.37475027612185124  1.0000
  C   C21       1.0  0.032034348290345294  0.6259610282252623  0.6400209302004712  1.0000
  C   C22       1.0  0.9679668012473996  0.3740403025941673  0.35997983527478533  1.0000
  C   C23       1.0  0.8946320931345753  0.6140765563911826  0.5900186042573239  1.0000
  C   C24       1.0  0.10536905640316968  0.385924774428247  0.4099829210963506  1.0000
  C   C25       1.0  0.888398490843109  0.6763028277475484  0.5213273139515734  1.0000
  C   C26       1.0  0.11160203900597308  0.3236994924551553  0.4786753058253339  1.0000
  C   C27       1.0  0.0192308867890531  0.7513297398456087  0.5055528474410949  1.0000
  C   C28       1.0  0.9807696430600217  0.2486725803570948  0.4944490124573946  1.0000
  C   C29       1.0  0.2932395456792989  0.8531194693855538  0.5399480218492769  1.0000
  C   C30       1.0  0.70676057539616  0.1468818614338829  0.460051938360408  1.0000
  C   C31       1.0  0.314263934617415  0.7143396675461844  0.6824585586934404  1.0000
  C   C32       1.0  0.6857382433826089  0.2856616632732525  0.3175414922905446  1.0000
  C   C33       1.0  0.7339356023257366  0.8418306062797569  0.38911372728858856  1.0000
  C   C34       1.0  0.2660618551929872  0.15816676700660537  0.6108846678060971  1.0000
  C   C35       1.0  0.7360130155270069  0.7400794626873264  0.2890139073852538  1.0000
  C   C36       1.0  0.26398403321810804  0.2599169212157619  0.7109848676558882  1.0000
  C   C37       1.0  0.6149574722261093  0.6183388195164952  0.23946173743864557  1.0000
  C   C38       1.0  0.3850399852926145  0.38165855376985997  0.760538937291301  1.0000
  C   C39       1.0  0.4987860305383122  0.6068995701537219  0.29780350266824474  1.0000
  C   C40       1.0  0.5012114269804187  0.3930978031326333  0.7021971720617017  1.0000
  C   C41       1.0  0.5066899292601335  0.7124370835188002  0.3984172204779242  1.0000
  C   C42       1.0  0.4933089654944922  0.2875612791508289  0.6015831196927124  1.0000
  C   C43       1.0  0.6015538832504532  0.5046527455432397  0.13449710746009197  1.0000
  C   C44       1.0  0.3984472793437845  0.4953436383598486  0.8655064084001652  1.0000
  C   C45       1.0  0.7038348333025085  0.49328769992568056  0.07002859085309861  1.0000
  C   C46       1.0  0.2961630329898313  0.5067106627439415  0.9299709440519663  1.0000
  C   C47       1.0  0.7680721553094402  0.2697810724133802  0.795312291314282  1.0000
  C   C48       1.0  0.23193002269058377  0.7302202584060566  0.20468851954812806  1.0000
  C   C49       1.0  0.788856824104947  0.37956600815471825  0.8972562619173984  1.0000
  C   C50       1.0  0.2111435078855664  0.6204333438981777  0.102746023329189  1.0000
  C   C51       1.0  0.6834433512153311  0.37582416062920737  0.9654916538044558  1.0000
  C   C52       1.0  0.3165563610865192  0.6241761808069626  0.03450944623011054  1.0000
  C   C53       1.0  0.5614725930365552  0.2555201019657929  0.9263926472247874  1.0000
  C   C54       1.0  0.4385279498690125  0.7444772713205623  0.07360740378818777  1.0000
  C   C55       1.0  0.54955744737034  0.1502309238013808  0.8241676677492221  1.0000
  C   C56       1.0  0.4504441239975137  0.8497664494849814  0.1758324286509065  1.0000
  N   N1        1.0  0.8831509138773725  0.7438529704774695  0.9593366071437756  1.0000
  N   N2        1.0  0.1168500247453181  0.2561503391085083  0.040664112929839305  1.0000
  N   N3        1.0  0.0313425725355927  0.5545077684968901  0.7084791565074012  1.0000
  N   N4        1.0  0.968658366087098  0.4454955410890875  0.2915230833230495  1.0000
  N   N5        1.0  0.6207278293492493  0.8297482577917634  0.44368007974958346  1.0000
  N   N6        1.0  0.37926900848081146  0.1702501048778657  0.5563178900114991  1.0000
  N   N7        1.0  0.6496641453644613  0.1564323781350438  0.7579275337562664  1.0000
  N   N8        1.0  0.3503382435506168  0.8435669739178521  0.2420725626293674  1.0000
  O   O1        1.0  0.9515950589787394  0.0383247503300765  0.6647981329190457  1.0000
  O   O2        1.0  0.048403624860831884  0.9616755911060864  0.3352014019715241  1.0000
  O   O3        1.0  0.7345130955834662  0.9242412857186223  0.691351424378567  1.0000
  O   O4        1.0  0.2654847707088734  0.0757570769510068  0.3086465907696621  1.0000
  O   O5        1.0  0.6402830306273088  0.6857969496023414  0.7127546852024124  1.0000
  O   O6        1.0  0.3597158641273168  0.3142014130672806  0.2872448950898061  1.0000
  O   O7        1.0  0.6414720944090391  0.8635030467996927  0.8687294616268133  1.0000
  O   O8        1.0  0.3585282375814742  0.1364963052532033  0.13126902422767728  1.0000
  O   O9        1.0  0.7456723458451292  0.6940157564226652  0.93515654993746  1.0000
  O   O10       1.0  0.2543271424851739  0.3059915106963871  0.06484859321623301  1.0000
  O   O11       1.0  0.961351018124219  0.729143809408761  0.02733825973871259  1.0000
  O   O12       1.0  0.03864972263991009  0.27085653202740184  0.9726598461693285  1.0000
  O   O13       1.0  0.27455723187140524  0.8781706537710716  0.4567707078362843  1.0000
  O   O14       1.0  0.7254435088927238  0.1218296876650911  0.5432289178285927  1.0000
  O   O15       1.0  0.4144867379295079  0.8943757623433726  0.6095937473385858  1.0000
  O   O16       1.0  0.5855129743723424  0.1056245790927974  0.3904058329391376  1.0000
  O   O17       1.0  0.3780388119750953  0.6408740022475  0.6140667123744166  1.0000
  O   O18       1.0  0.6219643944872075  0.3591273285719367  0.3859333839967221  1.0000
  O   O19       1.0  0.3664967502022947  0.7906785018596949  0.7849973288078331  1.0000
  O   O20       1.0  0.6335029620995556  0.2093218395764751  0.2150014915914724  1.0000
  O   O21       1.0  0.14477641032464558  0.5342442097528206  0.7292092153466568  1.0000
  O   O22       1.0  0.8552278115434503  0.4657620679829648  0.2707927352971423  1.0000
  O   O23       1.0  0.916154156710391  0.5169517689672674  0.7413877993569074  1.0000
  O   O24       1.0  0.08384699282735401  0.4830495618521695  0.25861296611834916  1.0000
