data_image0
_chemical_formula_structural       Cd2H26C38N2Cl4O10
_chemical_formula_sum              "Cd2 H26 C38 N2 Cl4 O10"
_cell_length_a       7.507556771021365
_cell_length_b       9.736875928473264
_cell_length_c       14.349382678220268
_cell_angle_alpha    109.82417956429607
_cell_angle_beta     90.00024812219779
_cell_angle_gamma    90.00003839234218

_space_group_name_H-M_alt    "P 1"
_space_group_IT_number       1

loop_
  _space_group_symop_operation_xyz
  'x, y, z'

loop_
  _atom_site_type_symbol
  _atom_site_label
  _atom_site_symmetry_multiplicity
  _atom_site_fract_x
  _atom_site_fract_y
  _atom_site_fract_z
  _atom_site_occupancy
  Cd  Cd1       1.0  0.4999991072344302  0.5000011351567011  2.502858506348856e-07  1.0000
  Cd  Cd2       1.0  2.2417270879999962e-07  0.5000006816200868  0.99999959304246  1.0000
  H   H1        1.0  0.035048038746310815  0.6017754773890618  0.7265676702442005  1.0000
  H   H2        1.0  0.5350475743067165  0.39821548251619293  0.27342994251648617  1.0000
  H   H3        1.0  0.9649135864405025  0.12521932671579353  0.7263413282145164  1.0000
  H   H4        1.0  0.464926441053379  0.8747800485063452  0.27365428930421115  1.0000
  H   H5        1.0  0.9649504173372279  0.398220239354167  0.27343151013619144  1.0000
  H   H6        1.0  0.46494954978246034  0.6017780507839563  0.7265687366037381  1.0000
  H   H7        1.0  0.03508753362881121  0.8747807559732269  0.27365815757598705  1.0000
  H   H8        1.0  0.5350733470172104  0.12521894057980634  0.7263435516348691  1.0000
  H   H9        1.0  0.0368881733563882  0.6414802641818441  0.5625331300868409  1.0000
  H   H10       1.0  0.5368877315424568  0.3585096064004106  0.4374635397721034  1.0000
  H   H11       1.0  0.9630910847862993  0.9212962659459978  0.5624440142739002  1.0000
  H   H12       1.0  0.46309795466932263  0.07870201612421111  0.4375527420368924  1.0000
  H   H13       1.0  0.9631102827286995  0.3585165442823169  0.43746630092276445  1.0000
  H   H14       1.0  0.46310939255743483  0.6414893864447749  0.5625370896043973  1.0000
  H   H15       1.0  0.03690603931669051  0.07870491034106664  0.4375571163610274  1.0000
  H   H16       1.0  0.5368991694245083  0.9212947923387425  0.5624466889709581  1.0000
  H   H17       1.0  0.7499986543994624  0.14985176694671762  0.8477926857839007  1.0000
  H   H18       1.0  0.2500064616512391  0.8501515918490983  0.15220824900972468  1.0000
  H   H19       1.0  0.25000534605121777  0.6979288258523298  0.8480324572488411  1.0000
  H   H20       1.0  0.749995774031902  0.3020788998236058  0.15196948005637265  1.0000
  H   H21       1.0  0.7499989497507898  0.8845773212056047  0.8397547362762479  1.0000
  H   H22       1.0  0.25001016227213313  0.11542494587290263  0.16024594789341504  1.0000
  H   H23       1.0  0.25000675849716464  0.955056269757556  0.8398136583420805  1.0000
  H   H24       1.0  0.7499983575609973  0.044948182639927815  0.16018892130121995  1.0000
  H   H25       1.0  0.7499980319801339  0.8323635180522759  4.6945720541206946e-05  1.0000
  H   H26       1.0  0.250008416070834  0.16764202606734818  0.9999558845537205  1.0000
  C   C1        1.0  0.7500121235704071  0.5832964878392632  0.8371555642239837  1.0000
  C   C2        1.0  0.24998633251017574  0.4166992279636049  0.16284291904617726  1.0000
  C   C3        1.0  0.24999178054181212  0.25401912849613956  0.837042579450468  1.0000
  C   C4        1.0  0.7500093395276508  0.7459831366943919  0.16295671048822402  1.0000
  C   C5        1.0  0.7500010545729411  0.6035895134737218  0.7375317132246406  1.0000
  C   C6        1.0  0.24999740150904165  0.39640511154856756  0.262467216526545  1.0000
  C   C7        1.0  0.2499899722708179  0.13442836502787261  0.7373017539438461  1.0000
  C   C8        1.0  0.7500084838145683  0.8655728084393036  0.26269728536213677  1.0000
  C   C9        1.0  0.9109107327043378  0.6133500492411204  0.6907196432941516  1.0000
  C   C10       1.0  0.4109101316109119  0.3866426842564439  0.30927920823085486  1.0000
  C   C11       1.0  0.0890718844140679  0.07787398670619441  0.6904763538899699  1.0000
  C   C12       1.0  0.5890801875893247  0.9221268938817321  0.30952156524202207  1.0000
  C   C13       1.0  0.08908772338060801  0.3866445767215368  0.3092799835672649  1.0000
  C   C14       1.0  0.5890883244724776  0.6133508499852739  0.6907201680013484  1.0000
  C   C15       1.0  0.9109292356553881  0.922128278484337  0.3095229360487222  1.0000
  C   C16       1.0  0.41091826849901036  0.07787428052581194  0.6904781711741986  1.0000
  C   C17       1.0  0.9123395832132816  0.6350428791198439  0.5996683796839829  1.0000
  C   C18       1.0  0.41233707035527806  0.36495094586798166  0.4003286348934407  1.0000
  C   C19       1.0  0.0876493299647265  0.9650913442890213  0.5994893076549841  1.0000
  C   C20       1.0  0.5876616046727392  0.03490516589766911  0.40050690811528245  1.0000
  C   C21       1.0  0.0876588728673084  0.364952836683024  0.4003301035861708  1.0000
  C   C22       1.0  0.5876613857329146  0.6350480460380581  0.5996712973745841  1.0000
  C   C23       1.0  0.9123491261250153  0.03490873933794351  0.4005108752422472  1.0000
  C   C24       1.0  0.4123368514064368  0.9650916406857634  0.599491128673854  1.0000
  C   C25       1.0  0.7499963045834264  0.6464529941983344  0.5550619073467329  1.0000
  C   C26       1.0  0.24999948752364531  0.3535449069247179  0.44493847139880655  1.0000
  C   C27       1.0  0.24999753865323981  0.9090128744414445  0.5549227429333782  1.0000
  C   C28       1.0  0.7499982534510254  0.09098720824274416  0.4450767428501193  1.0000
  C   C29       1.0  0.7499975801188229  0.11548266069839032  0.9122442956540407  1.0000
  C   C30       1.0  0.2500048719490593  0.8845163330919945  0.0877570308396968  1.0000
  C   C31       1.0  0.2500083271573957  0.796718158023161  0.9124160293982154  1.0000
  C   C32       1.0  0.7499967888870956  0.20328083388891835  0.08758390287856338  1.0000
  C   C33       1.0  0.7499966270971115  0.9727490791031527  0.9109736805328192  1.0000
  C   C34       1.0  0.2500084889657046  0.027258648457134903  0.08902965099810699  1.0000
  C   C35       1.0  0.25000705283544283  0.9381999218219625  0.9110558726666083  1.0000
  C   C36       1.0  0.7499980632304712  0.06180998918019752  0.08894796012273788  1.0000
  C   C37       1.0  0.7499983234601544  0.9441352249765844  0.999986571356963  1.0000
  C   C38       1.0  0.25000546059617795  0.05586595037615893  1.3862176487603896e-05  1.0000
  N   N1        1.0  0.7499966696438136  0.2274763304084147  0.9998656735332216  1.0000
  N   N2        1.0  0.25000578243492555  0.7725303054285251  0.00013740736498854135  1.0000
  Cl  Cl1       1.0  0.7499971705284666  0.6749482801868397  0.44206814394310356  1.0000
  Cl  Cl2       1.0  0.250002617558593  0.32505398782357287  0.5579332373245335  1.0000
  Cl  Cl3       1.0  0.25000099304389073  0.7671566614384989  0.4421271785537824  1.0000
  Cl  Cl4       1.0  0.7499974630383903  0.23284232858681267  0.5578713594937807  1.0000
  O   O1        1.0  0.5982944812164207  0.5775064201246425  0.8750745483812775  1.0000
  O   O2        1.0  0.09828835386048952  0.4224857518771615  0.12492766393615533  1.0000
  O   O3        1.0  0.40169377754295255  0.2975664659968089  0.8750189369999075  1.0000
  O   O4        1.0  0.9017123076162719  0.7024382569063623  0.12498055590968699  1.0000
  O   O5        1.0  0.40170397486881637  0.4224925708410226  0.12492468677651654  1.0000
  O   O6        1.0  0.9017101022200935  0.5775099639257067  0.8750708193340059  1.0000
  O   O7        1.0  0.5983046785397761  0.7024390715330143  0.12497901349222926  1.0000
  O   O8        1.0  0.09828881245599061  0.29756182672302606  0.8750196269910472  1.0000
  O   O9        1.0  0.74999673039774  0.3636229754275889  0.9997979021186009  1.0000
  O   O10       1.0  0.250001725693707  0.6363803824218267  0.00020233555603256243  1.0000
