data_image0
_chemical_formula_structural       Zn2H14C18N4O11
_chemical_formula_sum              "Zn2 H14 C18 N4 O11"
_cell_length_a       9.942778402926395
_cell_length_b       11.185893029243106
_cell_length_c       14.492107601981614
_cell_angle_alpha    88.30758310374713
_cell_angle_beta     94.21830215634837
_cell_angle_gamma    99.54788350698347

_space_group_name_H-M_alt    "P 1"
_space_group_IT_number       1

loop_
  _space_group_symop_operation_xyz
  'x, y, z'

loop_
  _atom_site_type_symbol
  _atom_site_label
  _atom_site_symmetry_multiplicity
  _atom_site_fract_x
  _atom_site_fract_y
  _atom_site_fract_z
  _atom_site_occupancy
  Zn  Zn1       1.0  0.35523545207307455  0.46690006768123044  0.4921994767192287  1.0000
  Zn  Zn2       1.0  0.6549941234783959  0.5246198415139175  0.5129634513928564  1.0000
  H   H1        1.0  0.7025622048229111  0.9023933884615187  0.5270761459591424  1.0000
  H   H2        1.0  0.752892343645911  0.43695038902795613  0.36426515101182827  1.0000
  H   H3        1.0  0.042400565538407896  0.5671990959579603  0.5841505728558545  1.0000
  H   H4        1.0  0.9886087819599471  0.7155119264212574  0.6769793577195387  1.0000
  H   H5        1.0  0.8140323569251889  0.6847806633074071  0.6356286549740131  1.0000
  H   H6        1.0  0.9392865556967607  0.7584101547690951  0.560478291346328  1.0000
  H   H7        1.0  0.3898579377914472  0.8782418568847203  0.4987186254615209  1.0000
  H   H8        1.0  0.1425559721742218  0.532819561527866  0.4238149426775734  1.0000
  H   H9        1.0  0.7908402662073685  0.0626331377328242  0.5919499585411002  1.0000
  H   H10       1.0  0.34585936454563176  0.14407424259607637  0.4443531196114988  1.0000
  H   H11       1.0  0.9120350594159917  0.26311963042027026  0.5461459824569416  1.0000
  H   H12       1.0  0.1658370116236867  0.19112898189645477  0.5294899209561379  1.0000
  H   H13       1.0  0.07151544547339479  0.16925740404303008  0.6306694642320065  1.0000
  H   H14       1.0  0.1981639252631524  0.3003443829654842  0.6189596582155017  1.0000
  C   C1        1.0  0.5003115495712153  0.7239415409967762  0.5017313592632034  1.0000
  C   C2        1.0  0.523988362911112  0.2675770369003416  0.5021897789920117  1.0000
  C   C3        1.0  0.5067844092542587  0.49596222886987107  0.31897959682720506  1.0000
  C   C4        1.0  0.4960167245096159  0.4809683492540628  0.7803378182525903  1.0000
  C   C5        1.0  0.49811626876586973  0.48006372976560385  0.8651444846551681  1.0000
  C   C6        1.0  0.5016338789594386  0.48061714913588816  0.9577807739175908  1.0000
  C   C7        1.0  0.5057416267276766  0.48271912911500453  0.043090220108730586  1.0000
  C   C8        1.0  0.5090837854899065  0.4863958584984757  0.1356144476959713  1.0000
  C   C9        1.0  0.11811888159972739  0.236952541210087  0.5813278088875647  1.0000
  C   C10       1.0  0.9192257886470401  0.689259484973462  0.6159555302397022  1.0000
  C   C11       1.0  0.5111795654877868  0.49077613945166826  0.22025341901939294  1.0000
  C   C12       1.0  0.6182608508096125  0.0677184893209741  0.5270269537737062  1.0000
  C   C13       1.0  0.5177180384453379  0.13405801459669678  0.4989512843718059  1.0000
  C   C14       1.0  0.6057598797288435  0.9380733043151109  0.5194304954375113  1.0000
  C   C15       1.0  0.49166259458041145  0.8543061087095439  0.5051118282677151  1.0000
  C   C16       1.0  0.034263626996384695  0.4007544246114492  0.4866980463972793  1.0000
  C   C17       1.0  0.9062518469835509  0.4506396045318936  0.45771446431479745  1.0000
  C   C18       1.0  0.4993111627582891  0.4848895541974585  0.6809012502837033  1.0000
  N   N1        1.0  0.15343905944249767  0.45936499893320354  0.4655593489420439  1.0000
  N   N2        1.0  0.863545112309552  0.5287333051831524  0.5085418294573145  1.0000
  N   N3        1.0  0.011968724789298286  0.29987582144578073  0.5387524348402549  1.0000
  N   N4        1.0  0.9407570076450187  0.5688924479311339  0.5900322085418848  1.0000
  O   O1        1.0  0.38892903134154017  0.6503733923847363  0.5107228185677285  1.0000
  O   O2        1.0  0.3948091100380253  0.0754987637453297  0.46215195368567646  1.0000
  O   O3        1.0  0.84150892484881  0.40364083562007375  0.38039542825624295  1.0000
  O   O4        1.0  0.6167776519496613  0.6936987096761342  0.49070693002875027  1.0000
  O   O5        1.0  0.3900897963071727  0.4391575996899562  0.6343483175624269  1.0000
  O   O6        1.0  0.6119320487519386  0.534195183871894  0.6497131126952381  1.0000
  O   O7        1.0  0.41061840795574506  0.301254977923648  0.4713789474598116  1.0000
  O   O8        1.0  0.6311931652116699  0.33679705444685487  0.5317002178188517  1.0000
  O   O9        1.0  0.39461662276453785  0.5068396882023976  0.3503608892083391  1.0000
  O   O10       1.0  0.6185466128133897  0.48914360668290857  0.36834257681287846  1.0000
  O   O11       1.0  0.7442628588797221  0.12623027357137317  0.5639807695451535  1.0000
