data_image0
_chemical_formula_structural       CoH12C8N8O4
_chemical_formula_sum              "Co1 H12 C8 N8 O4"
_cell_length_a       6.404125085588719
_cell_length_b       6.852402213609359
_cell_length_c       8.71502423678627
_cell_angle_alpha    116.20776697286117
_cell_angle_beta     100.24528444670482
_cell_angle_gamma    98.23469336004487

_space_group_name_H-M_alt    "P 1"
_space_group_IT_number       1

loop_
  _space_group_symop_operation_xyz
  'x, y, z'

loop_
  _atom_site_type_symbol
  _atom_site_label
  _atom_site_symmetry_multiplicity
  _atom_site_fract_x
  _atom_site_fract_y
  _atom_site_fract_z
  _atom_site_occupancy
  Co  Co1       1.0  0.9995958786440724  0.471033784654857  0.4866157708417802  1.0000
  H   H1        1.0  0.8490300939703915  0.16447041966977588  0.058798277961940884  1.0000
  H   H2        1.0  0.16091928909894196  0.7879557102291489  0.9118236086067599  1.0000
  H   H3        1.0  0.44443143367659854  0.6367958564791111  0.3989842501357402  1.0000
  H   H4        1.0  0.5423974898770325  0.34768385455392803  0.5889115260473758  1.0000
  H   H5        1.0  0.5682297638325339  0.2961219615421414  0.9958040789391588  1.0000
  H   H6        1.0  0.45340066022431813  0.7183652686961681  0.0028693442398763196  1.0000
  H   H7        1.0  0.6590931886448671  0.5734632409718614  0.18117961783141107  1.0000
  H   H8        1.0  0.34289068251136  0.43989547727597506  0.8190035083065085  1.0000
  H   H9        1.0  0.038595092175640416  0.10727706442112614  0.5191503895263169  1.0000
  H   H10       1.0  0.9971596642318801  0.875682813932137  0.6049079112631474  1.0000
  H   H11       1.0  0.18933564901305996  0.12365895969519869  0.3974453772980624  1.0000
  H   H12       1.0  0.7894636406727925  0.9674483876107657  0.6316913618555162  1.0000
  C   C1        1.0  0.013386611692503388  0.27085777750069445  0.10755554175725732  1.0000
  C   C2        1.0  0.992920943972038  0.6920094118760148  0.8670103882337871  1.0000
  C   C3        1.0  0.3129322205899285  0.5121804304793968  0.2856447129605968  1.0000
  C   C4        1.0  0.6815631777375515  0.4673786685261234  0.6975358390631143  1.0000
  C   C5        1.0  0.5256880375080614  0.4568335512226653  0.06212845354627209  1.0000
  C   C6        1.0  0.4831872627306808  0.5515166486715586  0.9338046150643535  1.0000
  C   C7        1.0  0.5602379209819545  0.1319801002771044  0.2909442206235795  1.0000
  C   C8        1.0  0.41235621865087774  0.8590839864438067  0.6937694790999346  1.0000
  N   N1        1.0  0.3318193945384493  0.41891118189337095  0.11948214445403235  1.0000
  N   N2        1.0  0.6715787234907892  0.5717126653224084  0.8661720356680505  1.0000
  N   N3        1.0  0.1427857607012371  0.2648789608366613  0.0034486978554540302  1.0000
  N   N4        1.0  0.8680555916007009  0.7146416113615643  0.9763959632956586  1.0000
  N   N5        1.0  0.11124733086089117  0.4215141654491815  0.283585888959756  1.0000
  N   N6        1.0  0.885196965622967  0.5406992482776545  0.6922909397245505  1.0000
  N   N7        1.0  0.7333955716402015  0.2609730973532223  0.3377041054231994  1.0000
  N   N8        1.0  0.2420126557043005  0.721271844179384  0.6313664002365442  1.0000
  O   O1        1.0  0.3792222173278574  0.002950513644556509  0.2391436648187195  1.0000
  O   O2        1.0  0.5868119348118768  0.0012366795927790306  0.759729875882762  1.0000
  O   O3        1.0  0.1534642287129415  0.21395344567014257  0.508988367931714  1.0000
  O   O4        1.0  0.87759362341982  0.9155593185409714  0.5461076953978576  1.0000
