data_image0
_chemical_formula_structural       Ag8H16C16O20
_chemical_formula_sum              "Ag8 H16 C16 O20"
_cell_length_a       5.581445861087844
_cell_length_b       10.160861942574938
_cell_length_c       11.02580481200028
_cell_angle_alpha    91.98921320892563
_cell_angle_beta     90.00022498703483
_cell_angle_gamma    89.99938181495789

_space_group_name_H-M_alt    "P 1"
_space_group_IT_number       1

loop_
  _space_group_symop_operation_xyz
  'x, y, z'

loop_
  _atom_site_type_symbol
  _atom_site_label
  _atom_site_symmetry_multiplicity
  _atom_site_fract_x
  _atom_site_fract_y
  _atom_site_fract_z
  _atom_site_occupancy
  Ag  Ag1       1.0  0.49400382250743763  0.0547050664770907  0.8787269224046669  1.0000
  Ag  Ag2       1.0  0.9940005972978198  0.9452915226680288  0.6212675020484895  1.0000
  Ag  Ag3       1.0  0.506001488646632  0.9452949338178057  0.1212692534521693  1.0000
  Ag  Ag4       1.0  0.006011880454522599  0.05470848576072739  0.3787277671436229  1.0000
  Ag  Ag5       1.0  0.7004884922888407  0.5749459287580622  0.029388338616307404  1.0000
  Ag  Ag6       1.0  0.20048860668781288  0.42505343254046574  0.4706071101759973  1.0000
  Ag  Ag7       1.0  0.2995186105535693  0.42505302156757807  0.9706150516027069  1.0000
  Ag  Ag8       1.0  0.799522079416711  0.5749456074742907  0.5293863066617206  1.0000
  H   H1        1.0  0.512112857691946  0.6689016062814517  0.822776688907297  1.0000
  H   H2        1.0  0.012125159350354398  0.331091777219889  0.6772247730712382  1.0000
  H   H3        1.0  0.4878745369928695  0.331098312520119  0.17722855364628742  1.0000
  H   H4        1.0  0.9878801518732703  0.6689032505072986  0.32277664776311354  1.0000
  H   H5        1.0  0.5518429600124009  0.7759293848076608  0.6991150196783238  1.0000
  H   H6        1.0  0.051838629632186405  0.224075537668412  0.8008924236849425  1.0000
  H   H7        1.0  0.4481605594587278  0.22407742704450578  0.30089049596073647  1.0000
  H   H8        1.0  0.9481415985379371  0.7759155186004562  0.19911246777124353  1.0000
  H   H9        1.0  0.22814474358076348  0.780288275494648  0.9901332460981891  1.0000
  H   H10       1.0  0.7281497800237133  0.21970282166439153  0.5098749218644087  1.0000
  H   H11       1.0  0.7718641509921652  0.21970182858147064  0.0098679796890266  1.0000
  H   H12       1.0  0.2718734476445519  0.7802961938507522  0.49012121499885103  1.0000
  H   H13       1.0  0.07020061728363201  0.6778026975711242  0.8817433595978842  1.0000
  H   H14       1.0  0.5702008485213667  0.3221863879469565  0.6182607734405181  1.0000
  H   H15       1.0  0.9298011106645986  0.3221893841364363  0.11825703753157774  1.0000
  H   H16       1.0  0.4297972960017731  0.677812717339883  0.3817253900150206  1.0000
  C   C1        1.0  0.4170488335543184  0.7275279907547727  0.7549657400460463  1.0000
  C   C2        1.0  0.9170546040171884  0.2724787748185378  0.7450416260316717  1.0000
  C   C3        1.0  0.5829457277014641  0.2724729616812667  0.24503410149627314  1.0000
  C   C4        1.0  0.0829327906298047  0.7275260431602959  0.2549665315863336  1.0000
  C   C5        1.0  0.1266832586089635  0.7796375563342295  0.9042494618427243  1.0000
  C   C6        1.0  0.6266943097533969  0.22035313244160187  0.5957593867204451  1.0000
  C   C7        1.0  0.8733059277879035  0.22035644593879058  0.09575645332331112  1.0000
  C   C8        1.0  0.3733145846980436  0.7796468759974714  0.40423588246836323  1.0000
  C   C9        1.0  0.9008815642107777  0.8604116131296773  0.92442453448853  1.0000
  C   C10       1.0  0.40091483245213766  0.13958936975268435  0.5755789410608402  1.0000
  C   C11       1.0  0.0991147887491763  0.13958632803528562  0.07558153672446372  1.0000
  C   C12       1.0  0.5991191449815219  0.8604215113962538  0.42441222390542077  1.0000
  C   C13       1.0  0.2701645562194273  0.6355659303236294  0.6717727481521154  1.0000
  C   C14       1.0  0.770190623139854  0.36443779955626343  0.8282278443916979  1.0000
  C   C15       1.0  0.7298317966066605  0.3644400191384419  0.32821912840035594  1.0000
  C   C16       1.0  0.22982006292339463  0.6355699970034081  0.1717777102640596  1.0000
  O   O1        1.0  0.27491282510032994  0.82845125739815  0.8108754990789108  1.0000
  O   O2        1.0  0.7749327267496683  0.1715523391364329  0.6891368889409365  1.0000
  O   O3        1.0  0.7250674029659409  0.17154966246119588  0.18912796913550523  1.0000
  O   O4        1.0  0.22506183447887906  0.8284534880133875  0.31086858767978504  1.0000
  O   O5        1.0  0.7786108565066031  0.8257965725843802  0.0161893694239197  1.0000
  O   O6        1.0  0.2785963703410061  0.17419634062711956  0.48381596271448774  1.0000
  O   O7        1.0  0.22140162133211316  0.17420131145267698  0.9838230485032259  1.0000
  O   O8        1.0  0.7214071491774662  0.825796888893315  0.5161663400001759  1.0000
  O   O9        1.0  0.0497428750986586  0.6615750198153661  0.6608849660607491  1.0000
  O   O10       1.0  0.5497355025174286  0.3384329586518787  0.8391126170734183  1.0000
  O   O11       1.0  0.9502570609667345  0.338436846159773  0.33910623788421657  1.0000
  O   O12       1.0  0.45021605920501884  0.6615639652959827  0.16089704177350234  1.0000
  O   O13       1.0  0.3849957369952577  0.5424894195381781  0.6167905668910763  1.0000
  O   O14       1.0  0.8849952806586074  0.4575274758454809  0.8832062501290281  1.0000
  O   O15       1.0  0.6150024076010467  0.45750855423960957  0.3832118776382601  1.0000
  O   O16       1.0  0.11498853060111  0.5424794665353686  0.116784758750633  1.0000
  O   O17       1.0  0.8491052775103043  0.9505506891851281  0.852764700033461  1.0000
  O   O18       1.0  0.34911580667770903  0.04943482008508938  0.6472398692153974  1.0000
  O   O19       1.0  0.15089824208222777  0.049442369090925795  0.1472366427790632  1.0000
  O   O20       1.0  0.6508930878591244  0.9505582544844629  0.3527596602594301  1.0000
