data_image0
_chemical_formula_structural       Ni4H48C16O32
_chemical_formula_sum              "Ni4 H48 C16 O32"
_cell_length_a       7.394713111115051
_cell_length_b       7.636515388932651
_cell_length_c       14.170600388100734
_cell_angle_alpha    89.98462070150279
_cell_angle_beta     90.00859534247405
_cell_angle_gamma    98.74588950700979

_space_group_name_H-M_alt    "P 1"
_space_group_IT_number       1

loop_
  _space_group_symop_operation_xyz
  'x, y, z'

loop_
  _atom_site_type_symbol
  _atom_site_label
  _atom_site_symmetry_multiplicity
  _atom_site_fract_x
  _atom_site_fract_y
  _atom_site_fract_z
  _atom_site_occupancy
  Ni  Ni1       1.0  0.07739839739826244  0.8116948868319585  0.6432605848928716  1.0000
  Ni  Ni2       1.0  0.9233046568576527  0.6883645066208928  0.1434808694092879  1.0000
  Ni  Ni3       1.0  0.923158060862974  0.18819096594864254  0.3565805178186991  1.0000
  Ni  Ni4       1.0  0.07665684790900681  0.31164357166736073  0.8564618182513613  1.0000
  H   H1        1.0  0.7387214396082556  0.2692833230565909  0.6956859172313016  1.0000
  H   H2        1.0  0.2616659791436931  0.2306759691254996  0.19604188683563  1.0000
  H   H3        1.0  0.2614309346731929  0.7307097677756503  0.3040838863896198  1.0000
  H   H4        1.0  0.7384583482175843  0.7695057434603142  0.8039558387395117  1.0000
  H   H5        1.0  0.5548982001948631  0.38833234312332376  0.7065675111918921  1.0000
  H   H6        1.0  0.44600141763165624  0.11210290291011663  0.20624477876633307  1.0000
  H   H7        1.0  0.4457872293695501  0.6121811718429698  0.29365532814286144  1.0000
  H   H8        1.0  0.5541541318486338  0.8881687290878729  0.793840446770318  1.0000
  H   H9        1.0  0.6429545535601023  0.18914499339599192  0.5286269716784346  1.0000
  H   H10       1.0  0.3557610201763879  0.3115293622197156  0.028854459780269796  1.0000
  H   H11       1.0  0.3558672030746095  0.8111084574161324  0.4712768374917644  1.0000
  H   H12       1.0  0.6443246433749508  0.688152487824084  0.9710811997286156  1.0000
  H   H13       1.0  0.44810697909284164  0.29751141685805754  0.5423351433256016  1.0000
  H   H14       1.0  0.5510577410116824  0.203677946390755  0.0418974304195459  1.0000
  H   H15       1.0  0.5511597792021234  0.7032128426642716  0.4580456947518811  1.0000
  H   H16       1.0  0.44909595725636114  0.7961929928891394  0.9581546566105956  1.0000
  H   H17       1.0  0.27399560292317904  0.5871029888133634  0.5672092219774143  1.0000
  H   H18       1.0  0.7276285713847204  0.9119037103747942  0.0671118451107517  1.0000
  H   H19       1.0  0.7276755621630003  0.41186761974709196  0.4327914787464238  1.0000
  H   H20       1.0  0.2723577915390507  0.08765303349279215  0.9326876217343809  1.0000
  H   H21       1.0  0.38655753061263454  0.7321158111881019  0.6372901928765842  1.0000
  H   H22       1.0  0.6141684178056722  0.7671899331492896  0.1372020119323665  1.0000
  H   H23       1.0  0.6140628921223056  0.26713911848774063  0.36283040975101943  1.0000
  H   H24       1.0  0.38562165310580104  0.2324548489491463  0.862675065801966  1.0000
  H   H25       1.0  0.8842418743247792  0.0329480892606213  0.7163814399230262  1.0000
  H   H26       1.0  0.1153932569671738  0.4674462544278483  0.2167820899875252  1.0000
  H   H27       1.0  0.11534586778457623  0.9673248395982059  0.283518166041098  1.0000
  H   H28       1.0  0.8846686259624905  0.5327015164424937  0.7832939665871024  1.0000
  H   H29       1.0  0.7516232050592464  0.9436470665489338  0.636461896499952  1.0000
  H   H30       1.0  0.2474146798867594  0.5572814258408343  0.1365975769167846  1.0000
  H   H31       1.0  0.2473140129012421  0.05716123978234581  0.3636232390222744  1.0000
  H   H32       1.0  0.7525091108162627  0.44276812570185353  0.8633775677433704  1.0000
  H   H33       1.0  0.1851803877731513  0.7284153725234574  0.8163117830760028  1.0000
  H   H34       1.0  0.815230760674133  0.77165655629544  0.31757656188048594  1.0000
  H   H35       1.0  0.8148718317650891  0.27155365070312615  0.18252368924592588  1.0000
  H   H36       1.0  0.18407523985669635  0.22799660345695838  0.6825764182159162  1.0000
  H   H37       1.0  0.1934530061023381  0.9394036800482085  0.8085202856605277  1.0000
  H   H38       1.0  0.8064560945033392  0.5606792945581988  0.30937506623155286  1.0000
  H   H39       1.0  0.8062109103351746  0.0606046850224971  0.1905833282849301  1.0000
  H   H40       1.0  0.19402275457549226  0.4390652436757209  0.6906946857711702  1.0000
  H   H41       1.0  0.04701825967099178  0.8739018849149289  0.45083743089777784  1.0000
  H   H42       1.0  0.9531023860739652  0.6265889749536698  0.9496464946724359  1.0000
  H   H43       1.0  0.9515192591938801  0.12709551251076323  0.5507613715037678  1.0000
  H   H44       1.0  0.04740070415230951  0.373520239984316  0.05038794779127189  1.0000
  H   H45       1.0  0.9216376282980223  0.6995990483059629  0.49688633299472673  1.0000
  H   H46       1.0  0.07906524949471821  0.7999040103301241  0.9961040025309416  1.0000
  H   H47       1.0  0.07849807212440402  0.2996031056640689  0.5040323843106407  1.0000
  H   H48       1.0  0.9214683717067517  0.20016111938839032  0.0040017187203318  1.0000
  C   C1        1.0  0.7662294213891627  0.5040923919619048  0.6140836586106673  1.0000
  C   C2        1.0  0.2341192280048929  0.9962573835320683  0.11412107220800041  1.0000
  C   C3        1.0  0.2341036715395148  0.49597065766119636  0.38580046879830115  1.0000
  C   C4        1.0  0.7660736625761331  0.0037432135583656987  0.8859952246088979  1.0000
  C   C5        1.0  0.647846773421314  0.3418059439670031  0.6548804280396539  1.0000
  C   C6        1.0  0.35235444131934196  0.15856313459173785  0.15487480540028994  1.0000
  C   C7        1.0  0.3522390717843038  0.6584451192348341  0.3451250534722874  1.0000
  C   C8        1.0  0.6477742004075964  0.8415389139990808  0.8451716184515092  1.0000
  C   C9        1.0  0.5432169243019516  0.22468921806154907  0.5795023136187325  1.0000
  C   C10       1.0  0.45611799731404556  0.2761625457569393  0.0794173183960822  1.0000
  C   C11       1.0  0.4561404873657367  0.7758325756595069  0.4206428435913381  1.0000
  C   C12       1.0  0.5439837865346604  0.7237540010646273  0.9205705456989577  1.0000
  C   C13       1.0  0.4381063772645248  0.05255136340856839  0.6163195747945096  1.0000
  C   C14       1.0  0.561361509306167  0.4479673474251554  0.1163414938037093  1.0000
  C   C15       1.0  0.5613677116014062  0.9477292009477769  0.38377761802014726  1.0000
  C   C16       1.0  0.43859401757542577  0.552077952873617  0.8835405018951689  1.0000
  O   O1        1.0  0.8731926260562589  0.5983931524908783  0.6725333906036894  1.0000
  O   O2        1.0  0.1271239688221968  0.9019294140520272  0.1725245419357009  1.0000
  O   O3        1.0  0.1269570501353954  0.40181090448510304  0.3273747122590223  1.0000
  O   O4        1.0  0.8730869027451649  0.09800865579087772  0.8275839975885475  1.0000
  O   O5        1.0  0.7556833887024368  0.5427001058242453  0.5274687198640464  1.0000
  O   O6        1.0  0.2448890659424876  0.9576233587495935  0.0275274102275276  1.0000
  O   O7        1.0  0.24500451459523018  0.4571792321510628  0.4723540410148246  1.0000
  O   O8        1.0  0.7553403862193165  0.04234505655707471  0.9725874790746687  1.0000
  O   O9        1.0  0.26476505408952994  0.04435807206566271  0.6277442659019812  1.0000
  O   O10       1.0  0.7345011546819579  0.4558080823239906  0.128054865539859  1.0000
  O   O11       1.0  0.7345209738878609  0.9556138044051254  0.3720621983909354  1.0000
  O   O12       1.0  0.26554611726417227  0.5445283518900936  0.8715462498893132  1.0000
  O   O13       1.0  0.5223923093854097  0.9213121649303417  0.6312585699502337  1.0000
  O   O14       1.0  0.47717251829963203  0.5794109497860874  0.13121352727844737  1.0000
  O   O15       1.0  0.47712815933243746  0.07917360650227317  0.36897339615897806  1.0000
  O   O16       1.0  0.5226852485889283  0.4205264269139803  0.8687559771769529  1.0000
  O   O17       1.0  0.27639573765672765  0.6361545847876331  0.6331091416652583  1.0000
  O   O18       1.0  0.7253775157842597  0.8622279466857776  0.1329389301858228  1.0000
  O   O19       1.0  0.7252034242385719  0.36226202628620296  0.367000271592282  1.0000
  O   O20       1.0  0.2745202214264353  0.13731634264517106  0.8668718247992828  1.0000
  O   O21       1.0  0.8844950264011686  0.985962024043431  0.64989084659436  1.0000
  O   O22       1.0  0.11463807684059192  0.5149883902587292  0.150324147971574  1.0000
  O   O23       1.0  0.1145458521438485  0.0149329700941507  0.349900015830471  1.0000
  O   O24       1.0  0.8853176940155411  0.48498522906118785  0.8496735854666753  1.0000
  O   O25       1.0  0.12668924469188883  0.8236449349989388  0.7867638413720215  1.0000
  O   O26       1.0  0.8732192429428666  0.676469494723733  0.2877141519090145  1.0000
  O   O27       1.0  0.8727643804116099  0.17632687449628293  0.2124011610500887  1.0000
  O   O28       1.0  0.12659991048428054  0.3235119940257008  0.7123866054153466  1.0000
  O   O29       1.0  0.040532382797181354  0.7824177871771457  0.5007978697738764  1.0000
  O   O30       1.0  0.9605118872964341  0.7169175531925732  0.00019428749313019994  1.0000
  O   O31       1.0  0.95994974158522  0.2168184079455884  0.49977366198297085  1.0000
  O   O32       1.0  0.0398445057684569  0.283317762365364  0.9997476947885175  1.0000
