data_image0
_chemical_formula_structural       Cd2Mo4H28C12S8N4O16
_chemical_formula_sum              "Cd2 Mo4 H28 C12 S8 N4 O16"
_cell_length_a       8.613273274035262
_cell_length_b       9.994801974416712
_cell_length_c       10.172625704008867
_cell_angle_alpha    90.00014850006269
_cell_angle_beta     89.99997016129358
_cell_angle_gamma    104.99805768630797

_space_group_name_H-M_alt    "P 1"
_space_group_IT_number       1

loop_
  _space_group_symop_operation_xyz
  'x, y, z'

loop_
  _atom_site_type_symbol
  _atom_site_label
  _atom_site_symmetry_multiplicity
  _atom_site_fract_x
  _atom_site_fract_y
  _atom_site_fract_z
  _atom_site_occupancy
  Cd  Cd1       1.0  0.015377746431696109  0.8256029976220705  0.8648681997063932  1.0000
  Cd  Cd2       1.0  0.984624207781856  0.17439272677466283  0.3648645031317983  1.0000
  Mo  Mo1       1.0  0.44181755993623284  0.8136286402924784  0.8731845280729827  1.0000
  Mo  Mo2       1.0  0.5581854112147157  0.18637435729366564  0.3731830146791424  1.0000
  Mo  Mo3       1.0  0.6091017547213511  0.6101186068577606  0.9295443167654369  1.0000
  Mo  Mo4       1.0  0.39089944491502143  0.3898824726947012  0.4295443693124028  1.0000
  H   H1        1.0  0.5087332974239017  0.22930414529528054  0.7998438182255044  1.0000
  H   H2        1.0  0.49125920964987563  0.7706986511059879  0.2998437971021275  1.0000
  H   H3        1.0  0.5491505616282665  0.0322459701837658  0.687546105443154  1.0000
  H   H4        1.0  0.45085005014664153  0.96775652086653  0.1875436463138556  1.0000
  H   H5        1.0  0.5967608452380376  0.4908917863498986  0.1798242629065285  1.0000
  H   H6        1.0  0.4032394540848756  0.5091096478378744  0.6798230647818357  1.0000
  H   H7        1.0  0.6529449653063182  0.38817230802983005  0.070255557061536  1.0000
  H   H8        1.0  0.34705446186386985  0.611829863018258  0.5702556237899188  1.0000
  H   H9        1.0  0.8243286851584343  0.0028664309330679  0.9096184668389994  1.0000
  H   H10       1.0  0.17566956659726427  0.9971325224062823  0.4096181680755818  1.0000
  H   H11       1.0  0.2278090140737561  0.1233911068432363  0.8608535610770787  1.0000
  H   H12       1.0  0.7721877559451258  0.8766066775680346  0.3608526988015441  1.0000
  H   H13       1.0  0.3383289395175381  0.1886662200934452  0.0046607089167594  1.0000
  H   H14       1.0  0.6616658303210058  0.8113357715410459  0.5046591710037021  1.0000
  H   H15       1.0  0.8682817739073841  0.5021531564773342  0.2285264910021496  1.0000
  H   H16       1.0  0.13171621312534407  0.49784841026984594  0.7285244008041047  1.0000
  H   H17       1.0  0.9317511078771902  0.40597421203195694  0.018606119552075  1.0000
  H   H18       1.0  0.06824822635039857  0.5940236750630278  0.5186033149625331  1.0000
  H   H19       1.0  0.07220420886415721  0.56966008075576  0.04309576560152809  1.0000
  H   H20       1.0  0.9277951302842381  0.43033787312913335  0.5430941400813936  1.0000
  H   H21       1.0  0.9736972659168543  0.10021751318262061  0.8281214062132491  1.0000
  H   H22       1.0  0.026302980639002337  0.8997801823537658  0.32812191229842824  1.0000
  H   H23       1.0  0.3523451049713983  0.0036345886514083997  0.7014972798067873  1.0000
  H   H24       1.0  0.6476534158669621  0.9963648328995088  0.2014938229115586  1.0000
  H   H25       1.0  0.052052179328598014  0.9292179421351179  0.5858852856580867  1.0000
  H   H26       1.0  0.947947085852583  0.070775985349222  0.08587937970626308  1.0000
  H   H27       1.0  0.17038933483701152  0.8352910167269483  0.6081124417911427  1.0000
  H   H28       1.0  0.8296135004887971  0.16470711486228845  0.10811075504828689  1.0000
  C   C1        1.0  0.4781630777638454  0.12783465229162522  0.8490640284926839  1.0000
  C   C2        1.0  0.5218343942515915  0.8721693146655273  0.3490612989007786  1.0000
  C   C3        1.0  0.6124613187755799  0.1172663367063365  0.9418040538431144  1.0000
  C   C4        1.0  0.3875390331869398  0.8827358119576376  0.441805341761814  1.0000
  C   C5        1.0  0.3231664906275001  0.11032114606257441  0.926860080953773  1.0000
  C   C6        1.0  0.676831225355663  0.8896799257763774  0.42685831021871223  1.0000
  C   C7        1.0  0.839004046202973  0.5479515119853317  0.1367528055623382  1.0000
  C   C8        1.0  0.16099709460304007  0.4520487690640137  0.6367525539150165  1.0000
  C   C9        1.0  0.8672481199538639  0.7043601620048392  0.15240677075289  1.0000
  C   C10       1.0  0.132755656973913  0.2956411978024747  0.6524071229490717  1.0000
  C   C11       1.0  0.945072307143633  0.5177943721555494  0.0257961407239193  1.0000
  C   C12       1.0  0.05492671762813471  0.482202498743888  0.5257940450582979  1.0000
  S   S1        1.0  0.4231214199149633  0.6800400671339801  0.0614804607405617  1.0000
  S   S2        1.0  0.5768821104066147  0.31996415197973954  0.5614777298428207  1.0000
  S   S3        1.0  0.6623538695857575  0.7729909435182449  0.7597908927145198  1.0000
  S   S4        1.0  0.337648767880651  0.22701070901654669  0.25979056086602975  1.0000
  S   S5        1.0  0.26730926385634746  0.9387009784648652  0.0056722186053975  1.0000
  S   S6        1.0  0.7326901503368147  0.06130101644637881  0.5056687717528092  1.0000
  S   S7        1.0  0.881203835970524  0.57194878688032  0.8664454559537305  1.0000
  S   S8        1.0  0.11879641828552678  0.4280490131706286  0.36644375740245044  1.0000
  N   N1        1.0  0.456159117194602  0.0121862283349827  0.7546910070635491  1.0000
  N   N2        1.0  0.5438415080716723  0.987816445833289  0.2546885573487288  1.0000
  N   N3        1.0  0.6689939552474158  0.4897790731975036  0.0996748305851369  1.0000
  N   N4        1.0  0.3310060170706635  0.5102211066024794  0.5996746499727621  1.0000
  O   O1        1.0  0.28380367153684466  0.7269862150678891  0.7796402673966583  1.0000
  O   O2        1.0  0.7162009810926832  0.2730144560499994  0.2796359524844192  1.0000
  O   O3        1.0  0.49426740640143413  0.4637761445543378  0.8578252121366532  1.0000
  O   O4        1.0  0.5057326177866202  0.5362247392756104  0.3578255806717934  1.0000
  O   O5        1.0  0.6973201376537971  0.21981893828793622  0.000965457989075  1.0000
  O   O6        1.0  0.3026869461871016  0.7801892592757795  0.5009669487130424  1.0000
  O   O7        1.0  0.6279375869142854  0.9922547512414683  0.9568356800927019  1.0000
  O   O8        1.0  0.3720623113959149  0.007753652983239997  0.4568338011753069  1.0000
  O   O9        1.0  0.9649515200330043  0.7666531380384995  0.23687567781460223  1.0000
  O   O10       1.0  0.03505397414203772  0.2333463807881273  0.736879849048691  1.0000
  O   O11       1.0  0.7899799808242206  0.7600975778587581  0.0685091476012119  1.0000
  O   O12       1.0  0.21002261820807894  0.23990355301070573  0.5685083433166441  1.0000
  O   O13       1.0  0.9429381799668943  0.026761472281165804  0.8987314093889864  1.0000
  O   O14       1.0  0.057061769875900836  0.973235380016938  0.3987311028481599  1.0000
  O   O15       1.0  0.10517520428668098  0.889432805791323  0.6557855646515307  1.0000
  O   O16       1.0  0.8948213593992024  0.11055613317623167  0.155784696762943  1.0000
