data_image0
_chemical_formula_structural       Zn2H34C44N10O12
_chemical_formula_sum              "Zn2 H34 C44 N10 O12"
_cell_length_a       8.600990333849518
_cell_length_b       9.404298597408738
_cell_length_c       14.768457434581189
_cell_angle_alpha    83.78073560680086
_cell_angle_beta     82.2798213753846
_cell_angle_gamma    66.81464000030716

_space_group_name_H-M_alt    "P 1"
_space_group_IT_number       1

loop_
  _space_group_symop_operation_xyz
  'x, y, z'

loop_
  _atom_site_type_symbol
  _atom_site_label
  _atom_site_symmetry_multiplicity
  _atom_site_fract_x
  _atom_site_fract_y
  _atom_site_fract_z
  _atom_site_occupancy
  Zn  Zn1       1.0  0.20066441043579175  0.2515837441362693  0.5854834288793145  1.0000
  Zn  Zn2       1.0  0.7993412517143882  0.7484112239002699  0.4145148204408856  1.0000
  H   H1        1.0  0.2011469528894381  0.5576286671212785  0.1167254067879071  1.0000
  H   H2        1.0  0.7988446485329133  0.4423663325116182  0.8832767037852138  1.0000
  H   H3        1.0  0.6809236165285456  0.18714690294308406  0.1629462465808019  1.0000
  H   H4        1.0  0.31907882531385195  0.8128584931678376  0.8370501779228835  1.0000
  H   H5        1.0  0.6012965063342577  0.203234055261305  0.332312768956264  1.0000
  H   H6        1.0  0.3987117140912985  0.7967632221319294  0.667685784578602  1.0000
  H   H7        1.0  0.318233118548889  0.05521274193961291  0.7636065388600104  1.0000
  H   H8        1.0  0.6817679797231972  0.9447903406533985  0.23639286761842737  1.0000
  H   H9        1.0  0.4944298175828477  0.38680426210392943  0.6220368770528995  1.0000
  H   H10       1.0  0.5055741079693802  0.6131976564041041  0.3779617021144973  1.0000
  H   H11       1.0  0.6757514438849342  0.25767084830978604  0.7746456464434532  1.0000
  H   H12       1.0  0.32425509949891296  0.7423275912994923  0.22535160865113124  1.0000
  H   H13       1.0  0.4841360007362  0.9749860164899856  0.8974712137592679  1.0000
  H   H14       1.0  0.5158636380010363  0.0250205428463062  0.10252806753324256  1.0000
  H   H15       1.0  0.5871125716686549  0.09439131269991212  0.9236737742099452  1.0000
  H   H16       1.0  0.4128882414820155  0.9056152439078389  0.07632541080901944  1.0000
  H   H17       1.0  0.7933760139879167  0.8376123248766448  0.9921164007060601  1.0000
  H   H18       1.0  0.20662667759464876  0.16239538461537967  0.007883903022360509  1.0000
  H   H19       1.0  0.07498864060109157  0.6253475065166187  0.95988231562545  1.0000
  H   H20       1.0  0.9250140670981252  0.374660202402339  0.04011934108815753  1.0000
  H   H21       1.0  0.19744092261830545  0.5686948081630948  0.7994918345166655  1.0000
  H   H22       1.0  0.8025597052588227  0.431309432771265  0.2005088832183192  1.0000
  H   H23       1.0  0.7491662575105806  0.9266631485600315  0.7021165548457236  1.0000
  H   H24       1.0  0.2508322905444587  0.07333762438974391  0.2978832239106383  1.0000
  H   H25       1.0  0.15917050636470254  0.6053579445390584  0.6365711526944723  1.0000
  H   H26       1.0  0.8408245184500488  0.3946428365963471  0.36342891488251905  1.0000
  H   H27       1.0  0.9569858709893424  0.7230328582107789  0.6007401686662208  1.0000
  H   H28       1.0  0.0430110322573043  0.2769690758088998  0.3992610176202264  1.0000
  H   H29       1.0  0.27211641664241176  0.7118580955976342  0.48559701058959365  1.0000
  H   H30       1.0  0.727876713623786  0.2881415332265647  0.5144005852927622  1.0000
  H   H31       1.0  0.3501497740275711  0.9779237356909363  0.45308987968808634  1.0000
  H   H32       1.0  0.6498478605604704  0.0220735668322476  0.546908187323503  1.0000
  H   H33       1.0  0.0199726628175014  0.0212570450925185  0.6959331696212204  1.0000
  H   H34       1.0  0.9800317653630017  0.9787437139280192  0.3040668042600033  1.0000
  C   C1        1.0  0.3569615370787176  0.3877712173208891  0.3190997873785833  1.0000
  C   C2        1.0  0.6430411125177784  0.6122225991272432  0.6809008219686705  1.0000
  C   C3        1.0  0.2455964868650967  0.49129094636338516  0.2581027428154742  1.0000
  C   C4        1.0  0.7543991999820533  0.5086970973409423  0.741898845363359  1.0000
  C   C5        1.0  0.28810745978277214  0.47938309801703116  0.16390375132716176  1.0000
  C   C6        1.0  0.711893259883915  0.5206153535157372  0.8360980440907115  1.0000
  C   C7        1.0  0.44168621800184144  0.3659529407989695  0.13171827150788573  1.0000
  C   C8        1.0  0.558314184310106  0.6340489858946867  0.8682805964801408  1.0000
  C   C9        1.0  0.5588253699482948  0.2690275530788711  0.19106182942548605  1.0000
  C   C10       1.0  0.4411776743702589  0.7309708938564228  0.8089377439675121  1.0000
  C   C11       1.0  0.5146111281770374  0.2801431671635514  0.28453634492517926  1.0000
  C   C12       1.0  0.4853902552164655  0.719856441414713  0.7154632830127314  1.0000
  C   C13       1.0  0.31665450428408093  0.38607854557934473  0.42169757940047975  1.0000
  C   C14       1.0  0.6833523564545131  0.6139164188690459  0.5783026031239515  1.0000
  C   C15       1.0  0.08100305563340272  0.6169456729298233  0.2918290892156038  1.0000
  C   C16       1.0  0.9189908848630424  0.38303542705596544  0.7081758403996335  1.0000
  C   C17       1.0  0.3915147437990854  0.12653897115931304  0.7441711714562803  1.0000
  C   C18       1.0  0.6084858840780426  0.8734652697750465  0.2558295462786973  1.0000
  C   C19       1.0  0.48462130325987124  0.29911281372148574  0.6742306527794427  1.0000
  C   C20       1.0  0.5153797869538863  0.7008902691580589  0.3257680772063979  1.0000
  C   C21       1.0  0.5748183942881298  0.2368477245020698  0.7488883526147492  1.0000
  C   C22       1.0  0.42518552320577624  0.763154194292497  0.25110955006005053  1.0000
  C   C23       1.0  0.5791029460794591  0.0244380150905528  0.8708841511389668  1.0000
  C   C24       1.0  0.4208964912675838  0.9755662291454216  0.12911530988436945  1.0000
  C   C25       1.0  0.7516741872290849  0.8972269357396103  0.8491231224578971  1.0000
  C   C26       1.0  0.24832691910133056  0.10277614656686043  0.15087696051313776  1.0000
  C   C27       1.0  0.8448882814320414  0.8114764676671201  0.921415471341071  1.0000
  C   C28       1.0  0.1551113734218532  0.18853009109610505  0.07858516293662633  1.0000
  C   C29       1.0  0.0033034719408888504  0.6924891228203479  0.9035693860479558  1.0000
  C   C30       1.0  0.9966963923615282  0.3075197507566472  0.09643174499150584  1.0000
  C   C31       1.0  0.07241553565669526  0.660556270033979  0.8132637397309569  1.0000
  C   C32       1.0  0.9275864680240532  0.3394502832721643  0.18673670199965647  1.0000
  C   C33       1.0  0.981961179171023  0.7467742227321565  0.7405040269792809  1.0000
  C   C34       1.0  0.018040421729338577  0.2532277003733513  0.259496774212984  1.0000
  C   C35       1.0  0.8204247674430646  0.8626550700555742  0.7592986258403658  1.0000
  C   C36       1.0  0.17957378867029655  0.13734570260766793  0.240701829408586  1.0000
  C   C37       1.0  0.05511491243538553  0.7193081265209005  0.6425999296086504  1.0000
  C   C38       1.0  0.9448831571663588  0.2806938050567709  0.3574004839116613  1.0000
  C   C39       1.0  0.23175808087266597  0.8167975147501636  0.5219954151088404  1.0000
  C   C40       1.0  0.7682390672037654  0.18320094668744966  0.4780026101741087  1.0000
  C   C41       1.0  0.2692294202141736  0.9470083711039197  0.5074856194045623  1.0000
  C   C42       1.0  0.7307682063155453  0.052988931705797895  0.492511771114444  1.0000
  C   C43       1.0  0.09868122148670702  0.9737926616077534  0.63418496368341  1.0000
  C   C44       1.0  0.9013211349300363  0.0262046291416524  0.3658147477117809  1.0000
  N   N1        1.0  0.48054601795799823  0.3430088893840306  0.03421741036776639  1.0000
  N   N2        1.0  0.519451750405672  0.6569965167814474  0.9657814287078853  1.0000
  N   N3        1.0  0.37115783941737845  0.22839334098795666  0.6722341007628005  1.0000
  N   N4        1.0  0.628843266913037  0.771609741318514  0.3277659822082272  1.0000
  N   N5        1.0  0.5138199379548425  0.12832622341216654  0.7922143549565706  1.0000
  N   N6        1.0  0.48618184016072524  0.8716780156532595  0.2077842370270916  1.0000
  N   N7        1.0  0.12455645032115105  0.8355608529030648  0.6022858227153877  1.0000
  N   N8        1.0  0.8754414017737419  0.16443876414736286  0.3977134175505698  1.0000
  N   N9        1.0  0.18547882038512142  0.044073562810680804  0.5777523386238673  1.0000
  N   N10       1.0  0.8145239983682516  0.9559225698839029  0.42224538502218684  1.0000
  O   O1        1.0  0.27183118335925377  0.27305546608856457  0.45417554316814107  1.0000
  O   O2        1.0  0.728183990062888  0.7269336898584484  0.5458250431243672  1.0000
  O   O3        1.0  0.3390677719247748  0.47963075970391605  0.46656551108961974  1.0000
  O   O4        1.0  0.6609380916155985  0.5203665234329407  0.5334325584997475  1.0000
  O   O5        1.0  0.01464554432809707  0.5842216770690742  0.37128471220414394  1.0000
  O   O6        1.0  0.9853549964289455  0.41576056402720957  0.6287229805041366  1.0000
  O   O7        1.0  0.02221946636898039  0.7403354847449182  0.2436103592238582  1.0000
  O   O8        1.0  0.9777542078611106  0.2596491362138877  0.7563946325970009  1.0000
  O   O9        1.0  0.3720550279762945  0.4211492168048139  0.9814823679474929  1.0000
  O   O10       1.0  0.6279437214689382  0.578853871245279  0.018517231078035937  1.0000
  O   O11       1.0  0.6212605261687542  0.24230958342806727  0.007864243585103707  1.0000
  O   O12       1.0  0.37874027086525774  0.7576969737527506  0.9921335884486739  1.0000
