data_image0
_chemical_formula_structural       Mn4H68C76S4N12O28
_chemical_formula_sum              "Mn4 H68 C76 S4 N12 O28"
_cell_length_a       8.449749661738798
_cell_length_b       11.611148682238738
_cell_length_c       28.22148527542087
_cell_angle_alpha    89.99951687951017
_cell_angle_beta     90.00051570581448
_cell_angle_gamma    106.26277140319924

_space_group_name_H-M_alt    "P 1"
_space_group_IT_number       1

loop_
  _space_group_symop_operation_xyz
  'x, y, z'

loop_
  _atom_site_type_symbol
  _atom_site_label
  _atom_site_symmetry_multiplicity
  _atom_site_fract_x
  _atom_site_fract_y
  _atom_site_fract_z
  _atom_site_occupancy
  Mn  Mn1       1.0  0.813894271821844  0.6371987408528169  0.8002789134200867  1.0000
  Mn  Mn2       1.0  0.686102103963378  0.3627957612940306  0.3002782491983638  1.0000
  Mn  Mn3       1.0  0.1861055663097132  0.36280237445595265  0.19971979507946713  1.0000
  Mn  Mn4       1.0  0.31389613406226846  0.6372008693281542  0.6997215223267261  1.0000
  H   H1        1.0  0.16012390816933925  0.6642010843587371  0.8045499119288664  1.0000
  H   H2        1.0  0.3398746981935544  0.33580133373012433  0.30454939981274975  1.0000
  H   H3        1.0  0.8398722688203433  0.3357964050905693  0.19545021393192027  1.0000
  H   H4        1.0  0.660124179883894  0.6641970907606449  0.6954507260500405  1.0000
  H   H5        1.0  0.06991143058618109  0.6720416239382414  0.8554900444452684  1.0000
  H   H6        1.0  0.4300892799016153  0.32795912546787054  0.3554901559931735  1.0000
  H   H7        1.0  0.930090238137758  0.32796130428651077  0.14450972707347634  1.0000
  H   H8        1.0  0.5699117487791127  0.6720420088827976  0.6445099698677907  1.0000
  H   H9        1.0  0.583726515780384  0.5195139915087311  0.8782449394599823  1.0000
  H   H10       1.0  0.9162711976137526  0.48048107510953725  0.378244483886121  1.0000
  H   H11       1.0  0.41627593389736706  0.4804844901379752  0.12175554074745779  1.0000
  H   H12       1.0  0.08372823094818925  0.5195155745627885  0.621755641980485  1.0000
  H   H13       1.0  0.34794858361070163  0.6104531624501986  0.8726937296156692  1.0000
  H   H14       1.0  0.15204292960525825  0.3895435988187401  0.3726879202995477  1.0000
  H   H15       1.0  0.6520491039519029  0.3895452429766733  0.1273078136053982  1.0000
  H   H16       1.0  0.847948075639593  0.6104493488128  0.6273097251824639  1.0000
  H   H17       1.0  0.23545422344764688  0.4767805125163349  0.84426015509748  1.0000
  H   H18       1.0  0.26453573072534897  0.5232175680149921  0.3442573721648685  1.0000
  H   H19       1.0  0.7645440146037428  0.5232161180893511  0.1557417424673702  1.0000
  H   H20       1.0  0.735460587149177  0.4767736809986971  0.6557416906870657  1.0000
  H   H21       1.0  0.53569996892206  0.3143381045474029  0.9808588952640066  1.0000
  H   H22       1.0  0.9643008181637  0.6856669721002646  0.4808578555309566  1.0000
  H   H23       1.0  0.46430513050447775  0.6856711212771527  0.0191412305883532  1.0000
  H   H24       1.0  0.03570369255859159  0.31433065071381344  0.5191429790207067  1.0000
  H   H25       1.0  0.4252804228256577  0.32804948265817285  0.0624956482293229  1.0000
  H   H26       1.0  0.07472367657525324  0.6719586584360114  0.5624944868710671  1.0000
  H   H27       1.0  0.5747264176173769  0.6719579874008373  0.9375044776284298  1.0000
  H   H28       1.0  0.9252800531975252  0.32804341095336287  0.43750599333185386  1.0000
  H   H29       1.0  0.9873090902887679  0.388211427054749  0.0029749797336862  1.0000
  H   H30       1.0  0.5126895204260932  0.6117842741756048  0.5029742153572911  1.0000
  H   H31       1.0  0.012691848850387436  0.6117861385923857  0.9970269178331675  1.0000
  H   H32       1.0  0.4873119691889655  0.38821151665860026  0.49702697353345837  1.0000
  H   H33       1.0  0.09722194546890955  0.3775873472536729  0.921516175071723  1.0000
  H   H34       1.0  0.40276653849163313  0.6224068050249016  0.4215155443972165  1.0000
  H   H35       1.0  0.9027736810491545  0.6224119170058201  0.07848501380512118  1.0000
  H   H36       1.0  0.5972327109614212  0.3775827072568844  0.5784859988413943  1.0000
  H   H37       1.0  0.9495267339047114  0.4628333871102582  0.8603719124035152  1.0000
  H   H38       1.0  0.5504703162376429  0.5371646286993154  0.36037453036093586  1.0000
  H   H39       1.0  0.050465961060559984  0.5371676138646322  0.1396289221264198  1.0000
  H   H40       1.0  0.44954023673773225  0.46283665804976676  0.6396287845721956  1.0000
  H   H41       1.0  0.9616772721217328  0.25257129331181005  0.8617864648376353  1.0000
  H   H42       1.0  0.5383230638267519  0.7474258607754292  0.36178725648388627  1.0000
  H   H43       1.0  0.038314232307243457  0.7474296886129325  0.1382140153507692  1.0000
  H   H44       1.0  0.4616847880351144  0.25257449094868883  0.6382139324074814  1.0000
  H   H45       1.0  0.6498215426321889  0.19061949485323026  0.7370645114791756  1.0000
  H   H46       1.0  0.8501803046493989  0.8093823433605177  0.2370684050237344  1.0000
  H   H47       1.0  0.35018552823296273  0.8093853034764391  0.262932425323875  1.0000
  H   H48       1.0  0.14981674283566085  0.1906142682142757  0.7629306578198579  1.0000
  H   H49       1.0  0.645160196672769  0.40153736620782615  0.7428618491858572  1.0000
  H   H50       1.0  0.8548412405265607  0.5984661568206346  0.242866488206964  1.0000
  H   H51       1.0  0.35484655417720745  0.5984665351806696  0.2571357962982503  1.0000
  H   H52       1.0  0.14515525650404015  0.4015322295533323  0.7571350550125402  1.0000
  H   H53       1.0  0.9792364567437059  0.8750452010492821  0.8547974684233779  1.0000
  H   H54       1.0  0.5207634794967999  0.1249547332866499  0.35479860443961536  1.0000
  H   H55       1.0  0.020753857140398683  0.12495576183081877  0.1452019487435834  1.0000
  H   H56       1.0  0.47923984068061987  0.8750428704827868  0.6452011670905975  1.0000
  H   H57       1.0  0.9909814120099011  0.08989184098822278  0.8559486816199853  1.0000
  H   H58       1.0  0.5090158510224895  0.9101071404342206  0.35594989230956736  1.0000
  H   H59       1.0  0.00900890188707135  0.9101091218836217  0.14405179856686354  1.0000
  H   H60       1.0  0.49097968591967583  0.08988855514375865  0.6440502335534788  1.0000
  H   H61       1.0  0.6298184972394836  0.013982328552899003  0.7425808017397557  1.0000
  H   H62       1.0  0.8701820626254173  0.9860220767342012  0.2425837807719375  1.0000
  H   H63       1.0  0.3701901737444542  0.9860269544550985  0.2574161350576532  1.0000
  H   H64       1.0  0.12981301338670181  0.013978962357484198  0.7574156364012836  1.0000
  H   H65       1.0  0.6382260062030056  0.8044719487784563  0.7455002637843434  1.0000
  H   H66       1.0  0.8617776454636469  0.19553424317037127  0.2455024239306667  1.0000
  H   H67       1.0  0.36177877314399604  0.19553638014618707  0.2544952556496511  1.0000
  H   H68       1.0  0.1382228327068374  0.8044686660152318  0.7544955758867076  1.0000
  C   C1        1.0  0.4207694478529188  0.5908684065692069  0.8006948159322322  1.0000
  C   C2        1.0  0.0792170189009624  0.4091401213022722  0.30069157784499373  1.0000
  C   C3        1.0  0.5792279196859267  0.40912910192199786  0.1993067272899651  1.0000
  C   C4        1.0  0.9207777370745303  0.5908600208619958  0.69930677630947  1.0000
  C   C5        1.0  0.3598744388468019  0.5372755522596364  0.8491812902963716  1.0000
  C   C6        1.0  0.1401147639822183  0.46272332976516845  0.3491776750485514  1.0000
  C   C7        1.0  0.6401244392435216  0.46272287222288344  0.150819898586299  1.0000
  C   C8        1.0  0.8598807729342041  0.5372723658293097  0.6508203247747204  1.0000
  C   C9        1.0  0.3226080443572101  0.3445013540992007  0.9467827458956464  1.0000
  C   C10       1.0  0.17738892427371405  0.6554978828249317  0.44678139545596457  1.0000
  C   C11       1.0  0.6773960950109268  0.6555051809101042  0.05321844297998981  1.0000
  C   C12       1.0  0.8226148568466272  0.34449437742254213  0.5532201477839536  1.0000
  C   C13       1.0  0.41678465352716626  0.33180607400946366  0.9861192364319891  1.0000
  C   C14       1.0  0.08321660884528369  0.6681952811669304  0.48611794350790655  1.0000
  C   C15       1.0  0.5832233774564484  0.6682014150969449  0.0138815981072469  1.0000
  C   C16       1.0  0.9167854312499838  0.3317987348515884  0.5138828910467055  1.0000
  C   C17       1.0  0.3549266173190657  0.33979268759568976  0.0314099973084225  1.0000
  C   C18       1.0  0.14507297856199833  0.6602087415352001  0.5314087112088473  1.0000
  C   C19       1.0  0.6450756914566822  0.6602120344976399  0.9685901285480228  1.0000
  C   C20       1.0  0.8549312121322429  0.3397879843459605  0.4685917690039787  1.0000
  C   C21       1.0  0.20003086152644997  0.35970005371907365  0.037588026463538406  1.0000
  C   C22       1.0  0.2999688839728447  0.6403012795002636  0.537587225184339  1.0000
  C   C23       1.0  0.7999728682463284  0.6403020156702935  0.9624124537393897  1.0000
  C   C24       1.0  0.7000308646214322  0.3596962671022297  0.4624136093610645  1.0000
  C   C25       1.0  0.10795009011307842  0.3735829571502121  0.9977209028391486  1.0000
  C   C26       1.0  0.3920463710665202  0.6264172447724831  0.4977198751216818  1.0000
  C   C27       1.0  0.8920527691600311  0.6264199901164246  0.0022802860410067005  1.0000
  C   C28       1.0  0.6079563090848336  0.37357856511186316  0.5022816681105979  1.0000
  C   C29       1.0  0.1691065551790486  0.366820208193104  0.9523856789740891  1.0000
  C   C30       1.0  0.33088688798411414  0.6331753158987823  0.4523848179951315  1.0000
  C   C31       1.0  0.8308956640465508  0.6331809452021984  0.04761550990832569  1.0000
  C   C32       1.0  0.6691154721306204  0.3668195970581535  0.5476156622183908  1.0000
  C   C33       1.0  0.12911231236829923  0.36280706834489246  0.08625155883962782  1.0000
  C   C34       1.0  0.37088306854580105  0.6371978797751653  0.5862516673245537  1.0000
  C   C35       1.0  0.8708846837992322  0.6371993523525389  0.913748921346702  1.0000
  C   C36       1.0  0.6291193811319502  0.3628006018715411  0.4137488128828863  1.0000
  C   C37       1.0  0.8849642646876742  0.398868608272778  0.8336302543866339  1.0000
  C   C38       1.0  0.6150336483727442  0.6011307386882692  0.33362963423923014  1.0000
  C   C39       1.0  0.11503296196632815  0.6011351406540442  0.1663723518444087  1.0000
  C   C40       1.0  0.38497008141719374  0.3988713306900991  0.6663722633235382  1.0000
  C   C41       1.0  0.8900818539439184  0.2805381009955568  0.834351194342389  1.0000
  C   C42       1.0  0.6099148860682746  0.7194612157047544  0.3343526296242274  1.0000
  C   C43       1.0  0.10990726942105056  0.7194628428233898  0.1656492858428891  1.0000
  C   C44       1.0  0.39008637305602173  0.28053724690280285  0.665646078881842  1.0000
  C   C45       1.0  0.8049904040109721  0.20002988139550837  0.7997368122678097  1.0000
  C   C46       1.0  0.6950169421696298  0.7999755066826422  0.299739967804463  1.0000
  C   C47       1.0  0.1950104837462944  0.7999774934155253  0.20026118754235261  1.0000
  C   C48       1.0  0.30498797811799244  0.20002658177062932  0.700259095040181  1.0000
  C   C49       1.0  0.7169249026051785  0.24563811099149288  0.7657596646563647  1.0000
  C   C50       1.0  0.7830800206336476  0.7543633198723609  0.2657625063225098  1.0000
  C   C51       1.0  0.2830745259481801  0.7543585386863398  0.2342397525303213  1.0000
  C   C52       1.0  0.21692251860712727  0.24563873046411536  0.734237973878848  1.0000
  C   C53       1.0  0.7160057945518542  0.3649498943769628  0.7681197145920039  1.0000
  C   C54       1.0  0.7839935532172929  0.6350523015118978  0.2681236820223347  1.0000
  C   C55       1.0  0.2839923025589143  0.6350529767001021  0.2318786395622041  1.0000
  C   C56       1.0  0.21601374817294772  0.36494982502240686  0.7318785698850832  1.0000
  C   C57       1.0  0.903194118497694  0.9099103432320137  0.8305873823031291  1.0000
  C   C58       1.0  0.5968031704232641  0.09009082576339009  0.33058955220320035  1.0000
  C   C59       1.0  0.09679802595304918  0.09009243258056897  0.1694109718432557  1.0000
  C   C60       1.0  0.40319634771885376  0.9099093925877068  0.6694119910171779  1.0000
  C   C61       1.0  0.9078185296203499  0.030530781570647002  0.831194837830978  1.0000
  C   C62       1.0  0.5921823456001576  0.969470435157859  0.3311964197274407  1.0000
  C   C63       1.0  0.09217924748381992  0.9694711925597446  0.168804933684207  1.0000
  C   C64       1.0  0.40781653247729105  0.030527989332902895  0.6688037061353498  1.0000
  C   C65       1.0  0.8078493622411428  0.07315621901242508  0.7996930984011358  1.0000
  C   C66       1.0  0.6921578933252659  0.9268456010498055  0.29969686838669674  1.0000
  C   C67       1.0  0.19215651809200546  0.9268485602643464  0.20030383840035174  1.0000
  C   C68       1.0  0.3078418552389763  0.0731519455719436  0.7003014857789793  1.0000
  C   C69       1.0  0.710227784806733  0.9889400180766615  0.7683064227884843  1.0000
  C   C70       1.0  0.7897805412561423  0.011064102154897197  0.2683104481537626  1.0000
  C   C71       1.0  0.28977928604983544  0.011064780258507797  0.2316898053346463  1.0000
  C   C72       1.0  0.21022048741599522  0.988937032201271  0.7316889690272816  1.0000
  C   C73       1.0  0.7136868757371883  0.8701049505218561  0.7697608451156697  1.0000
  C   C74       1.0  0.7863145728065105  0.12989636106578226  0.269764093884568  1.0000
  C   C75       1.0  0.2863145624831204  0.1299006494844974  0.23023538299850801  1.0000
  C   C76       1.0  0.2136837547778682  0.8701038382489229  0.7302353232944725  1.0000
  S   S1        1.0  0.3997925523715862  0.33488010866774687  0.8885641018491482  1.0000
  S   S2        1.0  0.10020767894118163  0.6651165395724021  0.3885618021904023  1.0000
  S   S3        1.0  0.600224183724542  0.6651186015917077  0.1114392130967516  1.0000
  S   S4        1.0  0.8997884085069283  0.33487738117338484  0.611440095376274  1.0000
  N   N1        1.0  0.46484185133682115  0.47094729760772214  0.869232936108439  1.0000
  N   N2        1.0  0.03515259922728116  0.5290513493341819  0.3692309347431006  1.0000
  N   N3        1.0  0.5351570267449188  0.5290511268802972  0.1307675440943115  1.0000
  N   N4        1.0  0.964845638789782  0.47094528129350266  0.630768128102055  1.0000
  N   N5        1.0  0.7997703571819982  0.4415833630476769  0.8011108702563307  1.0000
  N   N6        1.0  0.700219855647802  0.5584137026619658  0.3011116901674811  1.0000
  N   N7        1.0  0.20022677987036977  0.5584168172141374  0.1988885469211468  1.0000
  N   N8        1.0  0.29978410460287097  0.44158569496229916  0.6988902074002398  1.0000
  N   N9        1.0  0.8077787557784644  0.8297951423340493  0.8005368843957967  1.0000
  N   N10       1.0  0.6922228875701533  0.17020746631026634  0.30053938625892584  1.0000
  N   N11       1.0  0.19221847080260793  0.17020860663953388  0.1994596980559038  1.0000
  N   N12       1.0  0.3077754400228016  0.8297927329989319  0.6994607396000346  1.0000
  O   O1        1.0  0.5563270101415937  0.5837523863998013  0.7845852981704979  1.0000
  O   O2        1.0  0.9436708543434446  0.41625755015986937  0.2845798242322246  1.0000
  O   O3        1.0  0.44367172704671975  0.41625227852934177  0.2154155363611778  1.0000
  O   O4        1.0  0.05632843329503596  0.583745339972836  0.7154181755835864  1.0000
  O   O5        1.0  0.32455650157821475  0.6397412913892565  0.7782772842742817  1.0000
  O   O6        1.0  0.1754386778531439  0.36025703085100247  0.2782734112099661  1.0000
  O   O7        1.0  0.675427501380909  0.36024530147552974  0.22172106988929843  1.0000
  O   O8        1.0  0.8245562190200599  0.6397368708693917  0.7217249429555324  1.0000
  O   O9        1.0  0.5421872641600769  0.29012731360263183  0.8928603883484101  1.0000
  O   O10       1.0  0.9578027894268712  0.709868289720731  0.3928560580138907  1.0000
  O   O11       1.0  0.4578006686986311  0.7098736111469178  0.1071422178750723  1.0000
  O   O12       1.0  0.042201951781898075  0.29012666132274484  0.6071469025824925  1.0000
  O   O13       1.0  0.25936543769485343  0.27291176341696394  0.8597508671640526  1.0000
  O   O14       1.0  0.24063020424743792  0.7270843780162789  0.3597497919848749  1.0000
  O   O15       1.0  0.7406279486311644  0.7270812223093658  0.1402481956809325  1.0000
  O   O16       1.0  0.7593727063431995  0.2729087601277199  0.6402499795525501  1.0000
  O   O17       1.0  0.22782030738160586  0.3686645105884023  0.1216250850917149  1.0000
  O   O18       1.0  0.2721806922840386  0.631339964611648  0.6216242403929186  1.0000
  O   O19       1.0  0.772182001398434  0.6313402115021771  0.8783753951046904  1.0000
  O   O20       1.0  0.7278219878544474  0.3686558452809549  0.3783762398194739  1.0000
  O   O21       1.0  0.9783842019260047  0.3586951148535035  0.0899133915696098  1.0000
  O   O22       1.0  0.5216150418299037  0.641311698582264  0.5899121942096386  1.0000
  O   O23       1.0  0.021618106875486355  0.6413096072233273  0.910088860326603  1.0000
  O   O24       1.0  0.4783874974108711  0.35869035175421254  0.4100882859917263  1.0000
  O   O25       1.0  0.06977353519958737  0.6902023826745066  0.8203650010214005  1.0000
  O   O26       1.0  0.43022737428850616  0.30980517152041637  0.3203637586793561  1.0000
  O   O27       1.0  0.9302284535524021  0.30980144248315605  0.1796351248361745  1.0000
  O   O28       1.0  0.5697761250149608  0.6901995696285609  0.6796360128386922  1.0000
