data_image0
_chemical_formula_structural       Cu4H28C36N24O8
_chemical_formula_sum              "Cu4 H28 C36 N24 O8"
_cell_length_a       9.180474006448698
_cell_length_b       10.284426976010678
_cell_length_c       12.20087871748688
_cell_angle_alpha    90.0000247530548
_cell_angle_beta     106.60203392608078
_cell_angle_gamma    89.99983629968652

_space_group_name_H-M_alt    "P 1"
_space_group_IT_number       1

loop_
  _space_group_symop_operation_xyz
  'x, y, z'

loop_
  _atom_site_type_symbol
  _atom_site_label
  _atom_site_symmetry_multiplicity
  _atom_site_fract_x
  _atom_site_fract_y
  _atom_site_fract_z
  _atom_site_occupancy
  Cu  Cu1       1.0  0.9251770249060485  0.4167998985420167  0.10123434116637499  1.0000
  Cu  Cu2       1.0  0.574817424694892  0.9168021527519059  0.8987669319939758  1.0000
  Cu  Cu3       1.0  0.07481575574936271  0.5831974273270787  0.8987661524572989  1.0000
  Cu  Cu4       1.0  0.4251787288788691  0.08320100717594407  0.10123180152068305  1.0000
  H   H1        1.0  0.6146326210274181  0.43492770213199344  0.09983421259708788  1.0000
  H   H2        1.0  0.8853707381364159  0.9349272197143319  0.9001607162485715  1.0000
  H   H3        1.0  0.38536685637451024  0.5650705960707539  0.9001594719915292  1.0000
  H   H4        1.0  0.11463331016816619  0.06506913379540437  0.09983555475803034  1.0000
  H   H5        1.0  0.47202657015713356  0.418968839941506  0.24430417530933823  1.0000
  H   H6        1.0  0.02798152291963161  0.918975030776643  0.7556934349738429  1.0000
  H   H7        1.0  0.5279775518094568  0.5810275135693885  0.7556970289255818  1.0000
  H   H8        1.0  0.9720225499260023  0.08102910148480898  0.2443044804408459  1.0000
  H   H9        1.0  0.4903666771385247  0.8359497636655249  0.2832186123785264  1.0000
  H   H10       1.0  0.0096349710824484  0.33595179824077087  0.7167841913111134  1.0000
  H   H11       1.0  0.5096374816525895  0.16405047922160776  0.7167850584698815  1.0000
  H   H12       1.0  0.9903679897356881  0.6640494169907069  0.28321513301147416  1.0000
  H   H13       1.0  0.6287382756494891  0.8530365495477737  0.13615735530570558  1.0000
  H   H14       1.0  0.8712586226144338  0.35303870777912033  0.8638419443495027  1.0000
  H   H15       1.0  0.371257914766602  0.14695980397323888  0.8638438448242954  1.0000
  H   H16       1.0  0.12874089161849156  0.6469595904242025  0.13615420685327712  1.0000
  H   H17       1.0  0.7869286007704517  0.4402958863637209  0.46924925029856734  1.0000
  H   H18       1.0  0.7130736530394656  0.9402956570056203  0.5307487300028839  1.0000
  H   H19       1.0  0.2130733094035691  0.5597033841826544  0.5307555939553411  1.0000
  H   H20       1.0  0.28692360029289427  0.05970555823242308  0.4692477724000029  1.0000
  H   H21       1.0  0.8981284621068611  0.2950402091226393  0.4900506559371325  1.0000
  H   H22       1.0  0.6018709024561133  0.795037336050235  0.5099491348286807  1.0000
  H   H23       1.0  0.10187334984144061  0.7049648954856949  0.5099476106780119  1.0000
  H   H24       1.0  0.3981252020161321  0.2049619345011776  0.4900463098677721  1.0000
  H   H25       1.0  0.714346110596608  0.2978991090518477  0.3882461960342881  1.0000
  H   H26       1.0  0.785648771767228  0.7978938736662047  0.6117575849609482  1.0000
  H   H27       1.0  0.285653526396608  0.7021050232168945  0.6117581772146752  1.0000
  H   H28       1.0  0.21434514547292588  0.2021044245454249  0.3882431441646121  1.0000
  C   C1        1.0  0.6311806279961302  0.6452476167505452  0.10779328137149949  1.0000
  C   C2        1.0  0.868821557624642  0.14524882320207408  0.8922103211453065  1.0000
  C   C3        1.0  0.3688201333177688  0.35474970910920683  0.8922105051759746  1.0000
  C   C4        1.0  0.13118032799538068  0.8547504473439173  0.10779287869916494  1.0000
  C   C5        1.0  0.587204107012468  0.5229112586726501  0.13920776707024632  1.0000
  C   C6        1.0  0.9127972879964473  0.022912337000661892  0.8607915313313728  1.0000
  C   C7        1.0  0.41280001495088214  0.47708703952607556  0.8607934371643329  1.0000
  C   C8        1.0  0.08720339965059759  0.9770879058896825  0.13920732198727853  1.0000
  C   C9        1.0  0.5087391589619514  0.5128213665716002  0.22063856097359041  1.0000
  C   C10       1.0  0.9912611207767766  0.012825120501261696  0.7793596832186653  1.0000
  C   C11       1.0  0.4912592678007144  0.4871720699143012  0.7793606435468592  1.0000
  C   C12       1.0  0.008740715736856  0.9871731777000502  0.22064022780709547  1.0000
  C   C13       1.0  0.4761797296774049  0.6262268644268191  0.2722070032635885  1.0000
  C   C14       1.0  0.023818009149955802  0.12623178539227806  0.7277908200985482  1.0000
  C   C15       1.0  0.5238221068346149  0.37377240611841234  0.7277929077620019  1.0000
  C   C16       1.0  0.9761780953125764  0.8737733192226356  0.2722046245968954  1.0000
  C   C17       1.0  0.5182481942378631  0.7490241164167909  0.24261598815765956  1.0000
  C   C18       1.0  0.9817490994767297  0.2490269111704109  0.757386636374385  1.0000
  C   C19       1.0  0.48175255480227713  0.25097126475493065  0.7573869761854299  1.0000
  C   C20       1.0  0.018250512972194603  0.7509713870344541  0.24261609246615026  1.0000
  C   C21       1.0  0.5951391434059728  0.7578810781313976  0.15995989157399046  1.0000
  C   C22       1.0  0.9048603694396178  0.2578811938832216  0.8400415564827314  1.0000
  C   C23       1.0  0.40485817131462903  0.2421181924197811  0.8400407218528374  1.0000
  C   C24       1.0  0.09514717455979847  0.7421171043115251  0.15996117646272273  1.0000
  C   C25       1.0  0.7152550617418143  0.654907724851455  0.023076479772861095  1.0000
  C   C26       1.0  0.784744830819541  0.1549072440279247  0.9769274705959748  1.0000
  C   C27       1.0  0.2847457118409976  0.3450944627280634  0.976928128978486  1.0000
  C   C28       1.0  0.21525248389944102  0.8450929988671659  0.0230731428306825  1.0000
  C   C29       1.0  0.8841235570731669  0.39290076951692754  0.3374500692529666  1.0000
  C   C30       1.0  0.6158744064180155  0.8929047442365885  0.6625535631078139  1.0000
  C   C31       1.0  0.11587606766085663  0.6070926669685476  0.6625534817931327  1.0000
  C   C32       1.0  0.3841229205731054  0.10709841569044436  0.3374478725230575  1.0000
  C   C33       1.0  0.8175675979680718  0.35510781355326765  0.42619097180503485  1.0000
  C   C34       1.0  0.6824326786077676  0.8551076841635493  0.5738073892292308  1.0000
  C   C35       1.0  0.18243535056820553  0.6448963187097617  0.5738075303123227  1.0000
  C   C36       1.0  0.3175634504168556  0.1448925587321668  0.42618969987649546  1.0000
  N   N1        1.0  0.8218574272523468  0.5693384042987899  0.011743748662262006  1.0000
  N   N2        1.0  0.6781404647901256  0.069338201297505  0.9882589381620835  1.0000
  N   N3        1.0  0.178139924294392  0.4306637832847072  0.988259331378217  1.0000
  N   N4        1.0  0.3218557378948717  0.9306630139432812  0.011743084171790484  1.0000
  N   N5        1.0  0.8732113930960352  0.6172070608999147  0.9264318203775093  1.0000
  N   N6        1.0  0.6267874761356182  0.11720847135563868  0.07357108535394732  1.0000
  N   N7        1.0  0.1267847973152101  0.38279220965284116  0.07356937975198723  1.0000
  N   N8        1.0  0.3732109997204772  0.8827937162262813  0.9264314079838629  1.0000
  N   N9        1.0  0.8000919058045709  0.7251995486835907  0.8859833794053389  1.0000
  N   N10       1.0  0.6999066038274862  0.22520273764083495  0.11401948888796917  1.0000
  N   N11       1.0  0.1999042846115273  0.2747968048374219  0.11401782072466203  1.0000
  N   N12       1.0  0.30009184747298434  0.7748004222846132  0.8859813600402335  1.0000
  N   N13       1.0  0.7013606314936779  0.7518185767826037  0.9455480013169296  1.0000
  N   N14       1.0  0.798640050400955  0.25181953894176706  0.05445450654811169  1.0000
  N   N15       1.0  0.29863899323063237  0.24818069376636484  0.0544555497281607  1.0000
  N   N16       1.0  0.2013572274870228  0.7481807039527482  0.945543640264383  1.0000
  N   N17       1.0  0.3962752372875258  0.6159493132928373  0.35959599355810223  1.0000
  N   N18       1.0  0.103727094399737  0.11594523504066245  0.6404035975814396  1.0000
  N   N19       1.0  0.6037288478480605  0.38404704021748154  0.6404027440626552  1.0000
  N   N20       1.0  0.896274742136562  0.8840394503458238  0.3595963134466731  1.0000
  N   N21       1.0  0.9329503596240514  0.42109671708744384  0.26229034445566424  1.0000
  N   N22       1.0  0.5670462383490218  0.9210989097318883  0.7377039983767376  1.0000
  N   N23       1.0  0.067049105494398  0.5789054704907812  0.7377025179275595  1.0000
  N   N24       1.0  0.43294870497800275  0.07890327785228379  0.26228956640771633  1.0000
  O   O1        1.0  0.3759510112419163  0.7176711105064655  0.4090594821624195  1.0000
  O   O2        1.0  0.1240509571492723  0.2176825128813249  0.5909384293010336  1.0000
  O   O3        1.0  0.6240508007193384  0.2823262153505439  0.5909387844540676  1.0000
  O   O4        1.0  0.8759508179583194  0.7823284257899346  0.4090573706989391  1.0000
  O   O5        1.0  0.3519446542592277  0.5068776687141109  0.38050365572292594  1.0000
  O   O6        1.0  0.14805576741805032  0.0068899965940972  0.619495502221625  1.0000
  O   O7        1.0  0.6480617286046879  0.4931177124498871  0.6194971973115388  1.0000
  O   O8        1.0  0.8519415472798854  0.9931228867719069  0.3805051112028368  1.0000
