data_image0
_chemical_formula_structural       Cu8H32C24N32
_chemical_formula_sum              "Cu8 H32 C24 N32"
_cell_length_a       8.22347420892037
_cell_length_b       9.72623546723415
_cell_length_c       14.580498277950174
_cell_angle_alpha    70.59509397777451
_cell_angle_beta     73.6097844455454
_cell_angle_gamma    64.97806018126225

_space_group_name_H-M_alt    "P 1"
_space_group_IT_number       1

loop_
  _space_group_symop_operation_xyz
  'x, y, z'

loop_
  _atom_site_type_symbol
  _atom_site_label
  _atom_site_symmetry_multiplicity
  _atom_site_fract_x
  _atom_site_fract_y
  _atom_site_fract_z
  _atom_site_occupancy
  Cu  Cu1       1.0  0.6144181439576148  0.5671820348976624  0.7482397985672691  1.0000
  Cu  Cu2       1.0  0.9296975458223574  0.9328565273260452  0.7517497206348481  1.0000
  Cu  Cu3       1.0  0.3855826363251253  0.4328172258031842  0.25176159607758564  1.0000
  Cu  Cu4       1.0  0.07030365490952308  0.0671416049472739  0.24824937784985224  1.0000
  Cu  Cu5       1.0  0.6123761090255967  0.8215318464279875  0.5172710319172112  1.0000
  Cu  Cu6       1.0  0.9511602771283378  0.678482360237773  0.9828730067692817  1.0000
  Cu  Cu7       1.0  0.38762460316296216  0.17846507741056433  0.4827305049986563  1.0000
  Cu  Cu8       1.0  0.04883936968411014  0.3215145671574291  0.017128326064707333  1.0000
  H   H1        1.0  0.013148116400373232  0.5143676365266073  0.7240878177318137  1.0000
  H   H2        1.0  0.2518221562434135  0.9853084640123126  0.7759476386071641  1.0000
  H   H3        1.0  0.9868534842575375  0.485636309455046  0.27591260531341544  1.0000
  H   H4        1.0  0.7481759946461395  0.014691974011313403  0.2240531746974881  1.0000
  H   H5        1.0  0.7170597024627483  0.34962221018986367  0.6263975072560299  1.0000
  H   H6        1.0  0.6931739130600861  0.15013924353235814  0.8736624085028736  1.0000
  H   H7        1.0  0.282943023026391  0.650375861632  0.37360515578664183  1.0000
  H   H8        1.0  0.3068247263727813  0.8498624029260212  0.1263359663706184  1.0000
  H   H9        1.0  0.4342170959816159  0.28090294138195304  0.656786297945274  1.0000
  H   H10       1.0  0.37196164255033193  0.21890446975190506  0.8431507676049749  1.0000
  H   H11       1.0  0.5657874269693222  0.7191022325902454  0.3432105166354447  1.0000
  H   H12       1.0  0.6280363126957412  0.7810971651502642  0.15684829432613173  1.0000
  H   H13       1.0  0.3225752591045606  0.4848305839283427  0.6453844340147655  1.0000
  H   H14       1.0  0.45300757679640946  0.014974167620742707  0.8545416676586939  1.0000
  H   H15       1.0  0.6774275142834655  0.5151745820442883  0.35461286354168925  1.0000
  H   H16       1.0  0.5469896942628626  0.9850274557252089  0.14545808133001986  1.0000
  H   H17       1.0  0.4151308039929233  0.4078250562768914  0.5375475429107226  1.0000
  H   H18       1.0  0.3606752754460417  0.09195622959441611  0.9623844245034759  1.0000
  H   H19       1.0  0.5848665250628856  0.592181282575595  0.46244945219937256  1.0000
  H   H20       1.0  0.6393242438171073  0.9080442315416306  0.03761501468594742  1.0000
  H   H21       1.0  0.05722057952363004  0.23141792053746002  0.42321871281473017  1.0000
  H   H22       1.0  0.711542451328221  0.26863378825314044  0.07673870705379227  1.0000
  H   H23       1.0  0.9427778250059409  0.7685860361141365  0.5767810979848563  1.0000
  H   H24       1.0  0.28845749848171204  0.7313631658111462  0.9232610475830825  1.0000
  H   H25       1.0  0.852046281674092  0.21410116722157818  0.499955672275064  1.0000
  H   H26       1.0  0.5659962179695984  0.2858794272004913  0.9999387831257422  1.0000
  H   H27       1.0  0.14795318823158973  0.7859027858733681  0.500044342606401  1.0000
  H   H28       1.0  0.4340024315609199  0.7141198406136553  6.220335535554219e-05  1.0000
  H   H29       1.0  0.06649624554042796  0.07004843957903262  0.526785466670546  1.0000
  H   H30       1.0  0.663225383027836  0.4298852586505221  0.9730970852141853  1.0000
  H   H31       1.0  0.933503840457874  0.9299531882098437  0.47321400342431735  1.0000
  H   H32       1.0  0.3367742637846121  0.5701116687446798  0.026904247619796748  1.0000
  C   C1        1.0  0.16783914082755316  0.375711312553868  0.6176849505091936  1.0000
  C   C2        1.0  0.1613472924632546  0.12404360799931881  0.882315631031119  1.0000
  C   C3        1.0  0.8321621960926892  0.6242914934440337  0.3823138634334954  1.0000
  C   C4        1.0  0.8386518456105777  0.8759568682495953  0.11768291701881858  1.0000
  C   C5        1.0  0.01016029849755292  0.44759781144635713  0.6778501064421363  1.0000
  C   C6        1.0  0.13577578853269057  0.0521197305547574  0.8221760979156798  1.0000
  C   C7        1.0  0.989841351517825  0.5524026425763964  0.32214974091105136  1.0000
  C   C8        1.0  0.8642230465436572  0.9478807190250789  0.177824028331358  1.0000
  C   C9        1.0  0.8464601595379905  0.3579482665072717  0.6234991776082168  1.0000
  C   C10       1.0  0.8279950346668697  0.14182021221990482  0.8765505027236742  1.0000
  C   C11       1.0  0.15354150057503801  0.642049808871242  0.37650328135257644  1.0000
  C   C12       1.0  0.172003917861133  0.8581790822633195  0.12344890556031635  1.0000
  C   C13       1.0  0.0014541917240933166  0.2843394117849272  0.5626144432694176  1.0000
  C   C14       1.0  0.8484500874042954  0.2154646900055184  0.9374035542833924  1.0000
  C   C15       1.0  0.9985459724660406  0.715662174222004  0.43738749616204603  1.0000
  C   C16       1.0  0.15154681256331062  0.7845345698090682  0.06259791517343426  1.0000
  C   C17       1.0  0.34390928778327623  0.38913190419943083  0.6141972575426706  1.0000
  C   C18       1.0  0.34736679597357073  0.1106527535548167  0.885747888576418  1.0000
  C   C19       1.0  0.6560918534934858  0.6108720986770209  0.3857998050264655  1.0000
  C   C20       1.0  0.6526327232895786  0.889347707581237  0.11425155061300545  1.0000
  C   C21       1.0  0.9928902245708641  0.19582369601680227  0.4995439217133749  1.0000
  C   C22       1.0  0.6881574403796125  0.30411712491143567  0.00038538642776595307  1.0000
  C   C23       1.0  0.007109743975782083  0.8041790868686718  0.5004562663445355  1.0000
  C   C24       1.0  0.3118383942118827  0.6958821384598012  0.9996158789471821  1.0000
  N   N1        1.0  0.16444592519808784  0.29192547782690065  0.5598649569323797  1.0000
  N   N2        1.0  0.01629907691526714  0.20788742336213062  0.9401189981399297  1.0000
  N   N3        1.0  0.8355561060066067  0.7080749610829856  0.44013578156030064  1.0000
  N   N4        1.0  0.9836990058801051  0.792110677799194  0.0598819574357351  1.0000
  N   N5        1.0  0.8483072023406777  0.4399691628695521  0.681402127316268  1.0000
  N   N6        1.0  0.9698201637442669  0.059743035036220186  0.8186602583388023  1.0000
  N   N7        1.0  0.15169582614593932  0.5600289356213891  0.3185989575292965  1.0000
  N   N8        1.0  0.03017760595597715  0.9402574181002662  0.18133966382635697  1.0000
  N   N9        1.0  0.4729079899886629  0.7171472757173164  0.6335929894079443  1.0000
  N   N10       1.0  0.8236976234963294  0.7827984304894926  0.8664850210121459  1.0000
  N   N11       1.0  0.527094022479311  0.2828473343713682  0.3664073156637073  1.0000
  N   N12       1.0  0.1763015927693417  0.2172020039774765  0.13351599637438483  1.0000
  N   N13       1.0  0.3101203511066759  0.7687094448883016  0.6563521912687803  1.0000
  N   N14       1.0  0.7353742406875768  0.7311691508960151  0.8436931946602828  1.0000
  N   N15       1.0  0.6898769794077142  0.23128630785451781  0.34364959363550446  1.0000
  N   N16       1.0  0.2646247799346069  0.2688324804495039  0.15630607135270225  1.0000
  N   N17       1.0  0.15097914022402378  0.8109408332346817  0.6790865214643631  1.0000
  N   N18       1.0  0.6413493182418435  0.6888780330748363  0.820915797879863  1.0000
  N   N19       1.0  0.849023820168412  0.18905492839396487  0.32091470565221414  1.0000
  N   N20       1.0  0.35865095330228763  0.3111247764797227  0.17908281198094042  1.0000
  N   N21       1.0  0.43909477018307524  0.460263876225305  0.8180304045426611  1.0000
  N   N22       1.0  0.7173627400014198  0.03972094215774291  0.6819530711008213  1.0000
  N   N23       1.0  0.5609102528674016  0.5397295414277536  0.18197137300868604  1.0000
  N   N24       1.0  0.2826377271861986  0.9602806705182656  0.31804729013353494  1.0000
  N   N25       1.0  0.301584676151784  0.477620291896443  0.8750066553135553  1.0000
  N   N26       1.0  0.6541754072375813  0.02233691084968109  0.6250091434158449  1.0000
  N   N27       1.0  0.6984212166313242  0.5223743190785086  0.12499357494611736  1.0000
  N   N28       1.0  0.34582229436847456  0.9776612054245104  0.37499092102032  1.0000
  N   N29       1.0  0.16435005559058868  0.4882008184767628  0.9331609237225251  1.0000
  N   N30       1.0  0.5856457759555554  0.011753670150603999  0.5668934445724148  1.0000
  N   N31       1.0  0.8356525236125311  0.5117949582647442  0.0668394122545593  1.0000
  N   N32       1.0  0.414352199485812  0.9882432074630997  0.4331108405739031  1.0000
