data_image0
_chemical_formula_structural       Cd2H44C60N6O12
_chemical_formula_sum              "Cd2 H44 C60 N6 O12"
_cell_length_a       10.324089559808277
_cell_length_b       10.253984637978219
_cell_length_c       14.279294704439435
_cell_angle_alpha    81.57710504358045
_cell_angle_beta     74.17192297904481
_cell_angle_gamma    72.61307363161241

_space_group_name_H-M_alt    "P 1"
_space_group_IT_number       1

loop_
  _space_group_symop_operation_xyz
  'x, y, z'

loop_
  _atom_site_type_symbol
  _atom_site_label
  _atom_site_symmetry_multiplicity
  _atom_site_fract_x
  _atom_site_fract_y
  _atom_site_fract_z
  _atom_site_occupancy
  Cd  Cd1       1.0  0.40648601924642963  0.9090413693053493  0.4335835976809577  1.0000
  Cd  Cd2       1.0  0.5935085726665719  0.09096215325551071  0.5664202778038218  1.0000
  H   H1        1.0  0.002309885394282691  0.7280827338188303  0.9589145580390196  1.0000
  H   H2        1.0  0.997663052337984  0.2719155260816564  0.041091990056827316  1.0000
  H   H3        1.0  0.2761170019368535  0.2371108407419626  0.3967569579184342  1.0000
  H   H4        1.0  0.7238933750962814  0.7629009639946107  0.6032422530925744  1.0000
  H   H5        1.0  0.2485635772167996  0.4148187844595769  0.2581456116043199  1.0000
  H   H6        1.0  0.7514426620088629  0.5851899000287091  0.7418526409305813  1.0000
  H   H7        1.0  0.5233214569929033  0.10495189644277049  0.06396423734079798  1.0000
  H   H8        1.0  0.4766734811093515  0.8950433782664005  0.9360362674799204  1.0000
  H   H9        1.0  0.535208404261745  0.941328418763291  0.21028661610758093  1.0000
  H   H10       1.0  0.4647857682358065  0.0586730427222477  0.7897168649265466  1.0000
  H   H11       1.0  0.3003839898294914  0.4814484865135497  0.08728885964525547  1.0000
  H   H12       1.0  0.6996215770488804  0.5185519588679738  0.9127076195178462  1.0000
  H   H13       1.0  0.49116296957058847  0.2592384168833489  0.9482397412408616  1.0000
  H   H14       1.0  0.5088524545713895  0.7407590646093638  0.05176145181585665  1.0000
  H   H15       1.0  0.3374339924038238  0.5675980889850933  0.9206387235620923  1.0000
  H   H16       1.0  0.6625851633522045  0.43240043774117265  0.07936163179700624  1.0000
  H   H17       1.0  0.5328186628299675  0.34827916787006075  0.7780764756073495  1.0000
  H   H18       1.0  0.46718689743739383  0.6517212844811693  0.2219207044172862  1.0000
  H   H19       1.0  0.2905422919731038  0.7157112490718731  0.8064661540870617  1.0000
  H   H20       1.0  0.7094567574925678  0.28428717376441887  0.19353811265590076  1.0000
  H   H21       1.0  0.2718129319298229  0.8808621985610613  0.6622999182036156  1.0000
  H   H22       1.0  0.7281861241468591  0.11913621730551678  0.337703647677813  1.0000
  H   H23       1.0  0.5837857534858203  0.6123828043370309  0.47723110451375556  1.0000
  H   H24       1.0  0.41621188081479243  0.3876207059284908  0.5227693808173015  1.0000
  H   H25       1.0  0.6073669249212159  0.4276697156240701  0.6133813657692431  1.0000
  H   H26       1.0  0.39263301626347424  0.5723327736051901  0.38661808298274286  1.0000
  H   H27       1.0  0.9240775034471939  0.9026048118313099  0.4381667089115594  1.0000
  H   H28       1.0  0.07593263092223168  0.09739364026563631  0.5618326031241381  1.0000
  H   H29       1.0  0.8197788102724531  0.7984068787155322  0.19174621149583973  1.0000
  H   H30       1.0  0.1802082919684054  0.20159458125704793  0.8082621428303227  1.0000
  H   H31       1.0  0.24567609831181877  0.7858724317114324  0.17633858734615873  1.0000
  H   H32       1.0  0.7543190621160676  0.21412583095270318  0.823652444442871  1.0000
  H   H33       1.0  0.9682963767499116  0.9084388500234721  0.8092236844145548  1.0000
  H   H34       1.0  0.03169812871487209  0.09155437754979798  0.1907778276785805  1.0000
  H   H35       1.0  0.9842117756923301  0.867802832795796  0.6369579083988273  1.0000
  H   H36       1.0  0.0157848900059534  0.13219346978821986  0.3630414490011233  1.0000
  H   H37       1.0  0.10005643038253001  0.43309805694683234  0.7203259701912047  1.0000
  H   H38       1.0  0.8999515966415075  0.5668972643817084  0.27966988964539047  1.0000
  H   H39       1.0  0.0768615667657073  0.4914765781859742  0.8877988354044676  1.0000
  H   H40       1.0  0.9231453119503569  0.5085156663566013  0.11219828269459235  1.0000
  H   H41       1.0  0.04409271556465196  0.7048044367683275  0.5119203383724981  1.0000
  H   H42       1.0  0.9559039567446491  0.29519185884598187  0.48807831816591835  1.0000
  H   H43       1.0  0.9910297719663108  0.4275273197660852  0.6043205402196178  1.0000
  H   H44       1.0  0.008966164839456834  0.5724679671072932  0.39568046989344213  1.0000
  C   C1        1.0  0.3276452921356068  0.21277943954921594  0.32145450097353745  1.0000
  C   C2        1.0  0.6723646588710539  0.7872303110817497  0.6785450164483534  1.0000
  C   C3        1.0  0.3130885380929556  0.3107103694905646  0.2440561377484656  1.0000
  C   C4        1.0  0.6869165197696604  0.6892952730603098  0.7559468773565712  1.0000
  C   C5        1.0  0.381668068306908  0.27593704293718696  0.14774184376990013  1.0000
  C   C6        1.0  0.6183331347812528  0.7240644618795572  0.8522609691414119  1.0000
  C   C7        1.0  0.4644635198821662  0.13945882370205  0.13589124311832992  1.0000
  C   C8        1.0  0.5355321272795733  0.8605374876268785  0.8641097115738816  1.0000
  C   C9        1.0  0.47295399753789275  0.04766509854862021  0.21682527513073777  1.0000
  C   C10       1.0  0.5270432107362525  0.9523363576112941  0.7831755166112018  1.0000
  C   C11       1.0  0.3651808141476921  0.3789346933693735  0.06752710242303549  1.0000
  C   C12       1.0  0.634825744823175  0.621065771146064  0.9324705828939415  1.0000
  C   C13       1.0  0.4238877277506745  0.35955030855976833  0.9713154707723249  1.0000
  C   C14       1.0  0.5761254291733167  0.6404481521509666  0.028682553694252967  1.0000
  C   C15       1.0  0.40367415085422936  0.4673665093158305  0.8964720024586441  1.0000
  C   C16       1.0  0.5963424215957289  0.5326340489628407  0.10352793233560931  1.0000
  C   C17       1.0  0.46498586179694  0.4487808956183558  0.8004027711301944  1.0000
  C   C18       1.0  0.5350239763174401  0.5512185879038539  0.1995971863461961  1.0000
  C   C19       1.0  0.44996054277094544  0.554800122367986  0.7219123147119006  1.0000
  C   C20       1.0  0.550046009588904  0.44520034911715817  0.2780860714666106  1.0000
  C   C21       1.0  0.3561268677932575  0.6864517723325675  0.7348001434993635  1.0000
  C   C22       1.0  0.6438743485169313  0.31354971854475616  0.2652012676888802  1.0000
  C   C23       1.0  0.34592593807894906  0.7797388785105496  0.6548784111774566  1.0000
  C   C24       1.0  0.6540749819762014  0.22026364379204458  0.3451236454514728  1.0000
  C   C25       1.0  0.5190695143195612  0.6288845894803429  0.5512110278392229  1.0000
  C   C26       1.0  0.4809302603815127  0.3711220167050513  0.44878940538325907  1.0000
  C   C27       1.0  0.5329018590028981  0.5279473966394049  0.626762088718543  1.0000
  C   C28       1.0  0.4670985148192699  0.47205713972575586  0.3732363527610261  1.0000
  C   C29       1.0  0.20370836760633187  0.858336213618628  0.36064094340359537  1.0000
  C   C30       1.0  0.7962968261336911  0.1416621218996212  0.6393502352781013  1.0000
  C   C31       1.0  0.7094082373792859  0.8580853527183904  0.3787688894388168  1.0000
  C   C32       1.0  0.2905935119418572  0.14191413803577999  0.6212375386218625  1.0000
  C   C33       1.0  0.07932799536648355  0.7588915389982773  0.066627987367518  1.0000
  C   C34       1.0  0.9206504676859951  0.24110872431352698  0.9333695669945854  1.0000
  C   C35       1.0  0.09651177203146243  0.8429533300781596  0.31295142771755025  1.0000
  C   C36       1.0  0.9034894070614996  0.1570449776923937  0.6870398323793908  1.0000
  C   C37       1.0  0.9559828540426947  0.8676441487045563  0.3645908444755294  1.0000
  C   C38       1.0  0.04402399457219991  0.1323552913553243  0.6354068962622961  1.0000
  C   C39       1.0  0.8575731527299627  0.8463935096327121  0.3219318905180798  1.0000
  C   C40       1.0  0.1424296349607701  0.15360595146741934  0.6780708376657288  1.0000
  C   C41       1.0  0.8977893580048292  0.811533330157566  0.22499309627977476  1.0000
  C   C42       1.0  0.10219920863208641  0.1884701542665894  0.7750112517586344  1.0000
  C   C43       1.0  0.03669774473942766  0.7927270444561643  0.1713692579857167  1.0000
  C   C44       1.0  0.9632881154309987  0.2072753790198192  0.8286336295965101  1.0000
  C   C45       1.0  0.1366045511545764  0.804530487852908  0.2167405425340192  1.0000
  C   C46       1.0  0.863392470297882  0.1954647205784781  0.783251861671424  1.0000
  C   C47       1.0  0.9959937517690349  0.8046507996901795  0.7862120994099442  1.0000
  C   C48       1.0  0.004002764324781098  0.19534243827208536  0.21378902154480534  1.0000
  C   C49       1.0  0.005724983691784806  0.7818898703197732  0.6906725114076551  1.0000
  C   C50       1.0  0.9942712493690211  0.2181043851283419  0.30932785326471196  1.0000
  C   C51       1.0  0.03840448522718283  0.6463421865218208  0.6648871681523119  1.0000
  C   C52       1.0  0.9615962017291722  0.3536541368401984  0.3351114069708671  1.0000
  C   C53       1.0  0.06753851564182164  0.5400590074212984  0.7369424770408913  1.0000
  C   C54       1.0  0.932466179350577  0.459937350658123  0.2630567175285848  1.0000
  C   C55       1.0  0.056166848974306974  0.5721058506737863  0.8303939801470437  1.0000
  C   C56       1.0  0.9438355391340137  0.4278915284419044  0.16960625100150395  1.0000
  C   C57       1.0  0.03402788447189664  0.6215654202884408  0.5683113919761882  1.0000
  C   C58       1.0  0.9659722099743745  0.37843296592409803  0.4316884740283698  1.0000
  C   C59       1.0  0.006806271065556847  0.5089256994964372  0.5471534561725093  1.0000
  C   C60       1.0  0.9931887968081271  0.4910726607436048  0.45284738767801264  1.0000
  N   N1        1.0  0.40582302702570433  0.08298365130425368  0.3087099154598931  1.0000
  N   N2        1.0  0.5941789145198868  0.9170260229221792  0.69128766220787  1.0000
  N   N3        1.0  0.4253224761434994  0.7524223325203535  0.5641353760294481  1.0000
  N   N4        1.0  0.5746736937610636  0.24757915329359992  0.4358691155893624  1.0000
  N   N5        1.0  0.019196145419755235  0.7021917047807449  0.855343914425788  1.0000
  N   N6        1.0  0.9807970518644497  0.29780255599299466  0.1446591395387672  1.0000
  O   O1        1.0  0.3323197204801218  0.8038188233702994  0.3220319171170658  1.0000
  O   O2        1.0  0.667688745792411  0.19617853812443536  0.6779622345855785  1.0000
  O   O3        1.0  0.16188644407618813  0.9251525719912977  0.4367557767720385  1.0000
  O   O4        1.0  0.8381218924249154  0.0748417039725666  0.5632380359007955  1.0000
  O   O5        1.0  0.6645511930654922  0.9151454946152383  0.459188173210471  1.0000
  O   O6        1.0  0.33545756701321494  0.08485406037925  0.5408196893120021  1.0000
  O   O7        1.0  0.6356077979650437  0.8082412321062619  0.34315798781502593  1.0000
  O   O8        1.0  0.3643909185334025  0.1917654246422984  0.6568482478689361  1.0000
  O   O9        1.0  0.9743736433210302  0.7455114895633769  0.03549507336814633  1.0000
  O   O10       1.0  0.025598175501222904  0.2544908263410761  0.9645070478751094  1.0000
  O   O11       1.0  0.2003810128089186  0.7452670605230337  0.016470674771717576  1.0000
  O   O12       1.0  0.799594347148563  0.25473722052491604  0.9835200404300438  1.0000
