data_image0
_chemical_formula_structural       Ba4H36C28N4O28
_chemical_formula_sum              "Ba4 H36 C28 N4 O28"
_cell_length_a       6.577688228893604
_cell_length_b       11.10431225866066
_cell_length_c       13.582721985011124
_cell_angle_alpha    90.0001462844754
_cell_angle_beta     89.99999096631728
_cell_angle_gamma    93.99185564025105

_space_group_name_H-M_alt    "P 1"
_space_group_IT_number       1

loop_
  _space_group_symop_operation_xyz
  'x, y, z'

loop_
  _atom_site_type_symbol
  _atom_site_label
  _atom_site_symmetry_multiplicity
  _atom_site_fract_x
  _atom_site_fract_y
  _atom_site_fract_z
  _atom_site_occupancy
  Ba  Ba1       1.0  0.07625329595469311  0.07166495111410848  0.6368841962220344  1.0000
  Ba  Ba2       1.0  0.4237441393357315  0.9283360446227104  0.1368836753888232  1.0000
  Ba  Ba3       1.0  0.9237451316390876  0.928334929329608  0.36311666060174025  1.0000
  Ba  Ba4       1.0  0.5762543959245008  0.07166473856050708  0.8631164452064369  1.0000
  H   H1        1.0  0.9496340429344771  0.7787730079905371  0.5853333764646322  1.0000
  H   H2        1.0  0.5503656885764913  0.22122759516584267  0.08533362055324999  1.0000
  H   H3        1.0  0.050365904839566204  0.22122687151705372  0.414666744129633  1.0000
  H   H4        1.0  0.4496343668639966  0.7787731870812493  0.9146657638124935  1.0000
  H   H5        1.0  0.732494997937323  0.4717067664489462  0.6543015679264528  1.0000
  H   H6        1.0  0.767503216220149  0.5282940536975856  0.15430022611317903  1.0000
  H   H7        1.0  0.26750473450383083  0.5282913075796569  0.3457000251248489  1.0000
  H   H8        1.0  0.2324969468867906  0.4717076312901579  0.8456991582534954  1.0000
  H   H9        1.0  0.0015483956569183742  0.3985178802019431  0.5882963402085224  1.0000
  H   H10       1.0  0.4984519703361273  0.6014820587136211  0.0882966056787495  1.0000
  H   H11       1.0  0.9984530722973517  0.6014819983672125  0.4117015716973143  1.0000
  H   H12       1.0  0.501551017798441  0.39851781892286897  0.9117027786859424  1.0000
  H   H13       1.0  0.1526295465801297  0.6118322537505276  0.5891277595739838  1.0000
  H   H14       1.0  0.34736929926675947  0.38816768870739066  0.0891298011103601  1.0000
  H   H15       1.0  0.8473719213741262  0.38816762481747696  0.4108694161023934  1.0000
  H   H16       1.0  0.652632061021123  0.6118312871268826  0.9108717919418154  1.0000
  H   H17       1.0  0.38023266010328177  0.967043112447989  0.42351330485709576  1.0000
  H   H18       1.0  0.1197676119629207  0.032956973867442195  0.9235144780281387  1.0000
  H   H19       1.0  0.6197658751569223  0.03295767073291959  0.5764853432792449  1.0000
  H   H20       1.0  0.8802323358111226  0.9670429056401484  0.0764856425661264  1.0000
  H   H21       1.0  0.3780995869114109  0.10474291613363819  0.4414079366773365  1.0000
  H   H22       1.0  0.12190068588819966  0.8952572262376104  0.9414072237701916  1.0000
  H   H23       1.0  0.6219003608626182  0.8952569633728016  0.5585914476874763  1.0000
  H   H24       1.0  0.8780993695523023  0.1047435560106322  0.0585928968250045  1.0000
  H   H25       1.0  0.8893013473449473  0.8678886166241495  0.8109289010230469  1.0000
  H   H26       1.0  0.6106981780796376  0.13211088777818242  0.31092969122533276  1.0000
  H   H27       1.0  0.1106969725823674  0.13211036107776403  0.1890712195703372  1.0000
  H   H28       1.0  0.3893032898746611  0.8678889907932826  0.689069693139416  1.0000
  H   H29       1.0  0.18654404389236842  0.7956941478128526  0.5588335800766089  1.0000
  H   H30       1.0  0.31345338819900803  0.20430660341592946  0.0588345051773587  1.0000
  H   H31       1.0  0.8134543837013696  0.20430573262741084  0.4411650680588012  1.0000
  H   H32       1.0  0.6865466672414726  0.7956941788311623  0.941164879188385  1.0000
  H   H33       1.0  0.7781397287997437  0.8378996830969567  0.7129963681976577  1.0000
  H   H34       1.0  0.7218582724305946  0.16209951544575316  0.2129972123879966  1.0000
  H   H35       1.0  0.22186011130784072  0.16209929366998205  0.2870037523956626  1.0000
  H   H36       1.0  0.27814015516316454  0.837900364995661  0.787002171976866  1.0000
  C   C1        1.0  0.5705644781832504  0.4593575311329586  0.6381310174806529  1.0000
  C   C2        1.0  0.9294322151311646  0.5406432392908442  0.1381296890740842  1.0000
  C   C3        1.0  0.42943536192434817  0.5406414456351385  0.3618698393421269  1.0000
  C   C4        1.0  0.07056762497640531  0.4593557374749436  0.8618696952897906  1.0000
  C   C5        1.0  0.47405129368169696  0.3434062010454466  0.63368333831135  1.0000
  C   C6        1.0  0.0259461414774904  0.6565947846608536  0.1336808095027422  1.0000
  C   C7        1.0  0.5259487617588334  0.6565945812050983  0.3663182547427509  1.0000
  C   C8        1.0  0.9740538062965386  0.3434050948455861  0.8663185748620706  1.0000
  C   C9        1.0  0.16402844826262705  0.41920961009623864  0.6008181461402415  1.0000
  C   C10       1.0  0.33597039806338097  0.5807903689815033  0.10081838087730692  1.0000
  C   C11       1.0  0.8359699793311252  0.5807902703451759  0.399181238224621  1.0000
  C   C12       1.0  0.6640310698909316  0.41920950959111986  0.8991817397168945  1.0000
  C   C13       1.0  0.5946010298757258  0.23376653665025765  0.6484402027912779  1.0000
  C   C14       1.0  0.9053970763750456  0.766233362393244  0.14843860964062833  1.0000
  C   C15       1.0  0.40539718238514405  0.7662315383121621  0.35156065403062803  1.0000
  C   C16       1.0  0.09460449924572602  0.23376741892002423  0.8515615109545109  1.0000
  C   C17       1.0  0.5589182857123375  0.6847061644997935  0.6209594367000264  1.0000
  C   C18       1.0  0.941081447258874  0.3152945502654275  0.12096131940019458  1.0000
  C   C19       1.0  0.4410832899084198  0.31529461681232357  0.3790399476656603  1.0000
  C   C20       1.0  0.05891860818162799  0.6847062319828153  0.8790388011950014  1.0000
  C   C21       1.0  0.45700988063882164  0.5590313186053493  0.6210572282670981  1.0000
  C   C22       1.0  0.0429890741832111  0.44096962661819095  0.1210586666283149  1.0000
  C   C23       1.0  0.5429902824681251  0.4409703663823874  0.3789421560995764  1.0000
  C   C24       1.0  0.957012286104657  0.5590293492149312  0.8789421901944081  1.0000
  C   C25       1.0  0.24882412775776427  0.5377944072972836  0.602190598063828  1.0000
  C   C26       1.0  0.25117471862451884  0.46220557608188517  0.1021920648196541  1.0000
  C   C27       1.0  0.7511756046833112  0.4622036667255499  0.3978073138401967  1.0000
  C   C28       1.0  0.7488253368159974  0.5377952061675088  0.8978087920049944  1.0000
  N   N1        1.0  0.27313100510275484  0.32325270519204696  0.6159254705185973  1.0000
  N   N2        1.0  0.2268646938154149  0.6767464203387944  0.11592370462962259  1.0000
  N   N3        1.0  0.7268687273383704  0.6767453688342469  0.38407465007379227  1.0000
  N   N4        1.0  0.7731337337783586  0.32325346010377115  0.8840764159646922  1.0000
  O   O1        1.0  0.05401703212528019  0.8311042825575184  0.550387597667573  1.0000
  O   O2        1.0  0.44598202746665555  0.16889734401795659  0.05038843897921199  1.0000
  O   O3        1.0  0.9459830233152218  0.16889649969072446  0.4496125229276231  1.0000
  O   O4        1.0  0.5540181356402911  0.8311043409697871  0.9496109453874624  1.0000
  O   O5        1.0  0.8229311358147555  0.9076691030881248  0.7555659624215566  1.0000
  O   O6        1.0  0.677068495007113  0.09233113061843305  0.2555666647624832  1.0000
  O   O7        1.0  0.17706881195928054  0.09233077641947317  0.24443415817270162  1.0000
  O   O8        1.0  0.32293156043338905  0.9076696516298096  0.7444334558327128  1.0000
  O   O9        1.0  0.29739838121800943  0.0275123049032118  0.45559131979383954  1.0000
  O   O10       1.0  0.2026034123432296  0.9724878809669518  0.9555914977717066  1.0000
  O   O11       1.0  0.7026016742224783  0.9724884773438729  0.544408064571904  1.0000
  O   O12       1.0  0.7973966430972724  0.027512901281291084  0.0444086228234966  1.0000
  O   O13       1.0  0.4934529649724624  0.1308085657589544  0.657087850633836  1.0000
  O   O14       1.0  0.006544363479591148  0.8691915905293609  0.1570872383664579  1.0000
  O   O15       1.0  0.5065423145943058  0.8691904138129087  0.3429122699596689  1.0000
  O   O16       1.0  0.9934555842944663  0.13080828897938798  0.8429136184572599  1.0000
  O   O17       1.0  0.7859304869938414  0.24827885246333628  0.6522619777286565  1.0000
  O   O18       1.0  0.714065991566791  0.7517201567435305  0.1522581602124475  1.0000
  O   O19       1.0  0.21406620508683008  0.7517192234398204  0.34774256024058303  1.0000
  O   O20       1.0  0.2859354763875217  0.24827972182908542  0.8477419603817538  1.0000
  O   O21       1.0  0.7424386477632723  0.6987267785468062  0.6497415986240256  1.0000
  O   O22       1.0  0.7575609787211804  0.30127312364404446  0.14974346607737493  1.0000
  O   O23       1.0  0.257564232704823  0.3012721963478809  0.3502570495102759  1.0000
  O   O24       1.0  0.24243907671931444  0.6987276586041985  0.8502566545178213  1.0000
  O   O25       1.0  0.45432403575306074  0.7711591345285025  0.5914308396990862  1.0000
  O   O26       1.0  0.04567481018820271  0.22884081514268217  0.0914318362242525  1.0000
  O   O27       1.0  0.5456758043544953  0.22883984223613385  0.408567808435329  1.0000
  O   O28       1.0  0.9543237250720081  0.7711599680393842  0.9085675481415478  1.0000
