data_image0
_chemical_formula_structural       Ag4H44C40N12O8
_chemical_formula_sum              "Ag4 H44 C40 N12 O8"
_cell_length_a       11.180547361909875
_cell_length_b       11.178109461485603
_cell_length_c       11.688807848029603
_cell_angle_alpha    96.99830461514514
_cell_angle_beta     112.24289251633297
_cell_angle_gamma    118.44025511722434

_space_group_name_H-M_alt    "P 1"
_space_group_IT_number       1

loop_
  _space_group_symop_operation_xyz
  'x, y, z'

loop_
  _atom_site_type_symbol
  _atom_site_label
  _atom_site_symmetry_multiplicity
  _atom_site_fract_x
  _atom_site_fract_y
  _atom_site_fract_z
  _atom_site_occupancy
  Ag  Ag1       1.0  0.2384519977412864  0.026752502446896604  0.38426515942789763  1.0000
  Ag  Ag2       1.0  0.14264737277429168  0.8542091600262793  0.11552259859899301  1.0000
  Ag  Ag3       1.0  0.7615444571413191  0.9732468801291599  0.6157313769672825  1.0000
  Ag  Ag4       1.0  0.8573489912540141  0.14578693177191576  0.8844743986491183  1.0000
  H   H1        1.0  0.2928555809424225  0.5272763993784935  0.39646691951223534  1.0000
  H   H2        1.0  0.6311165552854163  0.896609108130782  0.10358709820997798  1.0000
  H   H3        1.0  0.7071425035067236  0.47272406235509823  0.603529469159497  1.0000
  H   H4        1.0  0.36888455168391227  0.10339469154117609  0.8964158835992323  1.0000
  H   H5        1.0  0.3404034572439087  0.26396085785082585  0.5558253929558035  1.0000
  H   H6        1.0  0.20856690297546282  0.7844851534348507  0.9441036101926202  1.0000
  H   H7        1.0  0.65959501279783  0.7360418019023244  0.4441713768185951  1.0000
  H   H8        1.0  0.7914318811796904  0.2155164425149891  0.05589657838401501  1.0000
  H   H9        1.0  0.4686206437892224  0.43797865902170235  0.5575362803049515  1.0000
  H   H10       1.0  0.3807126916513753  0.9109957469790969  0.9422416560119303  1.0000
  H   H11       1.0  0.531378133907559  0.5620229272764732  0.4424630493227966  1.0000
  H   H12       1.0  0.6192883701093309  0.08900798513120382  0.05775531315508433  1.0000
  H   H13       1.0  0.3199405021960332  0.41082826921835663  0.5930407290480489  1.0000
  H   H14       1.0  0.3183515991843181  0.7268314128219302  0.9071128999173653  1.0000
  H   H15       1.0  0.6800560758327449  0.589174452393898  0.406959641238636  1.0000
  H   H16       1.0  0.6816493781804668  0.27316903816216603  0.0928853890514603  1.0000
  H   H17       1.0  0.020824794943095488  0.4066567531238761  0.02657568647086349  1.0000
  H   H18       1.0  0.8801702124496418  0.9946197237252933  0.4736265966139187  1.0000
  H   H19       1.0  0.9791733153395583  0.5933437472163803  0.9734241379964105  1.0000
  H   H20       1.0  0.11982844855933913  0.0053785331883560005  0.526369758071219  1.0000
  H   H21       1.0  0.08150964420898534  0.5305273590179808  0.18109204070410104  1.0000
  H   H22       1.0  0.8495442408799437  0.9007965861445654  0.3190797800859004  1.0000
  H   H23       1.0  0.918486052405193  0.4694676468222952  0.8189054513835287  1.0000
  H   H24       1.0  0.15045413830749513  0.09920278283072291  0.6809174505414219  1.0000
  H   H25       1.0  0.22333413084401615  0.544034431671186  0.14065222990792148  1.0000
  H   H26       1.0  0.9035058337765421  0.08307229932759698  0.35939443772790725  1.0000
  H   H27       1.0  0.7766597258612578  0.45596386889606316  0.8593432481457626  1.0000
  H   H28       1.0  0.0964973690897326  0.9169270549490848  0.6406062463775231  1.0000
  H   H29       1.0  0.9698949393303595  0.5636800713569698  0.4268959091029316  1.0000
  H   H30       1.0  0.6365299382980965  0.5431890310727495  0.07246259506550241  1.0000
  H   H31       1.0  0.0301103303620566  0.43632263731011994  0.5731118799727926  1.0000
  H   H32       1.0  0.3634728074964144  0.4568048633614977  0.927540745636847  1.0000
  H   H33       1.0  0.7501583580983606  0.341697507782527  0.42571138305658  1.0000
  H   H34       1.0  0.41564188116976913  0.3249579010062789  0.07388027379217735  1.0000
  H   H35       1.0  0.2498423891118834  0.6583041324765304  0.5742946534455058  1.0000
  H   H36       1.0  0.5843609425622986  0.6750392649025088  0.926120888159474  1.0000
  H   H37       1.0  0.8479441910829735  0.9435255542343697  0.013519640359412406  1.0000
  H   H38       1.0  0.43020148586256807  0.8346752962319994  0.48663887046827636  1.0000
  H   H39       1.0  0.1520547840394215  0.056471638875962085  0.9864801331279622  1.0000
  H   H40       1.0  0.569801133985507  0.16532625321296018  0.5133609886748616  1.0000
  H   H41       1.0  0.9424775523306083  0.9044419841010624  0.14656971855747264  1.0000
  H   H42       1.0  0.25800495792285033  0.7957834835169849  0.35348067880536166  1.0000
  H   H43       1.0  0.057520852690331  0.0955574234808836  0.8534309478653839  1.0000
  H   H44       1.0  0.741995050831136  0.20421696461583855  0.6465164040985131  1.0000
  C   C1        1.0  0.22275012535619965  0.41178037757840963  0.33423328017749304  1.0000
  C   C2        1.0  0.5778576512586114  0.8887467505429072  0.1658626365712266  1.0000
  C   C3        1.0  0.7772470227740413  0.5882201295622309  0.6657661971737099  1.0000
  C   C4        1.0  0.42214316097243204  0.11125814188734749  0.834139503282394  1.0000
  C   C5        1.0  0.12061478401066245  0.3617449027392254  0.19798217218814076  1.0000
  C   C6        1.0  0.6640278262797709  0.9230363832765178  0.3021724061309571  1.0000
  C   C7        1.0  0.8793855065648588  0.6382544333319585  0.802014034773549  1.0000
  C   C8        1.0  0.33597587886689695  0.0769684984042414  0.6978316340197566  1.0000
  C   C9        1.0  0.3469554580866401  0.3574414483335957  0.5311626614192448  1.0000
  C   C10       1.0  0.32669145169296593  0.8157459186522614  0.9687931125146889  1.0000
  C   C11       1.0  0.6530411070253946  0.6425612539753229  0.4688359909696658  1.0000
  C   C12       1.0  0.6733089555703627  0.18425674680344883  0.031206069389611457  1.0000
  C   C13       1.0  0.2355056227204244  0.3103860561714313  0.3874466908122756  1.0000
  C   C14       1.0  0.4232788693906572  0.848198949545143  0.11259871708737992  1.0000
  C   C15       1.0  0.764493436797899  0.6896144180651047  0.612551762873295  1.0000
  C   C16       1.0  0.5767228791593055  0.15180589747807008  0.8874003340867702  1.0000
  C   C17       1.0  0.11032674683762878  0.4659435233101518  0.13250881554848354  1.0000
  C   C18       1.0  0.8336209023258406  0.9782521694571855  0.36766736949542195  1.0000
  C   C19       1.0  0.8896700027832694  0.5340547665076016  0.8674885628022864  1.0000
  C   C20       1.0  0.1663817175222349  0.0217493799877744  0.6323324896477233  1.0000
  C   C21       1.0  0.8480668780771979  0.5093276447195193  0.3494864828586942  1.0000
  C   C22       1.0  0.6594009259516085  0.4987345059423731  0.14995303342406877  1.0000
  C   C23       1.0  0.1519357869795073  0.490673972287098  0.6505193889266395  1.0000
  C   C24       1.0  0.34059999930912  0.5012627121738547  0.850050870090989  1.0000
  C   C25       1.0  0.0379795224332469  0.12374400088543779  0.1815438555340947  1.0000
  C   C26       1.0  0.44246257772410763  0.8567677176034748  0.3185585672933939  1.0000
  C   C27       1.0  0.9620194397723978  0.8762531729215652  0.8184542000555127  1.0000
  C   C28       1.0  0.5575345251975038  0.1432327219755081  0.6814348974156134  1.0000
  C   C29       1.0  0.9470920252928395  0.6970289416168072  0.24951529797156988  1.0000
  C   C30       1.0  0.05290765599393409  0.30296939536144407  0.7504891343696017  1.0000
  C   C31       1.0  0.8156183123647626  0.565801954931061  0.24964854053389035  1.0000
  C   C32       1.0  0.18438136892201135  0.4341963820471832  0.7503558918072812  1.0000
  C   C33       1.0  0.5701391863320354  0.3205093674639273  0.24978632867879477  1.0000
  C   C34       1.0  0.4298618491581223  0.6794911703851555  0.7502196908299937  1.0000
  C   C35       1.0  0.4387218378897302  0.18888859669171856  0.24984788297611968  1.0000
  C   C36       1.0  0.5612774255125788  0.8111074940086455  0.7501518735179645  1.0000
  C   C37       1.0  0.7263718942327487  0.3871527100026526  0.3491181974767202  1.0000
  C   C38       1.0  0.5375467740404929  0.3775725612895613  0.15047018597532977  1.0000
  C   C39       1.0  0.27362681844322645  0.6128456241243116  0.6508850287994933  1.0000
  C   C40       1.0  0.4624563573466105  0.6224235311642515  0.8495335358296785  1.0000
  N   N1        1.0  0.14669403105025944  0.1670627013962829  0.3108111036024042  1.0000
  N   N2        1.0  0.35654849917327186  0.8360863992090373  0.18924056359189492  1.0000
  N   N3        1.0  0.8533069463145255  0.8329377495878207  0.6891871853664214  1.0000
  N   N4        1.0  0.6434506447409731  0.16391735615370348  0.8107565702918649  1.0000
  N   N5        1.0  0.9340043351475986  0.9803611781642375  0.10988256777675091  1.0000
  N   N6        1.0  0.37072766104929405  0.8244423552097542  0.39027439397005287  1.0000
  N   N7        1.0  0.0659946335164179  0.019636005294430003  0.8901163467617438  1.0000
  N   N8        1.0  0.6292765754485785  0.1755602540894117  0.6097235995518631  1.0000
  N   N9        1.0  0.02764017379917052  0.2183756909485979  0.12164077388892033  1.0000
  N   N10       1.0  0.5969752791957249  0.9064907956263186  0.3785268713183287  1.0000
  N   N11       1.0  0.972356857643263  0.7816214868075236  0.878355728519665  1.0000
  N   N12       1.0  0.4030215548210947  0.09351077531763961  0.6214691872306304  1.0000
  O   O1        1.0  0.4670524815282278  0.16511687800756644  0.35753200037972727  1.0000
  O   O2        1.0  0.307346677502494  0.1094510200425916  0.1422215763937942  1.0000
  O   O3        1.0  0.5329462117726252  0.8348814271644044  0.6424686490498318  1.0000
  O   O4        1.0  0.6926536259897844  0.8905483353319211  0.8577763484656629  1.0000
  O   O5        1.0  0.0810975552687694  0.7715824672254925  0.3555163570790398  1.0000
  O   O6        1.0  0.9158354526903312  0.7250453904442582  0.14344824679285761  1.0000
  O   O7        1.0  0.9189058514814975  0.2284125035150169  0.6444856298349038  1.0000
  O   O8        1.0  0.08416383654547842  0.27495073886276333  0.8565549454967608  1.0000
