data_image0
_chemical_formula_structural       Zn4H16C8N16Cl8
_chemical_formula_sum              "Zn4 H16 C8 N16 Cl8"
_cell_length_a       7.374575967028003
_cell_length_b       7.40603078602762
_cell_length_c       13.486335962094818
_cell_angle_alpha    89.99969738760399
_cell_angle_beta     90.00030756595685
_cell_angle_gamma    90.00007056855563

_space_group_name_H-M_alt    "P 1"
_space_group_IT_number       1

loop_
  _space_group_symop_operation_xyz
  'x, y, z'

loop_
  _atom_site_type_symbol
  _atom_site_label
  _atom_site_symmetry_multiplicity
  _atom_site_fract_x
  _atom_site_fract_y
  _atom_site_fract_z
  _atom_site_occupancy
  Zn  Zn1       1.0  0.23611101714026722  0.7236583586673009  0.4247558729350374  1.0000
  Zn  Zn2       1.0  0.7638841680467223  0.22366139730434043  0.5752459921902613  1.0000
  Zn  Zn3       1.0  0.7638834767229171  0.7236590022262631  0.9247553143527013  1.0000
  Zn  Zn4       1.0  0.2361184885068113  0.22365940350572094  0.07524506780204379  1.0000
  H   H1        1.0  0.49472381559448314  0.6078299427906089  0.7079578793422031  1.0000
  H   H2        1.0  0.5052739401119268  0.10782590987419378  0.292041358548488  1.0000
  H   H3        1.0  0.505279256862167  0.6078296334533351  0.20795774512944118  1.0000
  H   H4        1.0  0.4947239228913675  0.10782486895682553  0.7920429757536666  1.0000
  H   H5        1.0  0.48036440869061897  0.6326535596700964  0.5795115186229793  1.0000
  H   H6        1.0  0.5196333773438653  0.13264831939866892  0.42048912966047414  1.0000
  H   H7        1.0  0.5196360772962691  0.6326505676590913  0.0795114265654249  1.0000
  H   H8        1.0  0.4803671327873361  0.1326472606496267  0.9204914462056308  1.0000
  H   H9        1.0  0.2857320456827778  0.7562556664888547  0.8087452940871742  1.0000
  H   H10       1.0  0.7142713153713204  0.2562528544290501  0.19125499275211408  1.0000
  H   H11       1.0  0.714269485341852  0.7562569669088647  0.3087442904269864  1.0000
  H   H12       1.0  0.2857311636927307  0.2562529042582966  0.6912559964063476  1.0000
  H   H13       1.0  0.08616377027679792  0.8478473541616651  0.7584561897180463  1.0000
  H   H14       1.0  0.913836990633378  0.3478429599729296  0.24154382927878967  1.0000
  H   H15       1.0  0.9138373790146944  0.847848902377187  0.2584565134231838  1.0000
  H   H16       1.0  0.0861647379044754  0.3478454625145915  0.7415427640784813  1.0000
  C   C1        1.0  0.2719271155337141  0.7450600960630281  0.6580067941532377  1.0000
  C   C2        1.0  0.7280694517915195  0.24505856383517252  0.3419927839220946  1.0000
  C   C3        1.0  0.7280742782348569  0.7450614136242069  0.1580058310201267  1.0000
  C   C4        1.0  0.2719290691412226  0.2450572462782006  0.8419937470651604  1.0000
  C   C5        1.0  0.0517080775549417  0.913459572089323  0.5811017190425645  1.0000
  C   C6        1.0  0.9482914074872185  0.4134521787476402  0.4188981080874257  1.0000
  C   C7        1.0  0.9482995470855543  0.9134557620985648  0.0810999194433109  1.0000
  C   C8        1.0  0.05170264997412491  0.4134573389945615  0.918899166197441  1.0000
  N   N1        1.0  0.421383733862136  0.6464919193430845  0.6477723540443918  1.0000
  N   N2        1.0  0.5786181371021114  0.14648605316481422  0.352227512287314  1.0000
  N   N3        1.0  0.57861879505775  0.6464890005718119  0.147771693648771  1.0000
  N   N4        1.0  0.4213803638897957  0.14648897193085733  0.8522289141701904  1.0000
  N   N5        1.0  0.21153224558693043  0.7911909554058314  0.7474104615515672  1.0000
  N   N6        1.0  0.788469802124979  0.29118630019272024  0.2525889816362223  1.0000
  N   N7        1.0  0.7884687260713079  0.791189647455788  0.2474096757236239  1.0000
  N   N8        1.0  0.21153196562596582  0.2911862578945232  0.7525890259729096  1.0000
  N   N9        1.0  0.18255617044741265  0.796849318055486  0.5735418369084684  1.0000
  N   N10       1.0  0.8174431721547394  0.29684304038419645  0.4264575897310081  1.0000
  N   N11       1.0  0.8174485255324414  0.7968480460902114  0.0735403946601139  1.0000
  N   N12       1.0  0.18255488510269666  0.2968483631048072  0.9264590319794124  1.0000
  N   N13       1.0  0.9334829822800546  0.019094400687123397  0.5824530936230445  1.0000
  N   N14       1.0  0.06651602104954431  0.5190871694626439  0.4175471452541331  1.0000
  N   N15       1.0  0.0665208511400834  0.019082744545777103  0.08245167135738997  1.0000
  N   N16       1.0  0.933478152180108  0.5190893738509742  0.9175478260423731  1.0000
  Cl  Cl1       1.0  0.5250875266694949  0.6305560827814958  0.41485159323196547  1.0000
  Cl  Cl2       1.0  0.4749102567951838  0.13055596764379374  0.585146836703899  1.0000
  Cl  Cl3       1.0  0.47490675626175266  0.630553667008897  0.9148531522669145  1.0000
  Cl  Cl4       1.0  0.52509238322304  0.13054488089019153  0.085148985146887  1.0000
  Cl  Cl5       1.0  0.16565241906500464  0.9620928189195511  0.3319770707449479  1.0000
  Cl  Cl6       1.0  0.8343457693793823  0.46209235958594513  0.6680233556463762  1.0000
  Cl  Cl7       1.0  0.8343387433064466  0.9620854484894609  0.8319700455944172  1.0000
  Cl  Cl8       1.0  0.16565673308552678  0.4620889280316192  0.1680251903700238  1.0000
