data_image0
_chemical_formula_structural       Zn2H44C68N10O8
_chemical_formula_sum              "Zn2 H44 C68 N10 O8"
_cell_length_a       10.895414971280475
_cell_length_b       16.50878077110938
_cell_length_c       17.66925721766437
_cell_angle_alpha    89.1494219612909
_cell_angle_beta     90.71739721424633
_cell_angle_gamma    89.74655597505075

_space_group_name_H-M_alt    "P 1"
_space_group_IT_number       1

loop_
  _space_group_symop_operation_xyz
  'x, y, z'

loop_
  _atom_site_type_symbol
  _atom_site_label
  _atom_site_symmetry_multiplicity
  _atom_site_fract_x
  _atom_site_fract_y
  _atom_site_fract_z
  _atom_site_occupancy
  Zn  Zn1       1.0  0.5017933676586638  0.5863001930956527  0.5005011778794001  1.0000
  Zn  Zn2       1.0  0.49821730013028537  0.41370434556891666  0.49949587511515164  1.0000
  H   H1        1.0  0.25203435359122034  0.3247357100399028  0.19141655821844952  1.0000
  H   H2        1.0  0.7479735510411699  0.6752450630298767  0.8086146700278152  1.0000
  H   H3        1.0  0.5528820108487196  0.3759518660429606  0.12581878265796584  1.0000
  H   H4        1.0  0.4471287135982466  0.6240423600207805  0.8741817727557262  1.0000
  H   H5        1.0  0.32952595235289556  0.7135388089521015  0.5498320931882859  1.0000
  H   H6        1.0  0.67047009076326  0.2864639476784134  0.4501557800399639  1.0000
  H   H7        1.0  0.6848709691386219  0.7128028574368912  0.46955665070338887  1.0000
  H   H8        1.0  0.3151305137817815  0.28720167558147114  0.5304414446468402  1.0000
  H   H9        1.0  0.11233863522382852  0.3046250475215473  0.4180486683138582  1.0000
  H   H10       1.0  0.8876580203530013  0.6953884402179112  0.5819815476380797  1.0000
  H   H11       1.0  0.20416353087460953  0.2399122229921034  0.305571949347474  1.0000
  H   H12       1.0  0.7958332218085575  0.7600824546531513  0.6944658185729865  1.0000
  H   H13       1.0  0.518091481833153  0.6382932234600956  0.2598127754545203  1.0000
  H   H14       1.0  0.4819073121719911  0.3617107497173464  0.7401739801774383  1.0000
  H   H15       1.0  0.5654842902900442  0.380026289923741  0.26769934544378066  1.0000
  H   H16       1.0  0.4345346115537439  0.6199794473904487  0.7323011713392803  1.0000
  H   H17       1.0  0.9194626087682211  0.9195009961138467  0.3616058763028889  1.0000
  H   H18       1.0  0.9800958254199942  0.9144853174864308  0.4552463103976551  1.0000
  H   H19       1.0  0.020128301356209004  0.8391113371537242  0.38916166283681974  1.0000
  H   H20       1.0  0.8634953066583648  0.7858964167524503  0.4798815436927129  1.0000
  H   H21       1.0  0.8059308836618513  0.7876250498042267  0.386075657050462  1.0000
  H   H22       1.0  0.7004654084627902  0.921180046026194  0.41062759726431614  1.0000
  H   H23       1.0  0.7567456061272041  0.9197568609042648  0.5031676000004881  1.0000
  H   H24       1.0  0.0199028495461491  0.08551917358160209  0.5447619452993706  1.0000
  H   H25       1.0  0.08055832233714712  0.0804780858953933  0.6383949345075592  1.0000
  H   H26       1.0  0.9798887529638945  0.16087428801839818  0.6108684728508535  1.0000
  H   H27       1.0  0.19408712085752466  0.2123636461495053  0.6139442690021966  1.0000
  H   H28       1.0  0.136496830629028  0.21411103322964206  0.5201435966274348  1.0000
  H   H29       1.0  0.24324392574406767  0.08025984014227558  0.49681723642288494  1.0000
  H   H30       1.0  0.29953810463730696  0.07880940680107068  0.5893548261042342  1.0000
  H   H31       1.0  0.9623594870711684  0.6986899874700752  0.326240287842147  1.0000
  H   H32       1.0  0.019656208821686498  0.7050890595341812  0.23269359305209042  1.0000
  H   H33       1.0  0.8614160384770315  0.6859574089743105  0.24742896943876502  1.0000
  H   H34       1.0  0.9715037212394435  0.5571385989775592  0.21411005269705194  1.0000
  H   H35       1.0  0.9124158536260011  0.5504986809718273  0.3063284235170585  1.0000
  H   H36       1.0  0.12084673769071941  0.5892915569983899  0.3591151219575935  1.0000
  H   H37       1.0  0.17811260026913805  0.5939392214090233  0.2663448252159385  1.0000
  H   H38       1.0  0.9803581670627538  0.29491002496125407  0.7673041181998457  1.0000
  H   H39       1.0  0.037654878637333404  0.30131091676000193  0.6737568386273767  1.0000
  H   H40       1.0  0.13859832861219704  0.3140428871351587  0.7525687292624427  1.0000
  H   H41       1.0  0.08759664941905503  0.4495034207869324  0.6936720682283025  1.0000
  H   H42       1.0  0.028508812588853506  0.44285926213208165  0.7858904829758515  1.0000
  H   H43       1.0  0.8219009061054764  0.40605319910731896  0.7336529461092952  1.0000
  H   H44       1.0  0.8791675972345417  0.4107135878808065  0.6408819605843805  1.0000
  C   C1        1.0  0.4644888037955042  0.4895986793094593  0.644061175345108  1.0000
  C   C2        1.0  0.5355172762122038  0.5104064692797934  0.3559346946829365  1.0000
  C   C3        1.0  0.8739688099009372  0.4926070493225154  0.5122822355901064  1.0000
  C   C4        1.0  0.1260389963962112  0.5074010614115139  0.48773003370600077  1.0000
  C   C5        1.0  0.9439707308912305  0.5383365863137399  0.5628247242398035  1.0000
  C   C6        1.0  0.056031615864256416  0.46166912371670316  0.4371818568603062  1.0000
  C   C7        1.0  0.5190742650954476  0.5798892776914072  0.1510318242192028  1.0000
  C   C8        1.0  0.4809282381304811  0.42010741464148527  0.848957872321549  1.0000
  C   C9        1.0  0.525951961705033  0.5812684172268091  0.23004436615994453  1.0000
  C   C10       1.0  0.4740532580989197  0.418731292878931  0.7699481556527134  1.0000
  C   C11       1.0  0.5397175390281178  0.5090948658936512  0.27162688422559  1.0000
  C   C12       1.0  0.4602867200415944  0.4909090755049447  0.7283678485291318  1.0000
  C   C13       1.0  0.5516923621240579  0.43518799129882507  0.23403960488686695  1.0000
  C   C14       1.0  0.44831647705699146  0.564814725113706  0.7659585809350278  1.0000
  C   C15       1.0  0.5451945211983896  0.43297144251502573  0.1556874111831732  1.0000
  C   C16       1.0  0.45481434109598945  0.5670264181870052  0.8443130886669438  1.0000
  C   C17       1.0  0.5258636113413787  0.5046956852570188  0.1128174499716508  1.0000
  C   C18       1.0  0.4741388787953298  0.49529612360229447  0.8871813520732348  1.0000
  C   C19       1.0  0.5093059311106815  0.5015920314509612  0.03400438132452881  1.0000
  C   C20       1.0  0.4906865158452973  0.4983961622676317  0.965989266252926  1.0000
  C   C21       1.0  0.4025651063235571  0.8341713223828433  0.5283427958837664  1.0000
  C   C22       1.0  0.5974345570395769  0.16583139532424696  0.47165473442483125  1.0000
  C   C23       1.0  0.2631451230849393  0.5092560142629309  0.48107103774636073  1.0000
  C   C24       1.0  0.7368609097780023  0.4907472706334629  0.5189361702343193  1.0000
  C   C25       1.0  0.40718918275363336  0.7495722810391212  0.5306788245516003  1.0000
  C   C26       1.0  0.5928095646176033  0.2504322655550694  0.4693158481935811  1.0000
  C   C27       1.0  0.60764388469633  0.75049132021158  0.48603882192749387  1.0000
  C   C28       1.0  0.3923530236356427  0.24951200531041448  0.513958109282328  1.0000
  C   C29       1.0  0.6141171780082219  0.834853064578617  0.482737063481082  1.0000
  C   C30       1.0  0.38588247681513366  0.16515208329731482  0.5172587438570773  1.0000
  C   C31       1.0  0.5073179436438197  0.8779513748798492  0.5040037600418829  1.0000
  C   C32       1.0  0.4926808018358385  0.12205134272534217  0.4959937613110199  1.0000
  C   C33       1.0  0.5031408674413242  0.9631290847892371  0.5010554670066798  1.0000
  C   C34       1.0  0.4968587681554553  0.0368778758805632  0.4989414534180484  1.0000
  C   C35       1.0  0.18829885300171162  0.4353693185762707  0.2416213722662306  1.0000
  C   C36       1.0  0.8117053664413239  0.5646254547414031  0.7583932630903976  1.0000
  C   C37       1.0  0.1387047686372611  0.47383045231157445  0.3055908025223034  1.0000
  C   C38       1.0  0.8613059135734035  0.5261637413618985  0.6944176762799685  1.0000
  C   C39       1.0  0.11182966170031251  0.42476686702661226  0.3690942773829492  1.0000
  C   C40       1.0  0.8881735387143265  0.5752418397505535  0.6309202046846211  1.0000
  C   C41       1.0  0.1347537959304148  0.3412133690534276  0.36826121065258394  1.0000
  C   C42       1.0  0.8652447896546678  0.6587892259314785  0.6317663063856573  1.0000
  C   C43       1.0  0.1860819776660776  0.3048904640869168  0.3052895886164606  1.0000
  C   C44       1.0  0.8139194003816144  0.6951030232761326  0.6947431430262656  1.0000
  C   C45       1.0  0.212970846796928  0.3518150929120053  0.24162374970971007  1.0000
  C   C46       1.0  0.7870352186926013  0.648171159980201  0.758400612670961  1.0000
  C   C47       1.0  0.9293760562223097  0.453567661244783  0.45083345221739535  1.0000
  C   C48       1.0  0.07062073823454541  0.5464392320252004  0.549179854073728  1.0000
  C   C49       1.0  0.29294216594303185  0.8755495379101746  0.5483879101131492  1.0000
  C   C50       1.0  0.7070593260280091  0.12445500204896118  0.45160848736809817  1.0000
  C   C51       1.0  0.7270066736309175  0.8792820861933208  0.4573212802480385  1.0000
  C   C52       1.0  0.8350938998475995  0.8268084639619669  0.43289743726901264  1.0000
  C   C53       1.0  0.9447843622294272  0.87785387148795  0.40839261145831074  1.0000
  C   C54       1.0  0.27299484661732987  0.12072064791270518  0.542672306277666  1.0000
  C   C55       1.0  0.16490846184045443  0.17318933818699375  0.5671171487994044  1.0000
  C   C56       1.0  0.05522814316982761  0.1221378760253558  0.5916215699200864  1.0000
  C   C57       1.0  0.21123771891558357  0.48244227013015  0.1748683239246773  1.0000
  C   C58       1.0  0.788769397048263  0.5175361652124978  0.8251419800832382  1.0000
  C   C59       1.0  0.11064155500737631  0.563206197883261  0.3025099931311601  1.0000
  C   C60       1.0  0.9808163711347293  0.5820545337947607  0.2713399292487466  1.0000
  C   C61       1.0  0.954405318255752  0.6729608232191919  0.2692748314707316  1.0000
  C   C62       1.0  0.8893728071733946  0.43679226692361783  0.6974911201341031  1.0000
  C   C63       1.0  0.0191943167506707  0.4179451468457244  0.7286600037303473  1.0000
  C   C64       1.0  0.045609971114558306  0.3270388671851591  0.7307228824615423  1.0000
  C   C65       1.0  0.8580541041598765  0.4043391118653545  0.4011352907716984  1.0000
  C   C66       1.0  0.1419436265371559  0.5956690139428743  0.5988729183174542  1.0000
  C   C67       1.0  0.5024148920965105  0.6535269558004231  0.1089096570148982  1.0000
  C   C68       1.0  0.49758031970754496  0.34646429270845386  0.8910777605332287  1.0000
  N   N1        1.0  0.507669175097412  0.7096566933084958  0.5090443615613296  1.0000
  N   N2        1.0  0.4923304901573005  0.29034785338760116  0.4909503201395395  1.0000
  N   N3        1.0  0.20255686624660998  0.9097088696364535  0.5634570348629708  1.0000
  N   N4        1.0  0.7974418931921365  0.09029568621210159  0.436535374056895  1.0000
  N   N5        1.0  0.2278955814307295  0.5212731276456991  0.12014226600805243  1.0000
  N   N6        1.0  0.7721070945307033  0.47869141064348497  0.8798590822535035  1.0000
  N   N7        1.0  0.8032394023103607  0.36169970944352764  0.3609259541840474  1.0000
  N   N8        1.0  0.1967555604181186  0.6383120601554566  0.6390799265605198  1.0000
  N   N9        1.0  0.4901188277815153  0.7144764238864167  0.07512630077461323  1.0000
  N   N10       1.0  0.5098644825759706  0.2855118012034125  0.9248593338572848  1.0000
  O   O1        1.0  0.4682075882151367  0.5581017189431845  0.6099613412155167  1.0000
  O   O2        1.0  0.531799387688018  0.44190645878305895  0.39003450639140885  1.0000
  O   O3        1.0  0.4667476528834982  0.42063124860928974  0.6125136691733815  1.0000
  O   O4        1.0  0.5332620824484309  0.5793757154950328  0.3874827838076911  1.0000
  O   O5        1.0  0.3140185331759895  0.5779173273351929  0.47698141610661793  1.0000
  O   O6        1.0  0.685987470539871  0.4220908086445192  0.523024609758501  1.0000
  O   O7        1.0  0.31377004657247914  0.4399998572834391  0.48326740227864207  1.0000
  O   O8        1.0  0.6862341397331235  0.5600095109288145  0.5167334995174144  1.0000
