data_image0
_chemical_formula_structural       Sm2H46C80O22
_chemical_formula_sum              "Sm2 H46 C80 O22"
_cell_length_a       12.136323249483448
_cell_length_b       12.087108467108736
_cell_length_c       13.19102968643514
_cell_angle_alpha    67.94445456701342
_cell_angle_beta     88.43390769548692
_cell_angle_gamma    76.99819994439046

_space_group_name_H-M_alt    "P 1"
_space_group_IT_number       1

loop_
  _space_group_symop_operation_xyz
  'x, y, z'

loop_
  _atom_site_type_symbol
  _atom_site_label
  _atom_site_symmetry_multiplicity
  _atom_site_fract_x
  _atom_site_fract_y
  _atom_site_fract_z
  _atom_site_occupancy
  Sm  Sm1       1.0  0.6003846629514271  0.3063614453692481  0.407230895562904  1.0000
  Sm  Sm2       1.0  0.39961624014506475  0.6936387688806323  0.5927695691771433  1.0000
  H   H1        1.0  0.6158061321814685  0.3456336625023085  0.05354994994089421  1.0000
  H   H2        1.0  0.3841929197412099  0.6543674837917733  0.9464487333886213  1.0000
  H   H3        1.0  0.4865114489857731  0.2978995554130393  0.9382684788227778  1.0000
  H   H4        1.0  0.5134881796836409  0.7020988371348551  0.06173189343694931  1.0000
  H   H5        1.0  0.3365033001715005  0.4243923076813587  0.24504205785184038  1.0000
  H   H6        1.0  0.6634957656568758  0.5756088358998211  0.7549589003001458  1.0000
  H   H7        1.0  0.9807825407609839  0.3918618885000242  0.184872816774984  1.0000
  H   H8        1.0  0.019217083273204576  0.6081365049521636  0.8151267972105884  1.0000
  H   H9        1.0  0.8866483341600425  0.29596521807751947  0.9203605452988839  1.0000
  H   H10       1.0  0.11335027357055336  0.7040340992994558  0.0796387811462367  1.0000
  H   H11       1.0  0.08552284061740069  0.27310474998556344  0.865019217168644  1.0000
  H   H12       1.0  0.9144765927129511  0.7268945610805846  0.13498008659824012  1.0000
  H   H13       1.0  0.3500183111991717  0.07501347768074851  0.9941371330900566  1.0000
  H   H14       1.0  0.6499825826268546  0.9249867383777258  0.005861815101681599  1.0000
  H   H15       1.0  0.4174203310818782  0.9866134161036301  0.8556068848081467  1.0000
  H   H16       1.0  0.5825811976400743  0.013387711257991002  0.1443917304866673  1.0000
  H   H17       1.0  0.41203445254323157  0.1266285562160263  0.6570236517110855  1.0000
  H   H18       1.0  0.5879656203182718  0.8733716652489676  0.3429760774330433  1.0000
  H   H19       1.0  0.3439676333669155  0.3511000172684433  0.6053814740655028  1.0000
  H   H20       1.0  0.6560297719914913  0.6489011407429714  0.39461801289463955  1.0000
  H   H21       1.0  0.784052058550742  0.997417555447008  0.2622072493791734  1.0000
  H   H22       1.0  0.21594966551027275  0.0025826533963453006  0.7377924344084832  1.0000
  H   H23       1.0  0.9858539820929052  0.9338549138828398  0.2268343727250369  1.0000
  H   H24       1.0  0.014147116342648793  0.0661443818487797  0.7731671605078532  1.0000
  H   H25       1.0  0.8766176902433642  0.2211093329682683  0.4221777728129652  1.0000
  H   H26       1.0  0.1233835942607939  0.7788890460536847  0.5778233123644512  1.0000
  H   H27       1.0  0.2368726310474471  0.23505632609500549  0.47685265132570004  1.0000
  H   H28       1.0  0.7631258487637355  0.7649475730409635  0.5231451013477582  1.0000
  H   H29       1.0  0.3889697632152647  0.9987912535018779  0.2440044540392635  1.0000
  H   H30       1.0  0.6110313398555292  0.0012080413254409003  0.7559978374677883  1.0000
  H   H31       1.0  0.5184443982925372  0.0810232563875388  0.3250996781920249  1.0000
  H   H32       1.0  0.48155670477824947  0.9189760384397727  0.6749026133150269  1.0000
  H   H33       1.0  0.09784690946171538  0.0769659003183349  0.06890495637118481  1.0000
  H   H34       1.0  0.9021529819664167  0.9230352369520246  0.9310959791025653  1.0000
  H   H35       1.0  0.1609250833557069  0.9606935869647658  0.9489845717346483  1.0000
  H   H36       1.0  0.8390741685412736  0.03930663990674791  0.0510159383618642  1.0000
  H   H37       1.0  0.3013748224642895  0.7612411900354631  0.022080764205973873  1.0000
  H   H38       1.0  0.6986236038329351  0.23875904314687804  0.9779197685687748  1.0000
  H   H39       1.0  0.3758111524365475  0.6748592227122856  0.2177043502494982  1.0000
  H   H40       1.0  0.6241874599292814  0.325140093760389  0.782295734469777  1.0000
  H   H41       1.0  0.798557954602529  0.3908386693897229  0.1405473736581513  1.0000
  H   H42       1.0  0.20144166943165936  0.6091597240624723  0.859452240327414  1.0000
  H   H43       1.0  0.3725079328683662  0.43502143508381164  0.4479122945428101  1.0000
  H   H44       1.0  0.6274929655928929  0.5649787800703622  0.5520874119230755  1.0000
  H   H45       1.0  0.423704485444823  0.552156883364006  0.39846341166516197  1.0000
  H   H46       1.0  0.576296417651669  0.447843330885867  0.6015370530748853  1.0000
  C   C1        1.0  0.4860581795702429  0.3848746218799874  0.15855517917299267  1.0000
  C   C2        1.0  0.5139410630562722  0.6151256068001274  0.8414438143752108  1.0000
  C   C3        1.0  0.5264672334459988  0.35022108813870995  0.06836376481845723  1.0000
  C   C4        1.0  0.4735322045195858  0.6497782220231444  0.9316362972225888  1.0000
  C   C5        1.0  0.455598560212266  0.3241957687162015  0.006209579315282093  1.0000
  C   C6        1.0  0.5444025428585276  0.6758035261111102  0.9937927121917695  1.0000
  C   C7        1.0  0.3385950799197062  0.33186854455513537  0.02727401031632582  1.0000
  C   C8        1.0  0.661403727785185  0.6681298533992787  0.9727271428957919  1.0000
  C   C9        1.0  0.29912426707796413  0.36984739554100804  0.1151186448385602  1.0000
  C   C10       1.0  0.7008751662523878  0.6301519155251398  0.8848806589283242  1.0000
  C   C11       1.0  0.3690069705922382  0.3974665489152471  0.17797652819574236  1.0000
  C   C12       1.0  0.6309924534676482  0.6025327639595022  0.8220212590228256  1.0000
  C   C13       1.0  0.2620492512669443  0.307882300706197  0.9651358194246454  1.0000
  C   C14       1.0  0.7379503820377094  0.6921160909373968  0.03486531110924326  1.0000
  C   C15       1.0  0.14754987031028577  0.3172745534042463  0.9937415449415424  1.0000
  C   C16       1.0  0.8524497583591282  0.6827238391436481  0.0062588273181916525  1.0000
  C   C17       1.0  0.1135560009136114  0.3521917710607312  0.0833747645761491  1.0000
  C   C18       1.0  0.8864428067912867  0.6478066268936828  0.9166263886359758  1.0000
  C   C19       1.0  0.0034159687697012803  0.3636179354634876  0.11640789570183331  1.0000
  C   C20       1.0  0.9965836552644874  0.6363804579887073  0.8835917182837393  1.0000
  C   C21       1.0  0.9214095693666805  0.34248765008225496  0.05753057704188791  1.0000
  C   C22       1.0  0.07858941977158196  0.6575098320667935  0.9424693698406015  1.0000
  C   C23       1.0  0.9521359724081789  0.3097434302672397  0.9659670547130617  1.0000
  C   C24       1.0  0.047865498164583166  0.690254032045047  0.03403358240888822  1.0000
  C   C25       1.0  0.06212441178557525  0.29748212620460635  0.9355924379189631  1.0000
  C   C26       1.0  0.9378743866488577  0.7025162735584018  0.06440719874484563  1.0000
  C   C27       1.0  0.30303530308506044  0.2617006506051426  0.8775531184151787  1.0000
  C   C28       1.0  0.6969647651412103  0.738299571764152  0.12244585245478863  1.0000
  C   C29       1.0  0.3467151002605107  0.13515675099259283  0.9081094607875854  1.0000
  C   C30       1.0  0.6532859842693455  0.8648425474519216  0.09188979762283365  1.0000
  C   C31       1.0  0.38510882764611404  0.08563798985517929  0.8298609934745188  1.0000
  C   C32       1.0  0.6148910545115596  0.9143631492237819  0.1701384254509151  1.0000
  C   C33       1.0  0.382180574791107  0.16266857452963995  0.7196907718945765  1.0000
  C   C34       1.0  0.617818481766811  0.8373325708601417  0.2803086697091004  1.0000
  C   C35       1.0  0.3428579757677566  0.28868736456306726  0.6898330191947794  1.0000
  C   C36       1.0  0.6571412668587654  0.7113128641170477  0.31016597435341714  1.0000
  C   C37       1.0  0.3029294227020286  0.33979453536906595  0.7668052154114448  1.0000
  C   C38       1.0  0.6970688082561266  0.6602066163315358  0.2331942488704613  1.0000
  C   C39       1.0  0.26541022033845246  0.47688358046993073  0.7319487893228924  1.0000
  C   C40       1.0  0.7345871803847217  0.5231175784457915  0.2680499393630882  1.0000
  C   C41       1.0  0.38773945241335633  0.1625765549496663  0.4078522690607755  1.0000
  C   C42       1.0  0.6122600529718769  0.837426418452921  0.5921472877014439  1.0000
  C   C43       1.0  0.8133580556257486  0.11825094861516312  0.3407678800363243  1.0000
  C   C44       1.0  0.1866438684095612  0.881748340805629  0.6592336305183364  1.0000
  C   C45       1.0  0.8491218736066771  0.0329110757280162  0.2871556252865588  1.0000
  C   C46       1.0  0.15087839922912835  0.9670882263144166  0.7128459306245672  1.0000
  C   C47       1.0  0.960494328866659  0.9982145778480033  0.267729473860456  1.0000
  C   C48       1.0  0.0395088021760799  0.0017828700340417  0.7322726344533379  1.0000
  C   C49       1.0  0.0464833679625301  0.0442853365343936  0.299879611620895  1.0000
  C   C50       1.0  0.9535181118806906  0.9557121239692917  0.7001225420493712  1.0000
  C   C51       1.0  0.010474448652715289  0.12286253345705943  0.3587214908012015  1.0000
  C   C52       1.0  0.9895270311905051  0.8771349270466331  0.6412806628690646  1.0000
  C   C53       1.0  0.8988296978738504  0.1601359860209186  0.3778453815398564  1.0000
  C   C54       1.0  0.10117140056170361  0.839863309710701  0.6221561516930337  1.0000
  C   C55       1.0  0.1612768028808489  0.0172661738085722  0.2778272178274008  1.0000
  C   C56       1.0  0.838724295554705  0.9827331219230473  0.7221743154054964  1.0000
  C   C57       1.0  0.23878910747149715  0.0680984816594119  0.31471081058708716  1.0000
  C   C58       1.0  0.7612116095563902  0.9319026493001273  0.6852901022084339  1.0000
  C   C59       1.0  0.19961077899417745  0.1381297677532203  0.3801476931868493  1.0000
  C   C60       1.0  0.8003899287632451  0.8618713650149203  0.6198517030603555  1.0000
  C   C61       1.0  0.27106900638261777  0.1828963752019845  0.4267572794881147  1.0000
  C   C62       1.0  0.7289304943673826  0.8171065991049031  0.5732415189999501  1.0000
  C   C63       1.0  0.3563377072613392  0.049937322549766294  0.295402245682773  1.0000
  C   C64       1.0  0.6436640307053664  0.9500628835806919  0.7045997129273546  1.0000
  C   C65       1.0  0.42849441128272053  0.09429303183546976  0.3402734236424791  1.0000
  C   C66       1.0  0.571506305745167  0.9057080991240697  0.6597274891530417  1.0000
  C   C67       1.0  0.1991158975327848  0.9416026858087109  0.21131889778229854  1.0000
  C   C68       1.0  0.8008848148598701  0.0583984460551292  0.7886812567390608  1.0000
  C   C69       1.0  0.15794853159164288  0.9882096692860146  0.10152133499177302  1.0000
  C   C70       1.0  0.8420505342367336  0.011791474295165501  0.8984796231602131  1.0000
  C   C71       1.0  0.1942875177673072  0.923518720540862  0.034028615105413065  1.0000
  C   C72       1.0  0.8057100829301616  0.0764815189522992  0.9659719403475648  1.0000
  C   C73       1.0  0.27385235675784964  0.8115334510600787  0.07496163578818489  1.0000
  C   C74       1.0  0.7261460695393751  0.18846678212226212  0.9250388969865639  1.0000
  C   C75       1.0  0.31525971435833355  0.7634051683159981  0.18409391715786683  1.0000
  C   C76       1.0  0.6847387073036587  0.2365950657706364  0.8159058573427203  1.0000
  C   C77       1.0  0.2772382691185625  0.8264936060266949  0.2531526158514906  1.0000
  C   C78       1.0  0.7227620037172358  0.1735056960157451  0.7468489400596353  1.0000
  C   C79       1.0  0.31498061914527403  0.769133950890719  0.37179102229471545  1.0000
  C   C80       1.0  0.6850200932473808  0.2308671809731209  0.628209132226644  1.0000
  O   O1        1.0  0.45606223114341293  0.20721514281502354  0.4481223312398441  1.0000
  O   O2        1.0  0.5439366347106684  0.7927869201887249  0.5518768001451378  1.0000
  O   O3        1.0  0.5563353477491688  0.4017024433933259  0.2200247597580756  1.0000
  O   O4        1.0  0.44366409485164837  0.5982968658642279  0.7799760605571252  1.0000
  O   O5        1.0  0.7070188945805709  0.1536064629935865  0.35425446432169144  1.0000
  O   O6        1.0  0.29298200388068796  0.8463937521605872  0.6457452421442014  1.0000
  O   O7        1.0  0.1885952959391801  0.3783475317266464  0.14122077420293525  1.0000
  O   O8        1.0  0.8114045234340708  0.6216499432072808  0.8587799082754799  1.0000
  O   O9        1.0  0.812779177052249  0.3539195556774288  0.08263278405175363  1.0000
  O   O10       1.0  0.1872214679207573  0.6460779129456782  0.9173678757484325  1.0000
  O   O11       1.0  0.20747027870649506  0.5178775855259871  0.7961336994714472  1.0000
  O   O12       1.0  0.7925273080852832  0.4821226566800689  0.20386458115905984  1.0000
  O   O13       1.0  0.2956959957592744  0.542858885973381  0.63889688235772  1.0000
  O   O14       1.0  0.7043012096248304  0.4571431914606023  0.3611007778354107  1.0000
  O   O15       1.0  0.08753369987419288  0.16524872700424  0.3992115102284046  1.0000
  O   O16       1.0  0.9124672078575314  0.8347514863413396  0.6007897127857972  1.0000
  O   O17       1.0  0.2561743510435263  0.8050847117361644  0.43934874271194246  1.0000
  O   O18       1.0  0.7438265474177327  0.19491550341800953  0.5606509637539502  1.0000
  O   O19       1.0  0.40751898525751057  0.6848356711440077  0.4051495174716493  1.0000
  O   O20       1.0  0.5924809015353956  0.31516546703065274  0.5948506597279462  1.0000
  O   O21       1.0  0.4268649873868782  0.4689150480575322  0.3970537864396846  1.0000
  O   O22       1.0  0.5731348947707885  0.5310860910214218  0.6029456324857491  1.0000
