data_image0
_chemical_formula_structural       Cu2H8C12N12O4
_chemical_formula_sum              "Cu2 H8 C12 N12 O4"
_cell_length_a       5.942059819362213
_cell_length_b       6.858125994491302
_cell_length_c       10.424937708040298
_cell_angle_alpha    89.99844283533695
_cell_angle_beta     88.26451892678207
_cell_angle_gamma    89.99823680314616

_space_group_name_H-M_alt    "P 1"
_space_group_IT_number       1

loop_
  _space_group_symop_operation_xyz
  'x, y, z'

loop_
  _atom_site_type_symbol
  _atom_site_label
  _atom_site_symmetry_multiplicity
  _atom_site_fract_x
  _atom_site_fract_y
  _atom_site_fract_z
  _atom_site_occupancy
  Cu  Cu1       1.0  0.5935056579375837  0.2499845852036273  0.752608720261982  1.0000
  Cu  Cu2       1.0  0.406488390811404  0.750015409705824  0.24738716276404923  1.0000
  H   H1        1.0  0.3595288394558125  0.569239429452999  0.6120463847465487  1.0000
  H   H2        1.0  0.640485001190356  0.0692594780986937  0.3879638369606084  1.0000
  H   H3        1.0  0.6404699477632292  0.4307649397262452  0.3879515782978443  1.0000
  H   H4        1.0  0.3595232631215025  0.9307448908744931  0.6120382862005584  1.0000
  H   H5        1.0  0.8294012541423825  0.5669208422655813  0.9013924766762216  1.0000
  H   H6        1.0  0.17060742446525273  0.0669660184584444  0.09860798758009541  1.0000
  H   H7        1.0  0.1705990637809549  0.4330791525009232  0.09860649913562011  1.0000
  H   H8        1.0  0.8293980719922159  0.9330339762551887  0.901390193918488  1.0000
  C   C1        1.0  0.12659584532267582  0.24997737892937272  0.8400353305472522  1.0000
  C   C2        1.0  0.8733994408309017  0.7500167834096133  0.15996348150734013  1.0000
  C   C3        1.0  0.084771190799394  0.24998503298307642  0.699952820271605  1.0000
  C   C4        1.0  0.9152235085511791  0.7500178780346757  0.3000498241984745  1.0000
  C   C5        1.0  0.46405814383893323  0.6487934884194788  0.6777972488731052  1.0000
  C   C6        1.0  0.5359395016784205  0.14879990104054747  0.3222110802245126  1.0000
  C   C7        1.0  0.5359455286399921  0.35120796442490837  0.3222018361324785  1.0000
  C   C8        1.0  0.4640705866374263  0.8512015516776118  0.6777901394429975  1.0000
  C   C9        1.0  0.7247290729071452  0.6482868255784096  0.8363019059105241  1.0000
  C   C10       1.0  0.2752688189845571  0.1483296208567069  0.1636939219124969  1.0000
  C   C11       1.0  0.27527627681140393  0.3517175434913326  0.1636972336719182  1.0000
  C   C12       1.0  0.7247333229173236  0.8516689157790439  0.8363041503923441  1.0000
  N   N1        1.0  0.24106134098887816  0.24999357727054417  0.6045430762732735  1.0000
  N   N2        1.0  0.7589319743963258  0.7500093338038525  0.39545759734549796  1.0000
  N   N3        1.0  0.12532260114563343  0.24999286649878624  0.494832347185465  1.0000
  N   N4        1.0  0.874674362222116  0.7500056701898288  0.5051665194326418  1.0000
  N   N5        1.0  0.906776185566848  0.24998638471785736  0.5227902436968037  1.0000
  N   N6        1.0  0.09322260167763831  0.7500165263371129  0.4772077193609334  1.0000
  N   N7        1.0  0.8780706448234527  0.2499813567324409  0.6506886669611021  1.0000
  N   N8        1.0  0.12192128652004185  0.7500259287714288  0.3493100357663295  1.0000
  N   N9        1.0  0.5935425353403403  0.5477903394002297  0.757198464660597  1.0000
  N   N10       1.0  0.4064483612312131  0.04781492681454579  0.24280174924942344  1.0000
  N   N11       1.0  0.4064556653047474  0.4522096553393028  0.24280333091935796  1.0000
  N   N12       1.0  0.5935571352517073  0.9521836097748064  0.7571964322624964  1.0000
  O   O1        1.0  0.3334096909958362  0.2499725192959446  0.8745698410820779  1.0000
  O   O2        1.0  0.666582891432796  0.7500099779549672  0.1254356233429093  1.0000
  O   O3        1.0  0.9599604068837734  0.24997800941830656  0.9168555626079709  1.0000
  O   O4        1.0  0.040053686741956085  0.7500190687403786  0.0831525277773792  1.0000
