data_image0
_chemical_formula_structural       Sr2H44C32N8O20
_chemical_formula_sum              "Sr2 H44 C32 N8 O20"
_cell_length_a       9.254549988281658
_cell_length_b       9.254609846360056
_cell_length_c       11.576493014300677
_cell_angle_alpha    96.6517441841295
_cell_angle_beta     96.65136131880638
_cell_angle_gamma    90.32409960122172

_space_group_name_H-M_alt    "P 1"
_space_group_IT_number       1

loop_
  _space_group_symop_operation_xyz
  'x, y, z'

loop_
  _atom_site_type_symbol
  _atom_site_label
  _atom_site_symmetry_multiplicity
  _atom_site_fract_x
  _atom_site_fract_y
  _atom_site_fract_z
  _atom_site_occupancy
  Sr  Sr1       1.0  0.9216816339219565  0.07831890457755719  0.750000224007387  1.0000
  Sr  Sr2       1.0  0.0783177235579871  0.9216815635135942  0.24999949068018884  1.0000
  H   H1        1.0  0.4463806562600752  0.8355255983414054  0.928164361295636  1.0000
  H   H2        1.0  0.16447606571821183  0.5536175321033241  0.5718326619767211  1.0000
  H   H3        1.0  0.5536208526508375  0.1644737754079273  0.0718354464822895  1.0000
  H   H4        1.0  0.8355243554040398  0.4463818447939828  0.42816705028132424  1.0000
  H   H5        1.0  0.0434658368277994  0.142914210784717  0.0202038524818775  1.0000
  H   H6        1.0  0.8570833396012458  0.9565373917103341  0.4797948815548382  1.0000
  H   H7        1.0  0.9565389354490961  0.8570851535206642  0.9797962418557307  1.0000
  H   H8        1.0  0.14291600006034597  0.04346199466690591  0.5202056001463831  1.0000
  H   H9        1.0  0.8745185050048219  0.1551553129696757  0.02032094032453808  1.0000
  H   H10       1.0  0.8448456643490374  0.1254841007959939  0.47967824462035946  1.0000
  H   H11       1.0  0.1254840790387561  0.8448440449677788  0.9796772330471342  1.0000
  H   H12       1.0  0.15515473895486304  0.8745141943874085  0.5203222346513314  1.0000
  H   H13       1.0  0.2893467695248404  0.16304958354297838  0.6939945139355217  1.0000
  H   H14       1.0  0.8369503587984468  0.7106522254552843  0.8060052450029433  1.0000
  H   H15       1.0  0.7106514886760849  0.836949812314188  0.3060067372088895  1.0000
  H   H16       1.0  0.1630501169444969  0.2893493338656867  0.19399552811702142  1.0000
  H   H17       1.0  0.649107921751991  0.30662385118310437  0.613158680984796  1.0000
  H   H18       1.0  0.693379071590364  0.35089007653684945  0.8868423499635157  1.0000
  H   H19       1.0  0.35088931477131524  0.6933788056276737  0.3868419035249246  1.0000
  H   H20       1.0  0.30662137367824016  0.6491103884063134  0.1131574602439471  1.0000
  H   H21       1.0  0.47076045403522937  0.36850926712763515  0.6302269022196683  1.0000
  H   H22       1.0  0.6314956236680871  0.5292398396577198  0.8697743408495598  1.0000
  H   H23       1.0  0.5292367824880841  0.6314933896831432  0.3697736822900453  1.0000
  H   H24       1.0  0.368503715993505  0.4707595467195206  0.13022614085166145  1.0000
  H   H25       1.0  0.5533920802517542  0.1218497993097856  0.451894238098582  1.0000
  H   H26       1.0  0.878151387408373  0.44660763174014295  0.04810554969542119  1.0000
  H   H27       1.0  0.44660515627155206  0.8781528575009927  0.5481063464111315  1.0000
  H   H28       1.0  0.12184688861090362  0.5533928458309416  0.9518949344353376  1.0000
  H   H29       1.0  0.3719344676795089  0.1607176208276826  0.4754096185058642  1.0000
  H   H30       1.0  0.8392857215879629  0.6280647191087141  0.024591819176933382  1.0000
  H   H31       1.0  0.6280627625158032  0.8392850296511509  0.5245901010407721  1.0000
  H   H32       1.0  0.160712530284961  0.3719346704165075  0.9754085670044006  1.0000
  H   H33       1.0  0.3980782175015207  0.4109733447283972  0.4207856406256099  1.0000
  H   H34       1.0  0.5890288289734541  0.6019195324782273  0.0792153572395478  1.0000
  H   H35       1.0  0.6019189822194447  0.5890282113726356  0.579213116008532  1.0000
  H   H36       1.0  0.4109704802137841  0.398078759521212  0.9207841615491789  1.0000
  H   H37       1.0  0.4439854488148356  0.28209815918273057  0.3059027403937549  1.0000
  H   H38       1.0  0.7179017958888991  0.5560141177909373  0.19409684857422604  1.0000
  H   H39       1.0  0.5560138718627599  0.7179012081986685  0.6940951464182421  1.0000
  H   H40       1.0  0.2820975742470395  0.44398636296410376  0.8059045960394968  1.0000
  H   H41       1.0  0.5835508766866724  0.3804770597036509  0.4000318030201413  1.0000
  H   H42       1.0  0.6195246511623508  0.4164494389864473  0.0999670225982854  1.0000
  H   H43       1.0  0.41644959272827725  0.6195244932853754  0.599968105136746  1.0000
  H   H44       1.0  0.380474682171247  0.5835499410588484  0.9000325941398658  1.0000
  C   C1        1.0  0.5651054659355026  0.001514229834292302  0.8102132553795229  1.0000
  C   C2        1.0  0.9984848166451811  0.43489232731994326  0.6897824521708459  1.0000
  C   C3        1.0  0.4348949971514458  0.9984873168227895  0.18978578781428723  1.0000
  C   C4        1.0  0.001514563815455003  0.5651102915351416  0.3102139985632775  1.0000
  C   C5        1.0  0.4150880493919047  0.0228130643552973  0.7997759967455097  1.0000
  C   C6        1.0  0.9771872038602964  0.5849092912692554  0.7002202780831156  1.0000
  C   C7        1.0  0.5849123780583412  0.9771863188739616  0.20022458047560582  1.0000
  C   C8        1.0  0.0228121472916385  0.4150911704899513  0.299778571641383  1.0000
  C   C9        1.0  0.5207377373969492  0.16581276238839135  0.6913495046796286  1.0000
  C   C10       1.0  0.8341880970952856  0.47926281235687906  0.8086498052947562  1.0000
  C   C11       1.0  0.4792616390669834  0.8341877246985945  0.3086528048971715  1.0000
  C   C12       1.0  0.1658112235823097  0.5207365550245272  0.1913480815172406  1.0000
  C   C13       1.0  0.6522497198061927  0.8953449862719224  0.8732202502472859  1.0000
  C   C14       1.0  0.1046558897831176  0.34774753232709094  0.6267779230032033  1.0000
  C   C15       1.0  0.34775182474142236  0.10465655090523282  0.12677802350334136  1.0000
  C   C16       1.0  0.89534232012511  0.6522496874383562  0.37322313224236586  1.0000
  C   C17       1.0  0.2962350307210215  0.9641204930208573  0.8547644120661247  1.0000
  C   C18       1.0  0.03587896487095321  0.703763424305322  0.6452315254912976  1.0000
  C   C19       1.0  0.703771814219813  0.0358745064731849  0.14523461655048922  1.0000
  C   C20       1.0  0.9641204420673263  0.29623815715947194  0.35477174699800434  1.0000
  C   C21       1.0  0.53441879228059  0.27201905820422917  0.6061511032199292  1.0000
  C   C22       1.0  0.7279830318492202  0.4655801670759203  0.8938484448574188  1.0000
  C   C23       1.0  0.46557952054102714  0.7279825200766011  0.3938512087864083  1.0000
  C   C24       1.0  0.27201520103971427  0.5344192034534669  0.106149346434691  1.0000
  C   C25       1.0  0.4809183686339864  0.2098356222695656  0.4790118965831311  1.0000
  C   C26       1.0  0.7901674817565477  0.5190816113362117  0.02098855154801529  1.0000
  C   C27       1.0  0.5190810739409956  0.7901681226230438  0.5209898418788657  1.0000
  C   C28       1.0  0.20983073331403548  0.48091667747926453  0.9790100067577471  1.0000
  C   C29       1.0  0.47654955939794524  0.32752298355192266  0.3969832782899374  1.0000
  C   C30       1.0  0.6724795874037993  0.5234499477847621  0.1030165733158128  1.0000
  C   C31       1.0  0.5234498222283435  0.672478572585092  0.6030165343470558  1.0000
  C   C32       1.0  0.327519776404138  0.47655052663833425  0.896984006334833  1.0000
  N   N1        1.0  0.628690772731879  0.0918796638336943  0.7435060209946016  1.0000
  N   N2        1.0  0.9081222906391488  0.3713089528189784  0.7564945101554059  1.0000
  N   N3        1.0  0.3713085847480571  0.9081208042574642  0.256493693692974  1.0000
  N   N4        1.0  0.09187815462945541  0.6286915121241919  0.2435053000520568  1.0000
  N   N5        1.0  0.3911256015575758  0.12664992266365965  0.7244235889932256  1.0000
  N   N6        1.0  0.8733493022037351  0.6088737007924079  0.775574867064428  1.0000
  N   N7        1.0  0.6088726198410085  0.873348372483761  0.27557583427561383  1.0000
  N   N8        1.0  0.12665008575054773  0.39112786167654434  0.22442581053564237  1.0000
  O   O1        1.0  0.7874949047823848  0.8885076252528918  0.8620331163180027  1.0000
  O   O2        1.0  0.1114975208766396  0.21250104180172968  0.6379657675492753  1.0000
  O   O3        1.0  0.212506615618878  0.11149282387840737  0.1379650594832  1.0000
  O   O4        1.0  0.8885017704922544  0.7874961684837982  0.3620345182530968  1.0000
  O   O5        1.0  0.5876836138913716  0.8116503714350286  0.9327325778984064  1.0000
  O   O6        1.0  0.1883517482176345  0.4123132189947043  0.5672673398671577  1.0000
  O   O7        1.0  0.41231683653958134  0.1883511625581633  0.0672647353692568  1.0000
  O   O8        1.0  0.8116454285226311  0.5876861863423883  0.4327346807204364  1.0000
  O   O9        1.0  0.3269769757614398  0.8603011064638649  0.9218471362437343  1.0000
  O   O10       1.0  0.1396985535230115  0.6730222131802961  0.5781502190727537  1.0000
  O   O11       1.0  0.6730267392011413  0.13969935536730557  0.0781538254864742  1.0000
  O   O12       1.0  0.8602996805315684  0.32697609463101424  0.421850934122233  1.0000
  O   O13       1.0  0.17120841580899793  0.0124961210269561  0.8395446444328414  1.0000
  O   O14       1.0  0.987505518363015  0.8287904925854476  0.6604560256605936  1.0000
  O   O15       1.0  0.828792990188532  0.9874988942070008  0.16045390658432276  1.0000
  O   O16       1.0  0.0124981063421785  0.1712056233942363  0.3395454092349937  1.0000
  O   O17       1.0  0.9545672144685824  0.17318049584636694  0.9750142185695269  1.0000
  O   O18       1.0  0.82682226587945  0.0454372760019268  0.5249860901502146  1.0000
  O   O19       1.0  0.04543869388967178  0.8268210414027449  0.02498616718681032  1.0000
  O   O20       1.0  0.17317704330779546  0.9545610159975054  0.4750134286385049  1.0000
