data_image0
_chemical_formula_structural       Ag2H16C12N2O4
_chemical_formula_sum              "Ag2 H16 C12 N2 O4"
_cell_length_a       4.964001539805232
_cell_length_b       8.572877892945371
_cell_length_c       9.457438461635133
_cell_angle_alpha    82.7531592310109
_cell_angle_beta     77.67116285871496
_cell_angle_gamma    84.54581198631466

_space_group_name_H-M_alt    "P 1"
_space_group_IT_number       1

loop_
  _space_group_symop_operation_xyz
  'x, y, z'

loop_
  _atom_site_type_symbol
  _atom_site_label
  _atom_site_symmetry_multiplicity
  _atom_site_fract_x
  _atom_site_fract_y
  _atom_site_fract_z
  _atom_site_occupancy
  Ag  Ag1       1.0  0.2735749371153702  0.996902583286506  0.12616644127416515  1.0000
  Ag  Ag2       1.0  0.7264284395661491  0.0030980868075332017  0.8738279400333655  1.0000
  H   H1        1.0  0.39297194403556546  0.722070717431002  0.2715457188140391  1.0000
  H   H2        1.0  0.6070378250461701  0.2779288781082058  0.7284512327709508  1.0000
  H   H3        1.0  0.6696375757903112  0.776529526643685  0.14997337480832584  1.0000
  H   H4        1.0  0.33037164141283165  0.22347360440713973  0.8500232008041665  1.0000
  H   H5        1.0  0.3884918969408703  0.3797420421699371  0.2570407587848678  1.0000
  H   H6        1.0  0.611497939980282  0.6202539233580994  0.742969512296149  1.0000
  H   H7        1.0  0.9384904952711038  0.4136213942336866  0.8390397940217299  1.0000
  H   H8        1.0  0.061507004463436515  0.5863781698055207  0.16096703301415968  1.0000
  H   H9        1.0  0.8156099999068117  0.9302057820741538  0.2936689598762712  1.0000
  H   H10       1.0  0.184393019393795  0.0697972576274921  0.7063262254513134  1.0000
  H   H11       1.0  0.7096161197451211  0.7598947985246056  0.41402713545116404  1.0000
  H   H12       1.0  0.29039740983984785  0.24010721072184543  0.5859701407859604  1.0000
  H   H13       1.0  0.2530839140477923  0.9040975887730481  0.502858194237092  1.0000
  H   H14       1.0  0.7469088316187608  0.09590536587923282  0.4971402988470858  1.0000
  H   H15       1.0  0.35589883815847395  0.06908382003283012  0.37485371500583403  1.0000
  H   H16       1.0  0.6441141079334329  0.9309216869256429  0.625140021253614  1.0000
  C   C1        1.0  0.6825306947176201  0.38355820213816116  0.05410467827606171  1.0000
  C   C2        1.0  0.3174615622992647  0.6164483636249188  0.9458997668459688  1.0000
  C   C3        1.0  0.4366683360764867  0.4343703489495709  0.1449919154079566  1.0000
  C   C4        1.0  0.5633199937811922  0.5656220590170378  0.8550189713295141  1.0000
  C   C5        1.0  0.8729017109833561  0.25872520017273365  0.11486631716682891  1.0000
  C   C6        1.0  0.12710190234847124  0.7412743544167455  0.8851334628068274  1.0000
  C   C7        1.0  0.7441163254892943  0.4504567648256029  0.9087375186781731  1.0000
  C   C8        1.0  0.25587657928772967  0.5495320383302555  0.09126377264835378  1.0000
  C   C9        1.0  0.6351098111661528  0.8641411417072719  0.3480445295296377  1.0000
  C   C10       1.0  0.3648951252696121  0.13586314894751436  0.6519545094633942  1.0000
  C   C11       1.0  0.43240459728298936  0.9691562616428226  0.44489747310714733  1.0000
  C   C12       1.0  0.5675988215511508  0.030844458850665998  0.5551011268739502  1.0000
  N   N1        1.0  0.5138710707613185  0.8142161122593662  0.23209963616667303  1.0000
  N   N2        1.0  0.4861385459753507  0.18578469958330146  0.767900354099325  1.0000
  O   O1        1.0  0.0472891860545914  0.18311303923547934  0.018303638702747108  1.0000
  O   O2        1.0  0.952700212953154  0.8168981428940895  0.9816942167962283  1.0000
  O   O3        1.0  0.8553879573550988  0.2310921378237509  0.24911805217795552  1.0000
  O   O4        1.0  0.14459497847799696  0.7688941476758231  0.7508804695431338  1.0000
