data_image0
_chemical_formula_structural       Zn4H12C28N4O16
_chemical_formula_sum              "Zn4 H12 C28 N4 O16"
_cell_length_a       6.389006786342452
_cell_length_b       7.700735621041804
_cell_length_c       14.326542595970265
_cell_angle_alpha    90.00031105812243
_cell_angle_beta     89.99876547604855
_cell_angle_gamma    90.00000166484527

_space_group_name_H-M_alt    "P 1"
_space_group_IT_number       1

loop_
  _space_group_symop_operation_xyz
  'x, y, z'

loop_
  _atom_site_type_symbol
  _atom_site_label
  _atom_site_symmetry_multiplicity
  _atom_site_fract_x
  _atom_site_fract_y
  _atom_site_fract_z
  _atom_site_occupancy
  Zn  Zn1       1.0  0.9999980802824878  0.7500096318262449  0.7115688127287854  1.0000
  Zn  Zn2       1.0  0.5000003004425295  0.2500091380609249  0.788442339648597  1.0000
  Zn  Zn3       1.0  2.5854528473999993e-06  0.24999701090580834  0.2884293507569069  1.0000
  Zn  Zn4       1.0  0.4999956695511897  0.749989713245185  0.2115621058928028  1.0000
  H   H1        1.0  0.7239627599870244  0.5859639152297048  0.030128370395203795  1.0000
  H   H2        1.0  0.7760274812217886  0.08594883071295101  0.46987898032143965  1.0000
  H   H3        1.0  0.22394705505739404  0.4140507396079585  0.46988617497504487  1.0000
  H   H4        1.0  0.27604093365331284  0.9140435998767414  0.0301267146817779  1.0000
  H   H5        1.0  0.2760613836837891  0.41405181749246384  0.9698663029716599  1.0000
  H   H6        1.0  0.22394970676639758  0.9140370347927842  0.5301142972041504  1.0000
  H   H7        1.0  0.7760426541509344  0.5859585003352382  0.5301203646258017  1.0000
  H   H8        1.0  0.7239691231966744  0.0859552513785005  0.9698714487494442  1.0000
  H   H9        1.0  0.999993859523414  0.750006853091456  0.1189404999670174  1.0000
  H   H10       1.0  0.499985612631697  0.2500045441770098  0.3810760849893882  1.0000
  H   H11       1.0  7.8681350999e-06  0.2500038115055006  0.881066404917128  1.0000
  H   H12       1.0  0.49998844476932897  0.7499995014624332  0.6189269646493543  1.0000
  C   C1        1.0  0.7136167308988062  0.5550227709741831  0.833253753426348  1.0000
  C   C2        1.0  0.786368307630859  0.05501767115194411  0.6667533232514768  1.0000
  C   C3        1.0  0.21360248048336666  0.4449994120839166  0.666756517004103  1.0000
  C   C4        1.0  0.28638526176710843  0.9449835272945748  0.8332493044250312  1.0000
  C   C5        1.0  0.2863995866793161  0.444989066054795  0.16674650401122185  1.0000
  C   C6        1.0  0.21362766254303264  0.9449824786971847  0.33324414224073  1.0000
  C   C7        1.0  0.7863762724340333  0.5549981406694825  0.3332479286137371  1.0000
  C   C8        1.0  0.713624794977761  0.05500753251434531  0.166752349020058  1.0000
  C   C9        1.0  0.8533866650492496  0.6592622761558644  0.8969448442267379  1.0000
  C   C10       1.0  0.6466144640382508  0.1592569502068386  0.6030667335368419  1.0000
  C   C11       1.0  0.35337364837965163  0.3407348357330592  0.6030760193998929  1.0000
  C   C12       1.0  0.14661835045914978  0.8407342578388964  0.8969343748646637  1.0000
  C   C13       1.0  0.1466233916082516  0.34072099220330904  0.10305960122711609  1.0000
  C   C14       1.0  0.35338933209045814  0.8407406024732396  0.3969300339107136  1.0000
  C   C15       1.0  0.6466176259748407  0.6592627170161833  0.39693121818139326  1.0000
  C   C16       1.0  0.8533932718100131  0.1592645933696417  0.1030547144929486  1.0000
  C   C17       1.0  0.8462938860527557  0.6582940245014014  0.9942314318743328  1.0000
  C   C18       1.0  0.6537088039939718  0.1582747388702259  0.5057850289884058  1.0000
  C   C19       1.0  0.3462717328309708  0.3417290791587746  0.505790194430098  1.0000
  C   C20       1.0  0.15372183527834685  0.8417385248055284  0.994225088864809  1.0000
  C   C21       1.0  0.15371304060857935  0.34171002103304454  0.005759751527804701  1.0000
  C   C22       1.0  0.34628403572372685  0.8417215152653339  0.4942152285326599  1.0000
  C   C23       1.0  0.6537226720097351  0.6582697721427168  0.4942128551082021  1.0000
  C   C24       1.0  0.8463007433254289  0.1582759093176804  0.005764698471431  1.0000
  C   C25       1.0  0.9999973573091337  0.749992196076711  0.0429123868810493  1.0000
  C   C26       1.0  0.49998681049197546  0.24999842392529104  0.45709931198696546  1.0000
  C   C27       1.0  1.845738303529999e-05  0.2500015869242205  0.9570798598061928  1.0000
  C   C28       1.0  0.4999872469977617  0.7500056216970422  0.542900247626207  1.0000
  N   N1        1.0  3.4118700539999986e-06  0.7500208323155776  0.851479417161201  1.0000
  N   N2        1.0  0.4999975961440838  0.2500019594000449  0.6485334965563609  1.0000
  N   N3        1.0  6.1418524737e-06  0.24998853366903975  0.1485226016495602  1.0000
  N   N4        1.0  0.5000046346268832  0.7499994890482  0.35147025095531603  1.0000
  O   O1        1.0  0.7170702314102613  0.588365911591559  0.747113674644275  1.0000
  O   O2        1.0  0.7829180778112813  0.08835127744093539  0.7528942001700686  1.0000
  O   O3        1.0  0.21708746032226858  0.411653664485037  0.7529084302757525  1.0000
  O   O4        1.0  0.28292361901652896  0.9116616180753925  0.7471140430372145  1.0000
  O   O5        1.0  0.2829163475711525  0.41163034254950054  0.2528858849001807  1.0000
  O   O6        1.0  0.2170904138924925  0.9116423794973229  0.24710186924514227  1.0000
  O   O7        1.0  0.7829085095963604  0.5883347982134239  0.2470981092653801  1.0000
  O   O8        1.0  0.7170848724866516  0.08834632325697098  0.2528911004659307  1.0000
  O   O9        1.0  0.6091547977903743  0.43258286083977276  0.8723716477886113  1.0000
  O   O10       1.0  0.8908459165990263  0.9325815442747256  0.627641449025205  1.0000
  O   O11       1.0  0.10913992092962128  0.5674240369751828  0.6276458559747056  1.0000
  O   O12       1.0  0.3908665793298383  0.06742065506414718  0.8723637172117905  1.0000
  O   O13       1.0  0.39085995462652784  0.5674250804528783  0.1276272136399967  1.0000
  O   O14       1.0  0.10914692319919078  0.06741081411200871  0.3723553184644359  1.0000
  O   O15       1.0  0.8908497883701115  0.4325696200172047  0.3723557975669394  1.0000
  O   O16       1.0  0.6091356515366539  0.9325755990546156  0.12763584226139807  1.0000
