data_image0
_chemical_formula_structural       Nd8H32C24O64
_chemical_formula_sum              "Nd8 H32 C24 O64"
_cell_length_a       8.603985607006772
_cell_length_b       9.564779056019411
_cell_length_c       16.690680307021452
_cell_angle_alpha    90.00018201719604
_cell_angle_beta     90.00000488840712
_cell_angle_gamma    89.99985611453734

_space_group_name_H-M_alt    "P 1"
_space_group_IT_number       1

loop_
  _space_group_symop_operation_xyz
  'x, y, z'

loop_
  _atom_site_type_symbol
  _atom_site_label
  _atom_site_symmetry_multiplicity
  _atom_site_fract_x
  _atom_site_fract_y
  _atom_site_fract_z
  _atom_site_occupancy
  Nd  Nd1       1.0  0.6253696102170706  0.7463211623462342  0.14092603909681156  1.0000
  Nd  Nd2       1.0  0.8746315661851651  0.2536783854775564  0.6409261901092478  1.0000
  Nd  Nd3       1.0  0.12536882311232486  0.7536798900882358  0.8590747129268266  1.0000
  Nd  Nd4       1.0  0.3746307166645976  0.24632096042364535  0.3590730716476358  1.0000
  Nd  Nd5       1.0  0.8681083102119657  0.7362198687160272  0.3643710915548084  1.0000
  Nd  Nd6       1.0  0.6318952277806601  0.2637788379262815  0.8643712501447425  1.0000
  Nd  Nd7       1.0  0.36810745778534937  0.7637806361069792  0.6356308693875832  1.0000
  Nd  Nd8       1.0  0.13189436940812269  0.23622210108861444  0.13562860010468822  1.0000
  H   H1        1.0  0.6410982103497246  0.908539473935072  0.9812580201864806  1.0000
  H   H2        1.0  0.8589041847850892  0.09146302301156341  0.48125669797038745  1.0000
  H   H3        1.0  0.14109889950185556  0.5914604975084359  0.0187415342525199  1.0000
  H   H4        1.0  0.3589040705506363  0.4085374038720034  0.5187425630977318  1.0000
  H   H5        1.0  0.3823343266465359  0.9236712633861827  0.21232412229731784  1.0000
  H   H6        1.0  0.1176640265248778  0.07632772078663662  0.712323342941808  1.0000
  H   H7        1.0  0.8823345340445811  0.5763281638361377  0.7876766409945264  1.0000
  H   H8        1.0  0.6176643422070425  0.4236732503323139  0.28767650668354616  1.0000
  H   H9        1.0  0.5154382199509158  0.6022454318363444  0.3758528196976273  1.0000
  H   H10       1.0  0.9845618331882018  0.3977554300395382  0.8758538345992053  1.0000
  H   H11       1.0  0.015436991100124  0.8977548230947148  0.6241461300937844  1.0000
  H   H12       1.0  0.4845625096877199  0.1022447133613511  0.1241454319796205  1.0000
  H   H13       1.0  0.5922061130475952  0.6199804406448236  0.4606774205571612  1.0000
  H   H14       1.0  0.9077962786747945  0.3800198501887023  0.9606789992321368  1.0000
  H   H15       1.0  0.09220724420026728  0.880019641099707  0.5393227308744458  1.0000
  H   H16       1.0  0.40779456701269357  0.11998046639850198  0.03932086311685622  1.0000
  H   H17       1.0  0.8414394928511297  0.5894736224868566  0.5247371001054121  1.0000
  H   H18       1.0  0.6585628265201676  0.4105252754374646  0.024736344733014403  1.0000
  H   H19       1.0  0.34144052809244124  0.9105258969926666  0.4752636613930151  1.0000
  H   H20       1.0  0.15856251772366647  0.08947560341343322  0.9752629075491727  1.0000
  H   H21       1.0  0.8154582913457914  0.7473801292817369  0.5459964113740128  1.0000
  H   H22       1.0  0.6845428693001949  0.2526199330581988  0.0459953722597177  1.0000
  H   H23       1.0  0.31545860222458083  0.7526204943125946  0.4540037498491857  1.0000
  H   H24       1.0  0.18454327781115862  0.2473808871796237  0.9540032820250844  1.0000
  H   H25       1.0  0.27776308839339947  0.871912535836522  0.1404941671666293  1.0000
  H   H26       1.0  0.22223990186397197  0.12808709206409216  0.6404958823239539  1.0000
  H   H27       1.0  0.7777620007687601  0.6280892182999764  0.859505393267618  1.0000
  H   H28       1.0  0.7222403741597175  0.37191259762893475  0.359503372749856  1.0000
  H   H29       1.0  0.5268734209270959  0.7780503886173165  0.9624671739967994  1.0000
  H   H30       1.0  0.9731301333427497  0.2219509577224627  0.4624666913440265  1.0000
  H   H31       1.0  0.026873748423596997  0.7219487950169138  0.0375335737054456  1.0000
  H   H32       1.0  0.4731292247475379  0.27804921147163236  0.5375331738701804  1.0000
  C   C1        1.0  0.36041482590811563  0.5071281660033976  0.10278177615768412  1.0000
  C   C2        1.0  0.1395788600900829  0.49285975044059416  0.602784145794388  1.0000
  C   C3        1.0  0.8604127248126686  0.9928692196616637  0.8972171887606921  1.0000
  C   C4        1.0  0.6395768715901653  0.007141171239744899  0.39721510565522783  1.0000
  C   C5        1.0  0.41609839694526574  0.45858043130510134  0.186696228036439  1.0000
  C   C6        1.0  0.0838976274689927  0.541418409529669  0.6866980836901676  1.0000
  C   C7        1.0  0.9160987061822111  0.041419866548693604  0.8133030355399316  1.0000
  C   C8        1.0  0.583897849818129  0.9585816909563505  0.3133008691035499  1.0000
  C   C9        1.0  0.8656632612756141  0.4851124551676803  0.10432274710549903  1.0000
  C   C10       1.0  0.6343460448279785  0.5148785238886475  0.6043227596871219  1.0000
  C   C11       1.0  0.36566431002334804  0.014891092980270998  0.895678910808904  1.0000
  C   C12       1.0  0.13434918283869726  0.9851204172874546  0.39567859186512794  1.0000
  C   C13       1.0  0.9165884612528713  0.5162780250099882  0.19176678539645314  1.0000
  C   C14       1.0  0.5834115613394956  0.48371867068845364  0.6917691360701783  1.0000
  C   C15       1.0  0.4165905093833472  0.9837296889581212  0.8082357768154438  1.0000
  C   C16       1.0  0.08340785969373601  0.0162781956999325  0.30823131118592784  1.0000
  C   C17       1.0  0.9459951698649006  0.9360198314819571  0.11538322006809663  1.0000
  C   C18       1.0  0.5540001910320315  0.06398375548504728  0.6153830147831556  1.0000
  C   C19       1.0  0.44599143053871865  0.563979452128585  0.8846181451522457  1.0000
  C   C20       1.0  0.054001139972463384  0.4360163137570722  0.38461743118605807  1.0000
  C   C21       1.0  0.8157521272259414  0.0443632578644966  0.13311506335465145  1.0000
  C   C22       1.0  0.6842536968793027  0.9556425192737237  0.6331134767561792  1.0000
  C   C23       1.0  0.31574845235414256  0.45563517537192405  0.8668853940925915  1.0000
  C   C24       1.0  0.18424992647585733  0.5443594458182445  0.366884881303676  1.0000
  O   O1        1.0  0.4257413774894302  0.6126892567456323  0.07342357279210891  1.0000
  O   O2        1.0  0.07427322415485088  0.3873120870045881  0.5734299430887049  1.0000
  O   O3        1.0  0.9257372518547553  0.8873069360451991  0.9265759941269138  1.0000
  O   O4        1.0  0.5742744322297425  0.11268898200068381  0.4265693054970186  1.0000
  O   O5        1.0  0.5224827167597751  0.5306050643097464  0.21843676308924395  1.0000
  O   O6        1.0  0.9775184725019344  0.4693980535739399  0.7184373077950428  1.0000
  O   O7        1.0  0.022483638273946796  0.9693941292258259  0.7815627861469567  1.0000
  O   O8        1.0  0.4775158886450227  0.030602105725371597  0.281563755885081  1.0000
  O   O9        1.0  0.7453770597965317  0.5455540574735664  0.07718549891160363  1.0000
  O   O10       1.0  0.7546136457529542  0.4544493158474411  0.577187205145691  1.0000
  O   O11       1.0  0.24537804654114836  0.954446724223885  0.9228152583749678  1.0000
  O   O12       1.0  0.2546180170609844  0.0455523918147733  0.4228132496233458  1.0000
  O   O13       1.0  0.8444357184461994  0.6149443658679558  0.22810751255412504  1.0000
  O   O14       1.0  0.6555584989066431  0.38505985161832956  0.7281078909826563  1.0000
  O   O15       1.0  0.34443803637459064  0.8850541013448774  0.7718920508012843  1.0000
  O   O16       1.0  0.15555683993994757  0.11493580650455472  0.2718931585732919  1.0000
  O   O17       1.0  0.9031163795418066  0.8102866820739293  0.1057861332037149  1.0000
  O   O18       1.0  0.5968836287749183  0.18971371469703507  0.6057849583607792  1.0000
  O   O19       1.0  0.40311229032331397  0.6897158347766136  0.8942146310022637  1.0000
  O   O20       1.0  0.09688493078007099  0.31028625779861585  0.3942148903523305  1.0000
  O   O21       1.0  0.6766015606505887  0.0004732223165859998  0.13333670131034844  1.0000
  O   O22       1.0  0.8233961277299925  0.9995304650675225  0.6333357991321835  1.0000
  O   O23       1.0  0.17659776304620314  0.4995276158431281  0.8666625517628503  1.0000
  O   O24       1.0  0.3233971289905709  0.5004670041026316  0.3666613667525526  1.0000
  O   O25       1.0  0.5883471093510904  0.8267419168787383  0.004446952514584301  1.0000
  O   O26       1.0  0.9116552066484046  0.17326000406005448  0.5044457617906277  1.0000
  O   O27       1.0  0.0883454074590446  0.6732581735748439  0.9955531987477215  1.0000
  O   O28       1.0  0.41165531722323573  0.3267413493201943  0.49555350159182865  1.0000
  O   O29       1.0  0.36405221050040387  0.8436776974648053  0.17564429859848477  1.0000
  O   O30       1.0  0.13594962333853286  0.1563221270490018  0.6756466600474056  1.0000
  O   O31       1.0  0.8640510381145531  0.6563228165006832  0.8243546664822574  1.0000
  O   O32       1.0  0.6359501687282786  0.34367880281933344  0.3243537895166142  1.0000
  O   O33       1.0  0.25178619179391143  0.4389938456773804  0.06943435979412983  1.0000
  O   O34       1.0  0.24821329990960084  0.5610085212630692  0.5694350597203837  1.0000
  O   O35       1.0  0.7517841412376994  0.0610047318583753  0.9305642974376696  1.0000
  O   O36       1.0  0.7482147587322245  0.938994345036896  0.43056449941896363  1.0000
  O   O37       1.0  0.3523304296114063  0.3500511602175535  0.21708674138366754  1.0000
  O   O38       1.0  0.14766908659686348  0.649952032611125  0.717088795637949  1.0000
  O   O39       1.0  0.8523304304177585  0.14994823599539583  0.7829131185319725  1.0000
  O   O40       1.0  0.6476696073011752  0.8500489695162585  0.28291255650040636  1.0000
  O   O41       1.0  0.611931832894541  0.6323548227801509  0.40250544741928723  1.0000
  O   O42       1.0  0.8880693869228152  0.3676440971674921  0.9025058046295059  1.0000
  O   O43       1.0  0.11193184604199759  0.8676452144663854  0.5974953040141173  1.0000
  O   O44       1.0  0.3880699748240204  0.13235626392236813  0.09749465599117003  1.0000
  O   O45       1.0  0.872408724810441  0.6861804308312996  0.509378317363641  1.0000
  O   O46       1.0  0.6275935920045653  0.313823608696417  0.009377386166932  1.0000
  O   O47       1.0  0.37240887068628575  0.8138200642838881  0.490621846357108  1.0000
  O   O48       1.0  0.1275930154310316  0.18617838552169264  0.9906212656213  1.0000
  O   O49       1.0  0.9450056797521996  0.3974416485453601  0.0654824314917306  1.0000
  O   O50       1.0  0.5549873483606261  0.6025606138109083  0.5654843961824342  1.0000
  O   O51       1.0  0.4450053276137851  0.10256276611298888  0.9345198290398784  1.0000
  O   O52       1.0  0.054994224685501095  0.8974374608905504  0.4345169518886962  1.0000
  O   O53       1.0  0.023440864669048298  0.4402167135551025  0.21887164389279695  1.0000
  O   O54       1.0  0.4765551650821748  0.559784398255921  0.718873549899641  1.0000
  O   O55       1.0  0.5234387927245477  0.059785515645103295  0.7811317964218247  1.0000
  O   O56       1.0  0.9765531089312205  0.9402137709107234  0.2811290149335051  1.0000
  O   O57       1.0  0.08374354729122048  0.9814520526924825  0.10996524848795272  1.0000
  O   O58       1.0  0.41625362664051113  0.0185463589450592  0.6099649771203773  1.0000
  O   O59       1.0  0.5837404464438336  0.518548048149917  0.8900355017091854  1.0000
  O   O60       1.0  0.9162549600407315  0.48145289305828237  0.3900354847353853  1.0000
  O   O61       1.0  0.8560855859737372  0.1698580390872451  0.1439649448981513  1.0000
  O   O62       1.0  0.6439109419258529  0.8301404802300922  0.6439625309795646  1.0000
  O   O63       1.0  0.3560834223631558  0.33014343966148374  0.8560349151840116  1.0000
  O   O64       1.0  0.14391146789973416  0.6698584393606383  0.3560352261715778  1.0000
