data_image0
_chemical_formula_structural       ZnSiH16C20N8F6
_chemical_formula_sum              "Zn1 Si1 H16 C20 N8 F6"
_cell_length_a       7.796309268986238
_cell_length_b       13.365227884993715
_cell_length_c       13.365239415410858
_cell_angle_alpha    89.67991538363636
_cell_angle_beta     85.79860882202483
_cell_angle_gamma    85.79845683142274

_space_group_name_H-M_alt    "P 1"
_space_group_IT_number       1

loop_
  _space_group_symop_operation_xyz
  'x, y, z'

loop_
  _atom_site_type_symbol
  _atom_site_label
  _atom_site_symmetry_multiplicity
  _atom_site_fract_x
  _atom_site_fract_y
  _atom_site_fract_z
  _atom_site_occupancy
  Zn  Zn1       1.0  0.5000002345132302  0.49999969734260924  0.500000319071205  1.0000
  Si  Si1       1.0  0.999999593302924  0.4999986349349257  0.5000020472375654  1.0000
  H   H1        1.0  0.2547514933366132  0.5000635624119453  0.3315400651673812  1.0000
  H   H2        1.0  0.2645172246310068  0.5000028948404704  0.1439573735931603  1.0000
  H   H3        1.0  0.8182014801457669  0.5000228238693437  0.1403866247829058  1.0000
  H   H4        1.0  0.7883013871352773  0.5000610020239051  0.3289499433966513  1.0000
  H   H5        1.0  0.181802948212578  0.49997582280401087  0.8596123569859133  1.0000
  H   H6        1.0  0.7354847271227029  0.4999950001722695  0.8560417147864499  1.0000
  H   H7        1.0  0.7452490769605191  0.4999350821096726  0.6684590763930842  1.0000
  H   H8        1.0  0.21169918024460796  0.49993764246644895  0.6710499464962967  1.0000
  H   H9        1.0  0.25474865106680505  0.3315411804178651  0.5000625037423845  1.0000
  H   H10       1.0  0.2645140381829306  0.14395806001516578  0.5000004303605436  1.0000
  H   H11       1.0  0.818196239174604  0.1403862590287588  0.5000255375726895  1.0000
  H   H12       1.0  0.788298828367587  0.3289500544811546  0.5000608899317172  1.0000
  H   H13       1.0  0.18180046430957472  0.859612383247338  0.4999760087768763  1.0000
  H   H14       1.0  0.7354836883510883  0.8560428339066134  0.49999507581619446  1.0000
  H   H15       1.0  0.7452516387562935  0.6684597148446231  0.4999351409040359  1.0000
  H   H16       1.0  0.21170164941061392  0.6710493402978412  0.4999375032132464  1.0000
  C   C1        1.0  0.37703338797360436  0.5000343018973864  0.2866628843151774  1.0000
  C   C2        1.0  0.38238520285587907  0.49997912026256597  0.18274989919326157  1.0000
  C   C3        1.0  0.5432346064316036  0.4999709295770812  0.1284460617862209  1.0000
  C   C4        1.0  0.6918612237833556  0.500019983235383  0.18105202364215245  1.0000
  C   C5        1.0  0.6755433460202624  0.5000382851274594  0.2854762263650628  1.0000
  C   C6        1.0  0.3081392481603586  0.4999794114810925  0.8189478661677684  1.0000
  C   C7        1.0  0.4567659580310348  0.5000277148820159  0.8715545764392163  1.0000
  C   C8        1.0  0.6176151707344103  0.5000210246487667  0.8172507388661149  1.0000
  C   C9        1.0  0.6229670839701027  0.49996509281908885  0.7133370054947435  1.0000
  C   C10       1.0  0.32445980506940936  0.49996036092242246  0.7145205636701918  1.0000
  C   C11       1.0  0.3770300564513461  0.28666295544234544  0.5000327113445451  1.0000
  C   C12       1.0  0.3823820129265271  0.18274926559420374  0.4999757081812249  1.0000
  C   C13       1.0  0.5432322484302077  0.1284434710269551  0.4999720545827699  1.0000
  C   C14       1.0  0.6918562533498259  0.18105241195171828  0.5000208596160505  1.0000
  C   C15       1.0  0.6755389555273013  0.28547619779326533  0.5000384174903445  1.0000
  C   C16       1.0  0.3081403634499154  0.8189469806442772  0.4999784416530418  1.0000
  C   C17       1.0  0.4567642729333627  0.8715566717951617  0.5000272466033024  1.0000
  C   C18       1.0  0.6176158061264231  0.8172508780701975  0.5000205464110294  1.0000
  C   C19       1.0  0.6229702362889924  0.7133379398513995  0.4999641849693931  1.0000
  C   C20       1.0  0.3244603316666712  0.7145224460423661  0.4999600290015209  1.0000
  N   N1        1.0  0.5207985618384114  0.5000334563254826  0.33745776040681363  1.0000
  N   N2        1.0  0.568866422686618  0.49995712917557  0.0221928017969475  1.0000
  N   N3        1.0  0.43113415052775383  0.5000415153773048  0.9778055914310358  1.0000
  N   N4        1.0  0.4792043867099379  0.49996669005160027  0.6625420227923159  1.0000
  N   N5        1.0  0.5207940063614201  0.33745877202083113  0.5000329170669318  1.0000
  N   N6        1.0  0.5688629984469173  0.022192682338058496  0.4999579544829588  1.0000
  N   N7        1.0  0.43113371378899495  0.97780596003183  0.5000413468691605  1.0000
  N   N8        1.0  0.4792049916067781  0.6625421224618934  0.4999662775083352  1.0000
  F   F1        1.0  0.22627938033703993  0.5006630128112732  0.5006640440886869  1.0000
  F   F2        1.0  0.7737226551838603  0.4993341318503113  0.4993380377038791  1.0000
  F   F3        1.0  0.999999707299061  0.5901835141383671  0.4098131118643736  1.0000
  F   F4        1.0  3.4146181633007393e-06  0.4098151315989185  0.5901911614957029  1.0000
  F   F5        1.0  0.023995499467474708  0.40983261485333594  0.40984142196047213  1.0000
  F   F6        1.0  0.9760039552608856  0.5901645282799848  0.5901630113573122  1.0000
