data_image0
_chemical_formula_structural       Zn4H24C28N4O22
_chemical_formula_sum              "Zn4 H24 C28 N4 O22"
_cell_length_a       8.049311917093505
_cell_length_b       8.049312618456877
_cell_length_c       12.932640240659294
_cell_angle_alpha    83.08771560464949
_cell_angle_beta     83.08789715050342
_cell_angle_gamma    74.27661135476197

_space_group_name_H-M_alt    "P 1"
_space_group_IT_number       1

loop_
  _space_group_symop_operation_xyz
  'x, y, z'

loop_
  _atom_site_type_symbol
  _atom_site_label
  _atom_site_symmetry_multiplicity
  _atom_site_fract_x
  _atom_site_fract_y
  _atom_site_fract_z
  _atom_site_occupancy
  Zn  Zn1       1.0  0.4744490774942705  0.427115557565763  0.8749815781088444  1.0000
  Zn  Zn2       1.0  0.5728828561694286  0.5255492318878294  0.6250207673431589  1.0000
  Zn  Zn3       1.0  0.5255494056030726  0.5728849497926873  0.12502147443812106  1.0000
  Zn  Zn4       1.0  0.42711386505079935  0.4744486593837393  0.374981796371415  1.0000
  H   H1        1.0  0.1919961328375521  0.47686291956406274  0.004130414397508301  1.0000
  H   H2        1.0  0.5231339819644275  0.8080037801513454  0.49587262674324956  1.0000
  H   H3        1.0  0.8080035961380858  0.5231376079405692  0.9958725558600604  1.0000
  H   H4        1.0  0.47686200937634027  0.19199668691474153  0.5041305903825304  1.0000
  H   H5        1.0  0.13272305757893582  0.40801004814860414  0.9074249608098127  1.0000
  H   H6        1.0  0.5919885418067067  0.8672778406591701  0.5925776606044977  1.0000
  H   H7        1.0  0.8672754255184075  0.5919904592098459  0.09257809173715972  1.0000
  H   H8        1.0  0.40800835434604477  0.1327239583278228  0.40742463774122234  1.0000
  H   H9        1.0  0.35513723065448477  0.7407446618443742  0.7848645405085648  1.0000
  H   H10       1.0  0.2592485387610565  0.6448542715892173  0.7151358397169929  1.0000
  H   H11       1.0  0.6448606251739619  0.2592494055311718  0.2151351044287608  1.0000
  H   H12       1.0  0.7407462615651353  0.35513711179834223  0.2848657250698493  1.0000
  H   H13       1.0  0.15444577457927272  0.17898717805627473  0.7939372636677362  1.0000
  H   H14       1.0  0.821023835730955  0.8455539127962197  0.7060625556644808  1.0000
  H   H15       1.0  0.8455538519250326  0.8210186326117394  0.20606150287363792  1.0000
  H   H16       1.0  0.17898561469836952  0.1544481831624367  0.2939342670021715  1.0000
  H   H17       1.0  0.2790436956468341  0.019222478565822595  0.6372619106397082  1.0000
  H   H18       1.0  0.9807857171116439  0.7209564541402714  0.8627391152333671  1.0000
  H   H19       1.0  0.7209528753552235  0.980780648114198  0.36273877575118263  1.0000
  H   H20       1.0  0.019218717973295416  0.2790455293970452  0.1372595875192459  1.0000
  H   H21       1.0  0.125593826155999  0.10431914130867172  0.4729475552995054  1.0000
  H   H22       1.0  0.8956858468863871  0.8744035781348526  0.027054651367542714  1.0000
  H   H23       1.0  0.8743980864835945  0.895682577093595  0.5270550722038294  1.0000
  H   H24       1.0  0.10431592150945328  0.12559445739466915  0.9729444813327176  1.0000
  C   C1        1.0  0.8430277986836997  0.4303999552440913  0.8109317803037044  1.0000
  C   C2        1.0  0.56960603002274  0.1569707745282898  0.6890680954068243  1.0000
  C   C3        1.0  0.15696805835450786  0.5696057631487577  0.1890687840342267  1.0000
  C   C4        1.0  0.4303966591006869  0.8430286088404414  0.3109293430492102  1.0000
  C   C5        1.0  0.9332182002154426  0.3385332458506055  0.7173030327719728  1.0000
  C   C6        1.0  0.6614752860744062  0.06678093586209852  0.7826960467126368  1.0000
  C   C7        1.0  0.06677925968298129  0.6614711968320179  0.2826975103030378  1.0000
  C   C8        1.0  0.33853167259834277  0.9332211198041944  0.217300940532823  1.0000
  C   C9        1.0  0.09044475602517109  0.21187555408993564  0.7220909948504044  1.0000
  C   C10       1.0  0.7881344850973945  0.9095566076414628  0.7779086834582855  1.0000
  C   C11       1.0  0.9095523309757141  0.7881301685307844  0.27791026266229574  1.0000
  C   C12       1.0  0.21187213250905051  0.09044675979955488  0.2220874672965252  1.0000
  C   C13       1.0  0.1595831748560244  0.12234949757203847  0.634642097988106  1.0000
  C   C14       1.0  0.8776557580654157  0.8404193811904718  0.8653571965912334  1.0000
  C   C15       1.0  0.8404165859508407  0.8776510617692139  0.36535932134111704  1.0000
  C   C16       1.0  0.1223490499170623  0.15958132240873368  0.13464079172368318  1.0000
  C   C17       1.0  0.0746858292280521  0.1680900183794449  0.543810558671673  1.0000
  C   C18       1.0  0.8319144251453281  0.9253168803716889  0.9561909702503043  1.0000
  C   C19       1.0  0.925313201699353  0.8319131167563183  0.4561915140687631  1.0000
  C   C20       1.0  0.1680900258552285  0.0746851190839379  0.04380695703813589  1.0000
  C   C21       1.0  0.9188125023280519  0.2970839487202852  0.54495061052247  1.0000
  C   C22       1.0  0.7029227157315603  0.08118883275492546  0.9550477006475049  1.0000
  C   C23       1.0  0.08118656043058071  0.7029192182520988  0.4550499112896204  1.0000
  C   C24       1.0  0.2970858298857806  0.9188119312828248  0.04495004079920053  1.0000
  C   C25       1.0  0.815904777222194  0.348277252170483  0.4511464255957875  1.0000
  C   C26       1.0  0.6517290480051796  0.18408711004285286  0.0488564939494509  1.0000
  C   C27       1.0  0.18409037296904526  0.6517219466479317  0.548854608453361  1.0000
  C   C28       1.0  0.3482756009603845  0.8159097017592315  0.9511409842701466  1.0000
  N   N1        1.0  0.8467901629229432  0.3770209288244998  0.631034679730156  1.0000
  N   N2        1.0  0.6229848067250003  0.15320815409556593  0.8689637383447105  1.0000
  N   N3        1.0  0.15320801093932346  0.6229809221452881  0.3689659853978142  1.0000
  N   N4        1.0  0.3770219770152252  0.8467899938552961  0.1310335142695962  1.0000
  O   O1        1.0  0.686541270631892  0.5164471968935302  0.8031427668132379  1.0000
  O   O2        1.0  0.4835601571140343  0.31345732789375086  0.6968575528426795  1.0000
  O   O3        1.0  0.3134563801146654  0.4835611694228276  0.1968567354287529  1.0000
  O   O4        1.0  0.5164382783756948  0.6865393990957358  0.30313956135976367  1.0000
  O   O5        1.0  0.9235539668405649  0.4139982259446667  0.8916323208684956  1.0000
  O   O6        1.0  0.5860083657491869  0.0764430163906624  0.6083669408289579  1.0000
  O   O7        1.0  0.07644297705902407  0.5860036207972498  0.10836765108470561  1.0000
  O   O8        1.0  0.4139946644405512  0.9235550552033516  0.39163133411773293  1.0000
  O   O9        1.0  0.6560164595920173  0.42558258726765513  0.47087836482806006  1.0000
  O   O10       1.0  0.5744143693662879  0.34398447796016274  0.029119699819517585  1.0000
  O   O11       1.0  0.3439815234221086  0.5744153400683985  0.5291233411329301  1.0000
  O   O12       1.0  0.42558651013317916  0.6560122415667635  0.970879576196637  1.0000
  O   O13       1.0  0.8908281142742709  0.3104523724888254  0.3625000376740529  1.0000
  O   O14       1.0  0.6895466175952335  0.10917234403399327  0.1374944035883772  1.0000
  O   O15       1.0  0.10916689281567221  0.6895429504507787  0.6374997108155964  1.0000
  O   O16       1.0  0.31045678549204336  0.8908244476219165  0.8625031569206241  1.0000
  O   O17       1.0  0.23625608218632987  0.41233618443835945  0.9406896175444428  1.0000
  O   O18       1.0  0.58765450947147  0.7637445724898839  0.5593159508107775  1.0000
  O   O19       1.0  0.7637428762798848  0.5876577598186045  0.05931692428102763  1.0000
  O   O20       1.0  0.4123352047310079  0.23625574609037156  0.4406900041545327  1.0000
  O   O21       1.0  0.36975216109316716  0.6302401539335705  0.7500006407822255  1.0000
  O   O22       1.0  0.630244774007686  0.3697525656027665  0.2500006983993259  1.0000
