data_image0
_chemical_formula_structural       Zn4H49C89I3N16O10
_chemical_formula_sum              "Zn4 H49 C89 I3 N16 O10"
_cell_length_a       19.152751121243575
_cell_length_b       19.079217226901708
_cell_length_c       20.12061727262231
_cell_angle_alpha    104.66797469186915
_cell_angle_beta     108.02447163976875
_cell_angle_gamma    112.92803027334384

_space_group_name_H-M_alt    "P 1"
_space_group_IT_number       1

loop_
  _space_group_symop_operation_xyz
  'x, y, z'

loop_
  _atom_site_type_symbol
  _atom_site_label
  _atom_site_symmetry_multiplicity
  _atom_site_fract_x
  _atom_site_fract_y
  _atom_site_fract_z
  _atom_site_occupancy
  Zn  Zn1       1.0  0.8735151738913557  0.883239158774238  0.5011307994292196  1.0000
  Zn  Zn2       1.0  0.10334114256991707  0.10140137960171809  0.5096347459759585  1.0000
  Zn  Zn3       1.0  0.08171543805975287  0.9818039681420956  0.6048624576299134  1.0000
  Zn  Zn4       1.0  0.8992975423031239  0.9977574688383157  0.40405279287472956  1.0000
  H   H1        1.0  0.834086937984061  0.004369162737035  0.6103335273377367  1.0000
  H   H2        1.0  0.12315715986706978  0.9998154013216478  0.3779913061011158  1.0000
  H   H3        1.0  0.09739758481340739  0.8470898101087415  0.6773990280303792  1.0000
  H   H4        1.0  0.889706575821563  0.04903507196686262  0.25498878768962624  1.0000
  H   H5        1.0  0.1630713340936438  0.1962257298889938  0.39941563514224043  1.0000
  H   H6        1.0  0.8261954256761183  0.704814979379364  0.5245946408624176  1.0000
  H   H7        1.0  0.891137483048922  0.8693913604998826  0.2562923787067673  1.0000
  H   H8        1.0  0.1293800894634174  0.8552131298666338  0.512653867924918  1.0000
  H   H9        1.0  0.19195776705576853  0.7961830996411122  0.43895979256005546  1.0000
  H   H10       1.0  0.23618727404716108  0.9982663151746963  0.36920597725551824  1.0000
  H   H11       1.0  0.34721336833892014  0.04824288728255506  0.33083345941928843  1.0000
  H   H12       1.0  0.1278749733529239  0.26672306233800924  0.6355953278813473  1.0000
  H   H13       1.0  0.5393966945197871  0.8040842296182332  0.41632214125532113  1.0000
  H   H14       1.0  0.41648622132820623  0.7401339792203031  0.43806955092725264  1.0000
  H   H15       1.0  0.08935642522246917  0.7224758516862481  0.6340322899118362  1.0000
  H   H16       1.0  0.7715961853616305  0.45679170660005747  0.6076066892504457  1.0000
  H   H17       1.0  0.7811224760869777  0.33130867686578824  0.6015810316574388  1.0000
  H   H18       1.0  0.8591176872556616  0.2526860275308281  0.591099475576236  1.0000
  H   H19       1.0  0.2882187067684825  0.09284147149814007  0.7486147720456771  1.0000
  H   H20       1.0  0.11836915984783757  0.3850151263327034  0.6279429841399419  1.0000
  H   H21       1.0  0.1905614298894065  0.5355552436864243  0.6597878222632686  1.0000
  H   H22       1.0  0.17952731374016645  0.6610244737099932  0.6614155916891986  1.0000
  H   H23       1.0  0.4003139399087061  0.24482544936716275  0.8543971181761022  1.0000
  H   H24       1.0  0.4810772561448572  0.25514113033187863  0.6778951707542616  1.0000
  H   H25       1.0  0.8289867000871636  0.5039628609469063  0.15065262415530606  1.0000
  H   H26       1.0  0.5441807117346185  0.35897809056645963  0.9538741855477609  1.0000
  H   H27       1.0  0.8953753605256195  0.6324724690400956  0.2707507112485955  1.0000
  H   H28       1.0  0.7106071990184403  0.9832958629296089  0.338943307284957  1.0000
  H   H29       1.0  0.6852924139820542  0.40693066515741083  0.019628307515482293  1.0000
  H   H30       1.0  0.6918947770267463  0.5998346790669231  0.025350589039120932  1.0000
  H   H31       1.0  0.6259696628178517  0.36812408609661423  0.7775694196220825  1.0000
  H   H32       1.0  0.09740675942713035  0.23915719549489006  0.8327619649461936  1.0000
  H   H33       1.0  0.9258146499797701  0.17841029655999563  0.22425252468091364  1.0000
  H   H34       1.0  0.09784193874305908  0.2505666562470239  0.051363517074754804  1.0000
  H   H35       1.0  0.8305713913158639  0.11092188081721592  0.8556783148045567  1.0000
  H   H36       1.0  0.9250325978888367  0.22145451756699688  0.11866778366663057  1.0000
  H   H37       1.0  0.8299732331351563  0.05571700615620769  0.7308636960722339  1.0000
  H   H38       1.0  0.9069036167393205  0.1896806177175633  0.9939742550394399  1.0000
  H   H39       1.0  0.09840424408995568  0.2927058363454406  0.9579654803379825  1.0000
  H   H40       1.0  0.15858833371424905  0.2217416726470773  0.15181514769829357  1.0000
  H   H41       1.0  0.6827632545167786  0.8567805027933701  0.48761954096472937  1.0000
  H   H42       1.0  0.8539876089802687  0.12891993930669804  0.49162042959402885  1.0000
  H   H43       1.0  0.10915899565507907  0.1372765363959303  0.7450659277013827  1.0000
  H   H44       1.0  0.8521085673761062  0.714008346002302  0.3807510139361908  1.0000
  H   H45       1.0  0.692007355837276  0.17712494351005142  0.46978242126722575  1.0000
  H   H46       1.0  0.17785380209421217  0.6376798778400142  0.4456539661356444  1.0000
  H   H47       1.0  0.6691638613061668  0.7708938277033539  0.17783761169851425  1.0000
  H   H48       1.0  0.6016398731419484  0.48115371085786063  0.8348346544194668  1.0000
  H   H49       1.0  0.19359178160591026  0.07900377839920479  0.2706740309683084  1.0000
  C   C1        1.0  0.90218495578177  0.028183660348673926  0.6341328960014109  1.0000
  C   C2        1.0  0.9893933674764313  0.23066947435271606  0.5793346440036017  1.0000
  C   C3        1.0  0.33971453706465826  0.18574246220067886  0.7018389130324323  1.0000
  C   C4        1.0  0.6627744635652203  0.9214963947152623  0.4096275061007474  1.0000
  C   C5        1.0  0.8654110412426516  0.7635297107330672  0.3610277618428056  1.0000
  C   C6        1.0  0.11887458335101538  0.9696971192944018  0.41684506230780727  1.0000
  C   C7        1.0  0.031933365076234586  0.8233471034618418  0.6368879214430905  1.0000
  C   C8        1.0  0.9549163349652472  0.0804710990715237  0.2999240884209015  1.0000
  C   C9        1.0  0.09447634677385956  0.1545674435029198  0.3727312947237778  1.0000
  C   C10       1.0  0.8935700112581413  0.7510017199584098  0.5597978741673373  1.0000
  C   C11       1.0  0.883912473679075  0.8426989153457144  0.29712302453444295  1.0000
  C   C12       1.0  0.061394585074808085  0.22154988099243417  0.5946307944237788  1.0000
  C   C13       1.0  0.12105837095042916  0.8954120994075863  0.4849943203370088  1.0000
  C   C14       1.0  0.8609053902620472  0.7602892605131971  0.2891244633734544  1.0000
  C   C15       1.0  0.14701225338500723  0.9143380210857117  0.43037632992911057  1.0000
  C   C16       1.0  0.9593461903793495  0.743792040110101  0.6076702269594135  1.0000
  C   C17       1.0  0.030654653940047193  0.13693045518205332  0.3025437277874161  1.0000
  C   C18       1.0  0.22847454352617547  0.8393005620219965  0.4202662920863958  1.0000
  C   C19       1.0  0.2067566535679362  0.8987226269393033  0.407282667127987  1.0000
  C   C20       1.0  0.2518565392075942  0.9518293738659409  0.38016994966104534  1.0000
  C   C21       1.0  0.32210133506362854  0.9518688716529199  0.3729681967664362  1.0000
  C   C22       1.0  0.34764404453609626  0.8953491052027257  0.39075753516349454  1.0000
  C   C23       1.0  0.2784959254445312  0.11903671118624712  0.7068203287385373  1.0000
  C   C24       1.0  0.29709167904229616  0.8350988829318737  0.41176373548350387  1.0000
  C   C25       1.0  0.3711221884687105  0.009941274274758933  0.3501666032270023  1.0000
  C   C26       1.0  0.4459155633534735  0.018366217979256406  0.3516050070126369  1.0000
  C   C27       1.0  0.4796755413783273  0.968687056125695  0.37702699612705703  1.0000
  C   C28       1.0  0.4245621505120382  0.9031740292521988  0.3906238189091908  1.0000
  C   C29       1.0  0.4493874410141314  0.8458768077637873  0.4077566347540156  1.0000
  C   C30       1.0  0.39711055960549396  0.7837283101032638  0.42496046224024286  1.0000
  C   C31       1.0  0.3241711340934898  0.7773176148557112  0.4277929140571572  1.0000
  C   C32       1.0  0.5610991073600999  0.9793010016492829  0.38916269830032485  1.0000
  C   C33       1.0  0.5824192150697698  0.9182297586388088  0.4005689048967227  1.0000
  C   C34       1.0  0.7163166774100415  0.9520705091306422  0.37669283286209054  1.0000
  C   C35       1.0  0.5243948476013357  0.851725140107078  0.4079184664866844  1.0000
  C   C36       1.0  0.0368675157692238  0.6702433500568219  0.6325139685771646  1.0000
  C   C37       1.0  0.9609599192519409  0.6715486958891361  0.6197164286870914  1.0000
  C   C38       1.0  0.8939452161632885  0.6030260780782726  0.6178276235055831  1.0000
  C   C39       1.0  0.8987086745429236  0.5314901423434081  0.6208730652194773  1.0000
  C   C40       1.0  0.9761720324914476  0.5315486148155132  0.6307762648977472  1.0000
  C   C41       1.0  0.047106165911806386  0.6037081429041464  0.639884048658608  1.0000
  C   C42       1.0  0.8300907903341322  0.45719744793692024  0.6127381023079009  1.0000
  C   C43       1.0  0.8355208421406033  0.3870823314591832  0.6093155545286137  1.0000
  C   C44       1.0  0.9104728167280026  0.38399225747878774  0.6145279640984355  1.0000
  C   C45       1.0  0.29011685356537237  0.1893480720617831  0.6358528820656275  1.0000
  C   C46       1.0  0.9821535282512881  0.4591328093955482  0.6286728032184001  1.0000
  C   C47       1.0  0.059260862723554894  0.45964240428871506  0.637043469820135  1.0000
  C   C48       1.0  0.131331264025988  0.5352374055420697  0.6514812730996908  1.0000
  C   C49       1.0  0.12521193256633714  0.6042491671076392  0.6522648086695922  1.0000
  C   C50       1.0  0.9147926455415244  0.31029549400173556  0.6032693603750516  1.0000
  C   C51       1.0  0.9882150444505624  0.3089213629852381  0.6053939945968451  1.0000
  C   C52       1.0  0.060676298013035486  0.38492068194518947  0.6257452872249161  1.0000
  C   C53       1.0  0.8278694448546698  0.6870798245515957  0.21798940359981595  1.0000
  C   C54       1.0  0.7698644729645139  0.6760668287643199  0.14691248839331902  1.0000
  C   C55       1.0  0.7378423286167004  0.6069277904936071  0.07853465705372283  1.0000
  C   C56       1.0  0.7017160670683538  0.8869840506533823  0.4521215229390023  1.0000
  C   C57       1.0  0.7569701006858907  0.542818422724274  0.07829499622562244  1.0000
  C   C58       1.0  0.8132688807944318  0.5529093397265471  0.1491916066863084  1.0000
  C   C59       1.0  0.8495912419519838  0.624499722831807  0.216916704308204  1.0000
  C   C60       1.0  0.531492336816761  0.334366292497954  0.8936516639846204  1.0000
  C   C61       1.0  0.4502807630208847  0.2703540485800033  0.8375391548614388  1.0000
  C   C62       1.0  0.4947516124859702  0.2778134850356366  0.7384747658564591  1.0000
  C   C63       1.0  0.5766575666458138  0.34170084705237974  0.7949559127500194  1.0000
  C   C64       1.0  0.5960945469261743  0.37375569983473156  0.8737583892309785  1.0000
  C   C65       1.0  0.7072810160520573  0.46335272030594876  0.009076130709601647  1.0000
  C   C66       1.0  0.6752619982263394  0.4517841544172894  0.9340523580492217  1.0000
  C   C67       1.0  0.9214869771120175  0.1507912323432877  0.5220023429851748  1.0000
  C   C68       1.0  0.42920587384177367  0.24328350821318176  0.7585689040052656  1.0000
  C   C69       1.0  0.9649128901227468  0.13945401211400116  0.7731207200533915  1.0000
  C   C70       1.0  0.038802926736238384  0.20975309050779598  0.8376910017549974  1.0000
  C   C71       1.0  0.03939735954779169  0.24016501665553142  0.9083414277504217  1.0000
  C   C72       1.0  0.9657918038104396  0.2017920379266513  0.9177207234696353  1.0000
  C   C73       1.0  0.889261606770411  0.13970121966843146  0.8506463778670934  1.0000
  C   C74       1.0  0.8890136037577603  0.10859401543827114  0.7801292274124377  1.0000
  C   C75       1.0  0.9756617591154961  0.2105744820146143  0.14752592332119002  1.0000
  C   C76       1.0  0.9754163722990864  0.18523101863841882  0.20627831096371088  1.0000
  C   C77       1.0  0.1044864806255248  0.18238796005804403  0.2235506405823955  1.0000
  C   C78       1.0  0.04260790722353388  0.09679978039870459  0.702300997201867  1.0000
  C   C79       1.0  0.10663022607596419  0.21199169137330637  0.16697273435200796  1.0000
  C   C80       1.0  0.040583357581588986  0.2223554165327855  0.12492052670951638  1.0000
  C   C81       1.0  0.9684413222435918  0.21287170012447387  0.9929605852312022  1.0000
  C   C82       1.0  0.0386197626431084  0.23432113195948293  0.05595263519082752  1.0000
  C   C83       1.0  0.03772222719729259  0.1678542162504115  0.2442545809037497  1.0000
  C   C84       1.0  0.9692904351205981  0.09419474473030229  0.7055726153787844  1.0000
  C   C85       1.0  0.6308307243825267  0.061441145505860044  0.40233195702892016  1.0000
  C   C86       1.0  0.2809144734051969  0.7092958822403402  0.44939476023543523  1.0000
  C   C87       1.0  0.7331777591477433  0.7320289704234  0.14135484625890626  1.0000
  C   C88       1.0  0.7147981602512484  0.522669002954437  0.9130742533447318  1.0000
  C   C89       1.0  0.1730670642065846  0.16317605103451172  0.2539466362545326  1.0000
  I   I1        1.0  0.49809748812999277  0.09911217824419793  0.3032384833563881  1.0000
  I   I2        1.0  0.7843809559279077  0.6078311055707246  0.6149144498429917  1.0000
  I   I3        1.0  0.3236933902969811  0.27058164928553213  0.5847152199298832  1.0000
  N   N1        1.0  0.9337389267120739  0.9942147092938712  0.5929942409676201  1.0000
  N   N2        1.0  0.08179486736612059  0.9840881443428627  0.461501365598849  1.0000
  N   N3        1.0  0.0111793234209827  0.8731203188126669  0.6089453453081431  1.0000
  N   N4        1.0  0.9724567931753253  0.06531677083231087  0.36304654893213223  1.0000
  N   N5        1.0  0.05937985246220728  0.11184689024177169  0.40854924137373416  1.0000
  N   N6        1.0  0.9248244849290256  0.8280971195246848  0.5608923610231357  1.0000
  N   N7        1.0  0.8989400978478412  0.8899448715800632  0.36753326420704  1.0000
  N   N8        1.0  0.0830017831277488  0.9383322613512135  0.5034655157141827  1.0000
  N   N9        1.0  0.03764370490375059  0.1429046698440075  0.5493044732122385  1.0000
  N   N10       1.0  0.20019752517755046  0.08643104460311692  0.6493532146664618  1.0000
  N   N11       1.0  0.7811699752316341  0.9376594223455044  0.39844927100884314  1.0000
  N   N12       1.0  0.20727427148392502  0.13086522543822093  0.6053887045606244  1.0000
  N   N13       1.0  0.7721990940546702  0.8969205859761689  0.44541371460624646  1.0000
  N   N14       1.0  0.9516943215354698  0.09934764074952081  0.5043153452570479  1.0000
  N   N15       1.0  0.0199634568971305  0.036427461810120604  0.6349050414791861  1.0000
  N   N16       1.0  0.8871163974051796  0.8414658511402565  0.40677029316331204  1.0000
  O   O1        1.0  0.6726404689242783  0.07326947917137977  0.3669732028036137  1.0000
  O   O2        1.0  0.6479697541848636  0.12535893623801544  0.46593326807685287  1.0000
  O   O3        1.0  0.3156596249161793  0.6766320808325972  0.48103401089812076  1.0000
  O   O4        1.0  0.1969399875014871  0.6831252276704375  0.42942761554780157  1.0000
  O   O5        1.0  0.7357195704370977  0.7693381645630809  0.10021318666175456  1.0000
  O   O6        1.0  0.6909070071153207  0.7331417765214071  0.1849027913340036  1.0000
  O   O7        1.0  0.7907854879995992  0.5731077776082004  0.9437782609571456  1.0000
  O   O8        1.0  0.6595557877294239  0.5279784219538115  0.8547467552893763  1.0000
  O   O9        1.0  0.2483123434732945  0.2089688772846614  0.2728426657557463  1.0000
  O   O10       1.0  0.14345842327557526  0.08537443566299173  0.2540524517595415  1.0000
