data_image0
_chemical_formula_structural       Cu4H32C48N20
_chemical_formula_sum              "Cu4 H32 C48 N20"
_cell_length_a       9.273474598027423
_cell_length_b       11.147264458935117
_cell_length_c       11.648243022920846
_cell_angle_alpha    107.0415153413235
_cell_angle_beta     90.00024835470255
_cell_angle_gamma    89.99979290632936

_space_group_name_H-M_alt    "P 1"
_space_group_IT_number       1

loop_
  _space_group_symop_operation_xyz
  'x, y, z'

loop_
  _atom_site_type_symbol
  _atom_site_label
  _atom_site_symmetry_multiplicity
  _atom_site_fract_x
  _atom_site_fract_y
  _atom_site_fract_z
  _atom_site_occupancy
  Cu  Cu1       1.0  0.1348441710054686  0.7457609909766204  0.826247759547023  1.0000
  Cu  Cu2       1.0  0.6348459309725384  0.7542367457288958  0.1737512324458662  1.0000
  Cu  Cu3       1.0  0.8651513085898583  0.25423562484208156  0.1737549471122293  1.0000
  Cu  Cu4       1.0  0.3651506269503386  0.24576181764072655  0.8262468915441731  1.0000
  H   H1        1.0  0.5666908605313097  0.42985474931288775  0.5164482726104822  1.0000
  H   H2        1.0  0.0666934966424009  0.07013208705885889  0.4835408294991694  1.0000
  H   H3        1.0  0.4333154025033322  0.5701437547605862  0.4835541269164523  1.0000
  H   H4        1.0  0.9333149230614879  0.929857212840517  0.5164460036844858  1.0000
  H   H5        1.0  0.7145934799409446  0.24872746082747446  0.40258129098767637  1.0000
  H   H6        1.0  0.21461527089324758  0.2512534936589077  0.5974057570709093  1.0000
  H   H7        1.0  0.2854106264058061  0.7512775513846603  0.5974273019040481  1.0000
  H   H8        1.0  0.7853963838378916  0.7487367681560213  0.40257963988665313  1.0000
  H   H9        1.0  0.7257194145429438  0.05603297928366398  0.47535854044921433  1.0000
  H   H10       1.0  0.22572048578422965  0.44396371506281435  0.5246468803418267  1.0000
  H   H11       1.0  0.2743008669640474  0.9439776502772688  0.5246525514390612  1.0000
  H   H12       1.0  0.7742836205414461  0.556035822075998  0.475348952324147  1.0000
  H   H13       1.0  0.586219872812336  0.05710034386644479  0.6593913370575848  1.0000
  H   H14       1.0  0.08620918075758509  0.4429049489388603  0.3406229707372788  1.0000
  H   H15       1.0  0.41378962524213847  0.9429066040352581  0.3406135282758669  1.0000
  H   H16       1.0  0.9137787504029615  0.5571020226971157  0.6593801843548164  1.0000
  H   H17       1.0  0.2447595620178689  0.4412196574624827  0.054348448767164756  1.0000
  H   H18       1.0  0.7447556029733916  0.0587818361448385  0.9456481379255238  1.0000
  H   H19       1.0  0.7552467010029886  0.5587817086513381  0.9456513522758172  1.0000
  H   H20       1.0  0.2552409549319917  0.9412233302214756  0.05434933859686447  1.0000
  H   H21       1.0  0.12681264482807816  0.5584642680966068  0.24999195485644068  1.0000
  H   H22       1.0  0.6268112029637649  0.9415316658556845  0.7500021894945164  1.0000
  H   H23       1.0  0.8731990099212369  0.44153613609395154  0.7500092824256087  1.0000
  H   H24       1.0  0.3731842766053787  0.05846694494487541  0.24999251407605536  1.0000
  H   H25       1.0  0.9972895891416085  0.7610873478437198  0.26276218174733396  1.0000
  H   H26       1.0  0.49729169888374264  0.7389013205579288  0.7372337244744429  1.0000
  H   H27       1.0  0.0027134388694846994  0.23890645335785618  0.7372397029893848  1.0000
  H   H28       1.0  0.5026994673252644  0.26109626904057137  0.2627666908429092  1.0000
  H   H29       1.0  0.9904328119765606  0.8359095420957702  0.08173177653373641  1.0000
  H   H30       1.0  0.49043624784233225  0.6640874875383245  0.9182734157021244  1.0000
  H   H31       1.0  0.0095702160257289  0.1640954701173243  0.9182768163563608  1.0000
  H   H32       1.0  0.5095624667903278  0.33591096911191437  0.08173240423130318  1.0000
  C   C1        1.0  0.40312809610608713  0.4362555237330951  0.7179563452788713  1.0000
  C   C2        1.0  0.9031324234845426  0.06374853682774528  0.28203897442068643  1.0000
  C   C3        1.0  0.5968663051264683  0.5637467687372959  0.2820445848286822  1.0000
  C   C4        1.0  0.0968684478014836  0.9362491713370245  0.7179528898666517  1.0000
  C   C5        1.0  0.259145538662878  0.528419053689305  0.8570324090148347  1.0000
  C   C6        1.0  0.7591439394738302  0.9715813227624182  0.14296435838863175  1.0000
  C   C7        1.0  0.7408477842356405  0.4715738804624578  0.14296407110256837  1.0000
  C   C8        1.0  0.2408472267183868  0.0284210052833558  0.8570340064006815  1.0000
  C   C9        1.0  0.4984699673228191  0.3389849132301491  0.6481416057838132  1.0000
  C   C10       1.0  0.9984698905740287  0.16101704113346216  0.3518577282646689  1.0000
  C   C11       1.0  0.501528747292923  0.6610154909719768  0.3518596314787672  1.0000
  C   C12       1.0  0.0015277456803345997  0.838985310621517  0.6481389263254586  1.0000
  C   C13       1.0  0.5739300664067598  0.3463603661899128  0.5464046324821297  1.0000
  C   C14       1.0  0.07393214354742379  0.1536255308899754  0.4535833623198613  1.0000
  C   C15       1.0  0.426072961592979  0.6536390760899095  0.453598041017905  1.0000
  C   C16       1.0  0.9260719627794175  0.8463646953592272  0.5464045999397342  1.0000
  C   C17       1.0  0.6568904141849855  0.24461001038056196  0.4829461066284964  1.0000
  C   C18       1.0  0.1568869534337693  0.25538038192757984  0.5170469280182459  1.0000
  C   C19       1.0  0.3431190838832733  0.7553940754807871  0.5170613571889149  1.0000
  C   C20       1.0  0.8431149961981176  0.7446135971373805  0.48294213014994375  1.0000
  C   C21       1.0  0.6628486294086784  0.13807643802097402  0.5232058634285153  1.0000
  C   C22       1.0  0.1628466012296883  0.36192140182807003  0.47679280138427765  1.0000
  C   C23       1.0  0.3371608686504288  0.8619304861657398  0.47680071211385666  1.0000
  C   C24       1.0  0.837161818470605  0.6380744299230301  0.5231985149584943  1.0000
  C   C25       1.0  0.585773153770539  0.13848271027705283  0.6257016308329852  1.0000
  C   C26       1.0  0.08576518725069349  0.36151989914678495  0.3743024475393001  1.0000
  C   C27       1.0  0.41422987421784546  0.8615223730810156  0.3743018314303512  1.0000
  C   C28       1.0  0.9142324490059932  0.6384824407506996  0.6256950621552874  1.0000
  C   C29       1.0  0.18125365931109627  0.5793625263159184  0.9683810274948926  1.0000
  C   C30       1.0  0.6812527857581117  0.9206398184117928  0.03161947398398712  1.0000
  C   C31       1.0  0.8187439769692232  0.42063224866642196  0.03161856589829874  1.0000
  C   C32       1.0  0.31873945878400883  0.07936341226398717  0.9683817300982938  1.0000
  C   C33       1.0  0.18704422849475574  0.5288936189206906  0.06488940781403578  1.0000
  C   C34       1.0  0.6870382444008881  0.9711105800053161  0.9351125141356249  1.0000
  C   C35       1.0  0.8129566428191878  0.47110673784953144  0.9351152498696325  1.0000
  C   C36       1.0  0.3129540001367133  0.028895465280839992  0.064889511880537  1.0000
  C   C37       1.0  0.12139582821758667  0.5940269997767799  0.1724632775127617  1.0000
  C   C38       1.0  0.62139389274963  0.9059707491251886  0.8275365291262986  1.0000
  C   C39       1.0  0.8786050431001724  0.40597240693249137  0.8275419612974063  1.0000
  C   C40       1.0  0.378599430139964  0.09403060514270578  0.1724641270016747  1.0000
  C   C41       1.0  0.04991536195710469  0.7064391473534641  0.18054114426492157  1.0000
  C   C42       1.0  0.5499128416322351  0.7935540146504463  0.8194587876785208  1.0000
  C   C43       1.0  0.9500876660602485  0.29355648282505337  0.8194647088455652  1.0000
  C   C44       1.0  0.4500772462277993  0.206446389559396  0.1805424495710923  1.0000
  C   C45       1.0  0.04620656303668369  0.7494455826330223  0.07977949168214583  1.0000
  C   C46       1.0  0.5462015522890623  0.7505522533081289  0.9202235092001843  1.0000
  C   C47       1.0  0.9537964649708213  0.2505547504202781  0.9202268762136896  1.0000
  C   C48       1.0  0.4537906922645263  0.24944812718479167  0.07977943826158909  1.0000
  N   N1        1.0  0.3632570670519755  0.5417192157174852  0.6921514525364572  1.0000
  N   N2        1.0  0.8632661188989625  0.9582838484323728  0.30784217446297646  1.0000
  N   N3        1.0  0.636739490873225  0.4582793357946428  0.3078475265580352  1.0000
  N   N4        1.0  0.13673906576514838  0.041719441519312284  0.6921547541164587  1.0000
  N   N5        1.0  0.2713110466634987  0.6003765119796327  0.7813719372236677  1.0000
  N   N6        1.0  0.7713177443798357  0.8996229282197421  0.21862288259934104  1.0000
  N   N7        1.0  0.7286855112655174  0.39962108947153746  0.2186276229973245  1.0000
  N   N8        1.0  0.22868097022293193  0.10038126436869986  0.7813768852617073  1.0000
  N   N9        1.0  0.33906179824028726  0.42262636942607673  0.8191987452040834  1.0000
  N   N10       1.0  0.839061205344592  0.0773720697753717  0.1808024338484771  1.0000
  N   N11       1.0  0.6609358380384123  0.5773665528643334  0.18079859002426701  1.0000
  N   N12       1.0  0.16093319588171076  0.9226283937180851  0.8191945278853153  1.0000
  N   N13       1.0  0.5049813648199049  0.23593269359075456  0.6883542375563964  1.0000
  N   N14       1.0  0.0049778416528667  0.2640690153940141  0.3116570197623574  1.0000
  N   N15       1.0  0.49501842815037383  0.7640685895263956  0.3116515492080794  1.0000
  N   N16       1.0  0.9950208729529137  0.7359333007875148  0.6883422001427634  1.0000
  N   N17       1.0  0.1102595297644982  0.6888850440059571  0.9751368318273421  1.0000
  N   N18       1.0  0.610255907925925  0.8111202541560228  0.02486342292587539  1.0000
  N   N19       1.0  0.8897348714870575  0.3111097072642862  0.024864471769909365  1.0000
  N   N20       1.0  0.3897363366047201  0.18888582670261653  0.9751360377768988  1.0000
