data_image0
_chemical_formula_structural       Cd2H36C64Br8N16O14
_chemical_formula_sum              "Cd2 H36 C64 Br8 N16 O14"
_cell_length_a       10.65453998699313
_cell_length_b       12.22335182562176
_cell_length_c       15.16377802799166
_cell_angle_alpha    79.91811224475849
_cell_angle_beta     71.11520196881463
_cell_angle_gamma    67.00013584291563

_space_group_name_H-M_alt    "P 1"
_space_group_IT_number       1

loop_
  _space_group_symop_operation_xyz
  'x, y, z'

loop_
  _atom_site_type_symbol
  _atom_site_label
  _atom_site_symmetry_multiplicity
  _atom_site_fract_x
  _atom_site_fract_y
  _atom_site_fract_z
  _atom_site_occupancy
  Cd  Cd1       1.0  0.45243328453859266  0.8230699741441186  0.6786262019371847  1.0000
  Cd  Cd2       1.0  0.5475686342009213  0.17693135170035387  0.32137401819270633  1.0000
  H   H1        1.0  0.726409456202674  0.8544796508928344  0.6257193713340996  1.0000
  H   H2        1.0  0.27359147007299367  0.14552162266117108  0.37427778785476556  1.0000
  H   H3        1.0  0.6374028227860083  0.9514989115992021  0.5626601393465334  1.0000
  H   H4        1.0  0.3625959387726995  0.04850506690134179  0.43734107269884237  1.0000
  H   H5        1.0  0.06397583618319659  0.15476982580026544  0.9207837076285441  1.0000
  H   H6        1.0  0.9360339752090777  0.8452316092671451  0.07921533646055687  1.0000
  H   H7        1.0  0.23168715178639582  0.9526580997033564  0.8699118769853483  1.0000
  H   H8        1.0  0.7683171307684021  0.047346828937065814  0.1300866018704666  1.0000
  H   H9        1.0  0.4096557361894213  0.0886254349998765  0.6105000559697158  1.0000
  H   H10       1.0  0.5903451931043903  0.9113803535979699  0.38949972715837317  1.0000
  H   H11       1.0  0.248696153929437  0.2970488789715944  0.6500492058757174  1.0000
  H   H12       1.0  0.7513059590819395  0.7029587229127189  0.34995069367568016  1.0000
  H   H13       1.0  0.8465551150464848  0.4027356997755475  0.07574982933111576  1.0000
  H   H14       1.0  0.1534442413843351  0.5972602147230147  0.9242511283491976  1.0000
  H   H15       1.0  0.6929202203683217  0.5107711715100861  0.21887046140641075  1.0000
  H   H16       1.0  0.3070834763591677  0.48922839488572123  0.7811302706002504  1.0000
  H   H17       1.0  0.5872573160430931  0.8343912927159352  0.06785748693516785  1.0000
  H   H18       1.0  0.41274420812283097  0.16560643187992946  0.9321420418278591  1.0000
  H   H19       1.0  0.7296730469741275  0.7381663625375129  0.9162866756944223  1.0000
  H   H20       1.0  0.27032314925774875  0.2618276895732734  0.08371264996214475  1.0000
  H   H21       1.0  0.6388059215643196  0.5066315254140435  0.4075736154698573  1.0000
  H   H22       1.0  0.36119403034673775  0.49336981473442165  0.5924303533814452  1.0000
  H   H23       1.0  0.4672430991704956  0.6779913230009313  0.506237121703144  1.0000
  H   H24       1.0  0.5327568527405618  0.3220100171475409  0.49376684714816566  1.0000
  H   H25       1.0  0.742888994731885  0.6242273110123406  0.6626970296700063  1.0000
  H   H26       1.0  0.2571152986792384  0.3757686984996624  0.33730541387058816  1.0000
  H   H27       1.0  0.9248316911907395  0.44879090664146293  0.5729752366271156  1.0000
  H   H28       1.0  0.07517102091429707  0.5512041637509953  0.42702573286137374  1.0000
  H   H29       1.0  0.27553175410848507  0.0783050492863921  0.24388336332135194  1.0000
  H   H30       1.0  0.7244527986275315  0.9217086086445505  0.7561210003740866  1.0000
  H   H31       1.0  0.3332853859237233  0.9661596146302925  0.10529844994186281  1.0000
  H   H32       1.0  0.6667191011575611  0.0338471621884082  0.8947043228387698  1.0000
  H   H33       1.0  0.9307133422920943  0.14727318859651464  0.07107114980232139  1.0000
  H   H34       1.0  0.06929251734081994  0.8527191657345767  0.9289235634488334  1.0000
  H   H35       1.0  0.8524664273089045  0.2622519677124941  0.21010635735867564  1.0000
  H   H36       1.0  0.14752759394817613  0.7377402267470217  0.7898904489737787  1.0000
  C   C1        1.0  0.13806230002094114  0.1441014562792304  0.8513251279777376  1.0000
  C   C2        1.0  0.8619443493640658  0.8559025997416042  0.14867227586591983  1.0000
  C   C3        1.0  0.23146450229183563  0.03126998717417711  0.8230771746434298  1.0000
  C   C4        1.0  0.7685431359371719  0.9687340973601408  0.17692131602056796  1.0000
  C   C5        1.0  0.3313834683759893  0.1072902362841006  0.6782901184149349  1.0000
  C   C6        1.0  0.6686168648358827  0.8927146179307004  0.32170730336068937  1.0000
  C   C7        1.0  0.24184822011539345  0.2227763223813639  0.7002732243129086  1.0000
  C   C8        1.0  0.7581536931959503  0.7772294630273251  0.2997250134745928  1.0000
  C   C9        1.0  0.14158026225263856  0.24206689448190127  0.7881557836962327  1.0000
  C   C10       1.0  0.8584208625164395  0.7579361876220716  0.21184237921629293  1.0000
  C   C11       1.0  0.04542426604133706  0.3619004681521504  0.8119858901759398  1.0000
  C   C12       1.0  0.9545719265738981  0.6381025506410295  0.18801341903722593  1.0000
  C   C13       1.0  0.8943865251059221  0.5049536097624525  0.8985535115054971  1.0000
  C   C14       1.0  0.10560967052424536  0.49504493361519747  0.1014464639696016  1.0000
  C   C15       1.0  0.8033898391055344  0.5630821655404787  0.9843345148194087  1.0000
  C   C16       1.0  0.19660655561975196  0.4369136951202748  0.015665814560819103  1.0000
  C   C17       1.0  0.7915427525748484  0.4986060421954478  0.07084086071665038  1.0000
  C   C18       1.0  0.2084540373257368  0.5013889284470636  0.9291595102119172  1.0000
  C   C19       1.0  0.7053742941979309  0.5599191932487386  0.1510496674806276  1.0000
  C   C20       1.0  0.29462683599931694  0.44007942929103183  0.8489504777742878  1.0000
  C   C21       1.0  0.6458749437608587  0.7383772495367894  0.06708776936296354  1.0000
  C   C22       1.0  0.35412776834417764  0.261617820855669  0.9329132001255259  1.0000
  C   C23       1.0  0.7267457689235286  0.6860723285039895  0.9824310288676085  1.0000
  C   C24       1.0  0.27325516941508715  0.3139200338472605  0.017570753046271585  1.0000
  C   C25       1.0  0.6656042416263118  0.5296807565501284  0.46358908087814393  1.0000
  C   C26       1.0  0.3343986659572025  0.4703205978078344  0.5364122260720875  1.0000
  C   C27       1.0  0.57048728204726  0.6250190972311955  0.5179870049755663  1.0000
  C   C28       1.0  0.4295120731801562  0.37498579980108093  0.4820152523418102  1.0000
  C   C29       1.0  0.7247605047935367  0.5953516799370532  0.6053562389949717  1.0000
  C   C30       1.0  0.275238270034734  0.40464339528639925  0.3946502538156551  1.0000
  C   C31       1.0  0.8250928797114057  0.4981140884975658  0.5557372721450236  1.0000
  C   C32       1.0  0.17490648697405212  0.5018773981394349  0.4442683000386011  1.0000
  C   C33       1.0  0.7963717195826664  0.46480692839872967  0.48254186407427085  1.0000
  C   C34       1.0  0.2036292163459237  0.5351944085605708  0.5174605594364505  1.0000
  C   C35       1.0  0.9058243427485522  0.36629153651637136  0.4292680416406043  1.0000
  C   C36       1.0  0.09417717840243259  0.633710663495023  0.5707308208604898  1.0000
  C   C37       1.0  0.02169779335252287  0.2429876734875407  0.3210177202252637  1.0000
  C   C38       1.0  0.9782914894208685  0.7570152249678727  0.6789805616478688  1.0000
  C   C39       1.0  0.05857014079715843  0.18064290980585437  0.23810334009601059  1.0000
  C   C40       1.0  0.9414219021734244  0.8193627093529229  0.7618939000916142  1.0000
  C   C41       1.0  0.19597799659239706  0.096125647561216  0.20748480941922046  1.0000
  C   C42       1.0  0.8040093090979069  0.9038816930597521  0.7925126066720125  1.0000
  C   C43       1.0  0.22820235041911738  0.0341804946809816  0.12954517548860167  1.0000
  C   C44       1.0  0.7717956244088525  0.9658252876330382  0.8704579275808014  1.0000
  C   C45       1.0  0.005531348991262067  0.13345340555853372  0.11073942156707517  1.0000
  C   C46       1.0  0.9944727398933749  0.8665407557751976  0.8892587280487018  1.0000
  C   C47       1.0  0.9612480969863384  0.20009544859554038  0.18820591903059378  1.0000
  C   C48       1.0  0.03874828808602601  0.7999003486599251  0.8117891460277844  1.0000
  C   C49       1.0  0.47721455454666295  0.6697372694936802  0.8375967422924188  1.0000
  C   C50       1.0  0.5227877611796715  0.3302676734507344  0.16240548528480755  1.0000
  C   C51       1.0  0.48885783283022033  0.5813061151323639  0.9211733460132049  1.0000
  C   C52       1.0  0.511139345614076  0.41870140758982904  0.0788263837583685  1.0000
  C   C53       1.0  0.4234609948549989  0.5388743203993583  0.08949770022409347  1.0000
  C   C54       1.0  0.5765369763531184  0.46113143813767005  0.9105034287246099  1.0000
  C   C55       1.0  0.4120591752440604  0.6190585502309887  0.011574432942573796  1.0000
  C   C56       1.0  0.5879328773794512  0.3809471323330911  0.9884280715669004  1.0000
  C   C57       1.0  0.25477277968490586  0.9162730136093842  0.5654106016834105  1.0000
  C   C58       1.0  0.7452313122178752  0.0837256627681882  0.43459017187159077  1.0000
  C   C59       1.0  0.12408669331992409  0.9623218413419111  0.5299495106220745  1.0000
  C   C60       1.0  0.8759191651095862  0.0376794955228945  0.4700465022661432  1.0000
  C   C61       1.0  0.9963638179331156  0.045481815653083395  0.5793687343992956  1.0000
  C   C62       1.0  0.003642634766805565  0.9545159484765902  0.42062767394239126  1.0000
  C   C63       1.0  0.8733278143878281  0.0819107410401116  0.5500621150998127  1.0000
  C   C64       1.0  0.12667765127961425  0.9180915016942566  0.4499351723205363  1.0000
  Br  Br1       1.0  0.29250048274950297  0.7819392210222134  0.027073817016088186  1.0000
  Br  Br2       1.0  0.707490968965601  0.218065495456166  0.9729236939799929  1.0000
  Br  Br3       1.0  0.3218229151344191  0.5928583052182006  0.21135451761954016  1.0000
  Br  Br4       1.0  0.6781707181902662  0.4071438172729034  0.7886481530832794  1.0000
  Br  Br5       1.0  0.9924011242505839  0.11025971200877653  0.6851077153766738  1.0000
  Br  Br6       1.0  0.007601978203290048  0.8897344366627921  0.31489066349921996  1.0000
  Br  Br7       1.0  0.6994763605566305  0.1907806207157634  0.6200411626549351  1.0000
  Br  Br8       1.0  0.3005265584881229  0.809216313706294  0.3799654168388429  1.0000
  N   N1        1.0  0.3249565087576727  0.012668013877444699  0.7380328715527823  1.0000
  N   N2        1.0  0.6750444157096781  0.987337743017754  0.2619642794143856  1.0000
  N   N3        1.0  0.021756182153680498  0.4590487418762947  0.7570651800111037  1.0000
  N   N4        1.0  0.9782402083500584  0.5409515862743318  0.24293382506696298  1.0000
  N   N5        1.0  0.9245648625396541  0.5513344712971603  0.8129054627302988  1.0000
  N   N6        1.0  0.07542955148269924  0.4486658077521638  0.18709202674733663  1.0000
  N   N7        1.0  0.6341660957172051  0.6779949475475462  0.1506885015360808  1.0000
  N   N8        1.0  0.3658397717603208  0.32200195353003386  0.8493114678152266  1.0000
  N   N9        1.0  0.5997485176693687  0.6581413777635348  0.5868844654244326  1.0000
  N   N10       1.0  0.4002551826779666  0.3418582124092637  0.4131182407029285  1.0000
  N   N11       1.0  0.027529257074952795  0.30168549881892665  0.44636478659553075  1.0000
  N   N12       1.0  0.9724738387441361  0.6983131014911877  0.5536309518977445  1.0000
  N   N13       1.0  0.10137679095408456  0.22317358726824205  0.37679414664767547  1.0000
  N   N14       1.0  0.8986188061809203  0.7768240058750353  0.6232021513944941  1.0000
  N   N15       1.0  0.13583745066208044  0.05094541001705721  0.08113064538127898  1.0000
  N   N16       1.0  0.8641680156070702  0.9490523414504538  0.9188659922205384  1.0000
  O   O1        1.0  0.9672771461432531  0.3842072556258316  0.902750625149018  1.0000
  O   O2        1.0  0.03272220365278858  0.6157931105112766  0.09724769214867018  1.0000
  O   O3        1.0  0.894595619730424  0.3330015684276121  0.3512433530542437  1.0000
  O   O4        1.0  0.1053972196238248  0.6670023103229923  0.6487572604312104  1.0000
  O   O5        1.0  0.3711812394696992  0.6935630714027071  0.8066890782911428  1.0000
  O   O6        1.0  0.628820877763225  0.30644006299173304  0.19331214556241597  1.0000
  O   O7        1.0  0.5726429551445521  0.7146858998088631  0.8043730814545496  1.0000
  O   O8        1.0  0.4273581726426698  0.28532169733895074  0.19562770539720728  1.0000
  O   O9        1.0  0.2572095648942179  0.8344332812946932  0.6297537529270015  1.0000
  O   O10       1.0  0.7427990651937294  0.1655663563375782  0.37024649081925504  1.0000
  O   O11       1.0  0.35142456271383077  0.9598612045208057  0.5311797763090809  1.0000
  O   O12       1.0  0.6485777505992728  0.04014372257228159  0.4688211351876814  1.0000
  O   O13       1.0  0.6271794128739572  0.9033625731466445  0.6234927142795854  1.0000
  O   O14       1.0  0.3728195465732469  0.09663871471135371  0.3765081936306912  1.0000
