data_image0
_chemical_formula_structural       Zn2H34C42N2O10
_chemical_formula_sum              "Zn2 H34 C42 N2 O10"
_cell_length_a       10.86544019267506
_cell_length_b       12.429736114266866
_cell_length_c       13.533622181433337
_cell_angle_alpha    78.91750192919712
_cell_angle_beta     89.60373040357312
_cell_angle_gamma    73.4890905511671

_space_group_name_H-M_alt    "P 1"
_space_group_IT_number       1

loop_
  _space_group_symop_operation_xyz
  'x, y, z'

loop_
  _atom_site_type_symbol
  _atom_site_label
  _atom_site_symmetry_multiplicity
  _atom_site_fract_x
  _atom_site_fract_y
  _atom_site_fract_z
  _atom_site_occupancy
  Zn  Zn1       1.0  0.4533502706867695  0.6187420450906133  0.5055594344483437  1.0000
  Zn  Zn2       1.0  0.5300579087706508  0.38569604845350364  0.4907139862477407  1.0000
  H   H1        1.0  0.8280006264216625  0.6822011157111161  0.44253170238154366  1.0000
  H   H2        1.0  0.270208121362181  0.8142495376397109  0.009859172643615514  1.0000
  H   H3        1.0  0.8420938632169239  0.6075404141313425  0.3423367754507324  1.0000
  H   H4        1.0  0.6713599946268684  0.4195458449396271  0.24624256272911538  1.0000
  H   H5        1.0  0.27542728591351573  0.7452743549054613  0.6377335508455175  1.0000
  H   H6        1.0  0.27990533380570076  0.12062761045823586  0.6802282034708751  1.0000
  H   H7        1.0  0.22939345083992171  0.9350084196111937  0.6921372367158014  1.0000
  H   H8        1.0  0.5570534473702582  0.8134453912348362  0.45149125875592927  1.0000
  H   H9        1.0  0.7207284828212721  0.2519684390010752  0.38070529306897777  1.0000
  H   H10       1.0  0.6752540291499899  0.9161094785446834  0.4020968970664711  1.0000
  H   H11       1.0  0.40231387106318556  0.25330691653117293  0.6046270418433364  1.0000
  H   H12       1.0  0.15529196431027967  0.32493952920584224  0.5379479335792751  1.0000
  H   H13       1.0  0.0626585317107455  0.5868678974613174  0.33436337155531953  1.0000
  H   H14       1.0  0.04127914759525449  0.6858614227300421  0.41525454706184906  1.0000
  H   H15       1.0  0.8475616506221044  0.5770372376205656  0.6237213021894943  1.0000
  H   H16       1.0  0.04830397510011146  0.6132492837020536  0.6037266141914797  1.0000
  H   H17       1.0  0.9472350876201788  0.3148346312354278  0.5092259956702633  1.0000
  H   H18       1.0  0.9382625460614236  0.38986084941768684  0.3839328888387285  1.0000
  H   H19       1.0  0.1580460546837373  0.371819942663066  0.4071957440668115  1.0000
  H   H20       1.0  0.7766996070160983  0.28063254032005597  0.6933418240022602  1.0000
  H   H21       1.0  0.9315522924098547  0.9170817912479946  0.4254647563440129  1.0000
  H   H22       1.0  0.9519225807994331  0.05442115765117711  0.4276749316748577  1.0000
  H   H23       1.0  0.9203399825396519  0.42740340961118045  0.6511146043050076  1.0000
  H   H24       1.0  0.016819478556200834  0.9262619506563892  0.2525599775017325  1.0000
  H   H25       1.0  0.03589188045898341  0.06256217485178438  0.25441623230948096  1.0000
  H   H26       1.0  0.17778805050782848  0.8371374542833865  0.40079891511949467  1.0000
  H   H27       1.0  0.19417231140680272  0.974437183216956  0.4060740881662425  1.0000
  H   H28       1.0  0.24675552483462587  0.9107948718858834  0.30092969794378627  1.0000
  H   H29       1.0  0.11780038569879986  0.4665196377496912  0.6557473228630496  1.0000
  H   H30       1.0  0.7952001207240827  0.29453696260646467  0.13688861407293015  1.0000
  H   H31       1.0  0.8272929058213311  0.24133940053823713  0.9691357279052111  1.0000
  H   H32       1.0  0.449857463348728  0.5630363748278171  0.8216491760330981  1.0000
  H   H33       1.0  0.3189019829824886  0.7606789701033776  0.1966597915583747  1.0000
  H   H34       1.0  0.3828860466716294  0.6847979000863018  0.9003077310649629  1.0000
  C   C1        1.0  0.4759381883379987  0.5719724594018061  0.3025114898676405  1.0000
  C   C2        1.0  0.5034863653775262  0.5596499056068821  0.0213175744638576  1.0000
  C   C3        1.0  0.5362201805950235  0.5325542270908913  0.12707437717374145  1.0000
  C   C4        1.0  0.7342923656251016  0.4964158876890394  0.4936002899192998  1.0000
  C   C5        1.0  0.5702942336070294  0.4812175769959594  0.9585351739466643  1.0000
  C   C6        1.0  0.6761710841303028  0.38532896577661546  0.0010838530857100075  1.0000
  C   C7        1.0  0.7125261643601632  0.36677870083214253  0.1057813314185694  1.0000
  C   C8        1.0  0.644057174686175  0.4358743303834344  0.1663798771532043  1.0000
  C   C9        1.0  0.5325822644276383  0.49375573326358346  0.8567351225943511  1.0000
  C   C10       1.0  0.7054666001725921  0.3263612580315182  0.8376072437081206  1.0000
  C   C11       1.0  0.4636278396073123  0.6051612987092128  0.18961160808528624  1.0000
  C   C12       1.0  0.11090127609633534  0.5085935260684166  0.4916972795867593  1.0000
  C   C13       1.0  0.303071713588274  0.9111599292664676  0.638771027292897  1.0000
  C   C14       1.0  0.672694474491621  0.18754879133495447  0.41103188697329773  1.0000
  C   C15       1.0  0.711618206366211  0.07841997888085221  0.38599327209153234  1.0000
  C   C16       1.0  0.5390363670428967  0.437588074488417  0.6915671975909206  1.0000
  C   C17       1.0  0.6461203976306322  0.9997290321481457  0.42325896724133105  1.0000
  C   C18       1.0  0.5448011654776223  0.029095610277693095  0.48769449924337477  1.0000
  C   C19       1.0  0.5153234446391863  0.1391249518449911  0.5136951802382511  1.0000
  C   C20       1.0  0.4699816816496354  0.953156502711046  0.529740996107769  1.0000
  C   C21       1.0  0.37407753172404057  0.9873644722026711  0.5990101760294165  1.0000
  C   C22       1.0  0.35251756971516096  0.09639050453138512  0.6261802065969346  1.0000
  C   C23       1.0  0.053175755760932496  0.5262267159810888  0.5942705070906911  1.0000
  C   C24       1.0  0.4201846951883113  0.16967147349020453  0.5849064724514078  1.0000
  C   C25       1.0  0.48633356364443614  0.8456743267207685  0.5043213877085859  1.0000
  C   C26       1.0  0.3270276592965118  0.8074124737646214  0.6093430125343315  1.0000
  C   C27       1.0  0.2489460897231268  0.5147833960640823  0.4952509606178451  1.0000
  C   C28       1.0  0.8850016937073946  0.6055162823297167  0.4163343687374378  1.0000
  C   C29       1.0  0.027871304606385615  0.603312476520216  0.40817057187785366  1.0000
  C   C30       1.0  0.9184350768428687  0.5069668740938127  0.5978728880860725  1.0000
  C   C31       1.0  0.9637142801096417  0.39142354664588913  0.4620965363851254  1.0000
  C   C32       1.0  0.8738729985289666  0.4987506783226435  0.4920010826131714  1.0000
  C   C33       1.0  0.7907440341712686  0.2512198856015004  0.7762035478515227  1.0000
  C   C34       1.0  0.1049767562362334  0.3914472243349323  0.4740319073493636  1.0000
  C   C35       1.0  0.9349727556794107  0.998880964207487  0.37767731409912375  1.0000
  C   C36       1.0  0.038704449826489996  0.9795244600360886  0.3023373013716295  1.0000
  C   C37       1.0  0.17137857032569298  0.9222644134679071  0.35563391954608636  1.0000
  C   C38       1.0  0.7426148078456621  0.31182224146701987  0.9386424690984609  1.0000
  C   C39       1.0  0.5949357226013632  0.41810183049019395  0.7968190337685211  1.0000
  C   C40       1.0  0.3710276395840283  0.705925561978752  0.14695036007183399  1.0000
  C   C41       1.0  0.34324785913922545  0.7349698604139759  0.042415267438101985  1.0000
  C   C42       1.0  0.40679964585606143  0.6619076482390511  0.9811049095244896  1.0000
  N   N1        1.0  0.41720580261803514  0.7760711440337996  0.5422444603270478  1.0000
  N   N2        1.0  0.5780055578643655  0.21676865371470203  0.47229094361328805  1.0000
  O   O1        1.0  0.46487572540187466  0.6519021457934571  0.35155778846063857  1.0000
  O   O2        1.0  0.8111036508498087  0.05408198910339481  0.32333984952744277  1.0000
  O   O3        1.0  0.49080114949157416  0.46680827028075106  0.34026899937383337  1.0000
  O   O4        1.0  0.6521715377490979  0.5823294606329199  0.5168522148309478  1.0000
  O   O5        1.0  0.7092230858420268  0.408848556700505  0.4727725750740887  1.0000
  O   O6        1.0  0.46445448862450434  0.536773727619817  0.6556572743352118  1.0000
  O   O7        1.0  0.569069803231166  0.35411749121230673  0.6452461095743445  1.0000
  O   O8        1.0  0.2673296034818335  0.6124134109680455  0.48975018724711816  1.0000
  O   O9        1.0  0.33736950869052157  0.4202011756145936  0.5059053376380334  1.0000
  O   O10       1.0  0.8752408604316958  0.16326763923946427  0.8132751504407804  1.0000
