data_image0
_chemical_formula_structural       Zn2H42C50N10O20
_chemical_formula_sum              "Zn2 H42 C50 N10 O20"
_cell_length_a       10.273144233366157
_cell_length_b       12.701051891499109
_cell_length_c       13.2633
_cell_angle_alpha    112.28751678217115
_cell_angle_beta     108.42700980543897
_cell_angle_gamma    90.1695571101606

_space_group_name_H-M_alt    "P 1"
_space_group_IT_number       1

loop_
  _space_group_symop_operation_xyz
  'x, y, z'

loop_
  _atom_site_type_symbol
  _atom_site_label
  _atom_site_symmetry_multiplicity
  _atom_site_fract_x
  _atom_site_fract_y
  _atom_site_fract_z
  _atom_site_occupancy
  Zn  Zn1       1.0  0.708150616498841  0.3392275137634897  0.730559927599941  1.0000
  Zn  Zn2       1.0  0.291848258642375  0.6607719606514522  0.26943545933507806  1.0000
  H   H1        1.0  0.2750989978960519  0.19049794268185852  0.012174604902497806  1.0000
  H   H2        1.0  0.7249031003021713  0.8095023910938721  0.987824899086739  1.0000
  H   H3        1.0  0.1149606544681632  0.9042537925402101  0.676200576594418  1.0000
  H   H4        1.0  0.8850401277098996  0.09574482251395011  0.32380476662930857  1.0000
  H   H5        1.0  0.36187897417912035  0.8499688311046327  0.9778556422639396  1.0000
  H   H6        1.0  0.6381172579078721  0.1500332213926683  0.022152851186767464  1.0000
  H   H7        1.0  0.5283817727689879  0.96450959271084  0.1547512939686085  1.0000
  H   H8        1.0  0.47161255228115806  0.0354933191472426  0.8452510129942681  1.0000
  H   H9        1.0  0.36598110641241993  0.9467758235489968  0.17467118334621995  1.0000
  H   H10       1.0  0.6340173227128004  0.053227088309086  0.8253374061538352  1.0000
  H   H11       1.0  0.5744887794297213  0.9503825607641687  0.36587480537237127  1.0000
  H   H12       1.0  0.4255149247900363  0.0496212104547027  0.6341270941872281  1.0000
  H   H13       1.0  0.6757093843117089  0.0808813183744235  0.5752514774968134  1.0000
  H   H14       1.0  0.3242921228698208  0.9191215934836663  0.42474957205325825  1.0000
  H   H15       1.0  0.5707602847030485  0.36706994384076097  0.5053291822941404  1.0000
  H   H16       1.0  0.4292371073894827  0.6329389835428145  0.4946768142477396  1.0000
  H   H17       1.0  0.4664471678442936  0.24898174091355676  0.2930540214505086  1.0000
  H   H18       1.0  0.5335498002600829  0.7510185928621667  0.7069472423594974  1.0000
  H   H19       1.0  0.1708560788314628  0.279998649731084  0.9265028999724122  1.0000
  H   H20       1.0  0.8291410342736044  0.7200025434054282  0.07349117183738232  1.0000
  H   H21       1.0  0.0714374044246497  0.2781286806626539  0.7891011919885783  1.0000
  H   H22       1.0  0.9285595746936508  0.7218656375875839  0.21089035021280012  1.0000
  H   H23       1.0  0.4240707890939318  0.3377872250876166  0.992891244211684  1.0000
  H   H24       1.0  0.5759257440083657  0.6622105306057549  0.007102191152085905  1.0000
  H   H25       1.0  0.6335306879824074  0.3705701203185754  0.9430192466794622  1.0000
  H   H26       1.0  0.36646994919497183  0.6294276353747961  0.05697293161972535  1.0000
  H   H27       1.0  0.4037339914733807  0.24904963041558403  0.5931767913000882  1.0000
  H   H28       1.0  0.5962651956970719  0.7509395316699355  0.406818696625173  1.0000
  H   H29       1.0  0.1865971003672229  0.209156384048498  0.626892206550501  1.0000
  H   H30       1.0  0.8134019197746909  0.7908439497272326  0.3731020200657155  1.0000
  H   H31       1.0  0.3597596399941311  0.5261565311047249  0.7791574336642597  1.0000
  H   H32       1.0  0.6402458262617827  0.4738455213925761  0.2208510587417861  1.0000
  H   H33       1.0  0.2740464091866813  0.5401202845022226  0.6456307562189636  1.0000
  H   H34       1.0  0.7259571500323857  0.45988262735586016  0.354373057619611  1.0000
  H   H35       1.0  0.16375547686213573  0.6097267893757987  0.9088564787256885  1.0000
  H   H36       1.0  0.8362417702297049  0.39028127864699513  0.0911491702146421  1.0000
  H   H37       1.0  0.9473857404085491  0.5161020099187539  0.8990346930121405  1.0000
  H   H38       1.0  0.052607692609598196  0.4839077768256104  0.10096386067376532  1.0000
  H   H39       1.0  0.8531697637914346  0.3079029537848896  0.5491490296117971  1.0000
  H   H40       1.0  0.14684098857294  0.6920939425477002  0.45085436064780987  1.0000
  H   H41       1.0  0.0671183109596143  0.3910031417064985  0.5447255990530734  1.0000
  H   H42       1.0  0.9328934674235255  0.6089937546260842  0.45527502656980795  1.0000
  C   C1        1.0  0.3235430612388086  0.0255840299339667  0.005964494949814979  1.0000
  C   C2        1.0  0.6764575649246467  0.9744197412849047  0.9940389128783521  1.0000
  C   C3        1.0  0.2619811860649222  0.10012412507494162  0.9550551818550161  1.0000
  C   C4        1.0  0.7380170980596077  0.8998779274223523  0.044945520441721905  1.0000
  C   C5        1.0  0.18606834574460857  0.056124852876529  0.8367615824989088  1.0000
  C   C6        1.0  0.8139337634675385  0.9438694653737018  0.16324177116486277  1.0000
  C   C7        1.0  0.17388189350958777  0.9388052522669597  0.7686177840998951  1.0000
  C   C8        1.0  0.8261153756101008  0.061190784704841406  0.2313865166673991  1.0000
  C   C9        1.0  0.2376976451742152  0.8663430915044118  0.8204618787717735  1.0000
  C   C10       1.0  0.7622990329287802  0.1336555235497485  0.1795447215165353  1.0000
  C   C11       1.0  0.3136821621904957  0.9084199736265007  0.9398436487697877  1.0000
  C   C12       1.0  0.6863219880452647  0.09158036014923  0.06016012742829702  1.0000
  C   C13       1.0  0.4480307786221474  0.0106242773865048  0.1853941412191489  1.0000
  C   C14       1.0  0.5519664794836173  0.9893777751107962  0.8146100796744804  1.0000
  C   C15       1.0  0.5108363673736136  0.0887315791465397  0.3114914426487302  1.0000
  C   C16       1.0  0.48916792786284446  0.9112696139899725  0.6885134351110763  1.0000
  C   C17       1.0  0.5714240421836366  0.0424885159381603  0.3929935459885598  1.0000
  C   C18       1.0  0.4285806990688172  0.9575092397552112  0.6070064227681513  1.0000
  C   C19       1.0  0.6278860793538641  0.1142554538255425  0.5098299141880815  1.0000
  C   C20       1.0  0.3721165988471284  0.8857483173933218  0.49017022624717294  1.0000
  C   C21       1.0  0.5694555028566056  0.274114606435333  0.4708832630038203  1.0000
  C   C22       1.0  0.4305433612706935  0.7258908835051088  0.5291195836593018  1.0000
  C   C23       1.0  0.5108705014531196  0.2077831255138705  0.35240388880052353  1.0000
  C   C24       1.0  0.4891230875796424  0.7922215050657897  0.6476003700818183  1.0000
  C   C25       1.0  0.1579945315006768  0.2436330793869388  0.83394178616809  1.0000
  C   C26       1.0  0.842005525673926  0.756361238863292  0.16605050964524537  1.0000
  C   C27       1.0  0.2878354502432998  0.2710105952794635  0.8134022852398815  1.0000
  C   C28       1.0  0.7121647519319936  0.7289845823315558  0.18659035817500313  1.0000
  C   C29       1.0  0.41540604641220813  0.3168205406521309  0.9030612518194587  1.0000
  C   C30       1.0  0.5845910777067828  0.6831746369588885  0.09693289986399367  1.0000
  C   C31       1.0  0.5320164476678783  0.334754540876915  0.8761506161103583  1.0000
  C   C32       1.0  0.4679746653391915  0.6652414960948931  0.12384011407019808  1.0000
  C   C33       1.0  0.4039531154875888  0.2665840278752825  0.6802911265178009  1.0000
  C   C34       1.0  0.5960432726140183  0.7334128684573075  0.31970120728424684  1.0000
  C   C35       1.0  0.28344883595153186  0.24560273430644491  0.6998308057195501  1.0000
  C   C36       1.0  0.7165515112244591  0.7543933026653562  0.3001644471774084  1.0000
  C   C37       1.0  0.22035749736430427  0.7429732571918278  0.7441563728465113  1.0000
  C   C38       1.0  0.7796489949103744  0.2570287953054731  0.25585086284316816  1.0000
  C   C39       1.0  0.2717401815108644  0.558309514880186  0.7327317993841334  1.0000
  C   C40       1.0  0.7282669017805147  0.441689959534763  0.2672723828243519  1.0000
  C   C41       1.0  0.13744937118956807  0.5055808558264658  0.7279672749941496  1.0000
  C   C42       1.0  0.8625540430288083  0.4944211966708281  0.27203392936234383  1.0000
  C   C43       1.0  0.10047295631716219  0.5412950306954869  0.8274597941135085  1.0000
  C   C44       1.0  0.8995220937364437  0.4587121779665182  0.17253972709606558  1.0000
  C   C45       1.0  0.9779974633863374  0.490236969008059  0.8226853226907876  1.0000
  C   C46       1.0  0.021998902687421707  0.5097719583755236  0.17731665284622267  1.0000
  C   C47       1.0  0.9255407811945275  0.3734403853408992  0.6280419124679568  1.0000
  C   C48       1.0  0.07446762913092189  0.6265547922701202  0.37195801830004876  1.0000
  C   C49       1.0  0.04701242849000661  0.4202334394517493  0.6262913077467971  1.0000
  C   C50       1.0  0.9529984688750588  0.5797643162416222  0.37371167615417983  1.0000
  N   N1        1.0  0.6268585106063467  0.229100429149689  0.5495013089089724  1.0000
  N   N2        1.0  0.37314299657518296  0.7709024827084009  0.45050049460127883  1.0000
  N   N3        1.0  0.527084387796485  0.3096105036649348  0.7667537834765384  1.0000
  N   N4        1.0  0.47291419734334983  0.6903872520284438  0.2332409082553751  1.0000
  N   N5        1.0  0.8911765646154989  0.4071780304041255  0.724484043650996  1.0000
  N   N6        1.0  0.10883183469602639  0.5928231627323868  0.27551731516370376  1.0000
  N   N7        1.0  0.8356877598168423  0.2185414631828522  0.8637586978239822  1.0000
  N   N8        1.0  0.1643077362527663  0.7814623080360192  0.1362396841833728  1.0000
  N   N9        1.0  0.6373291111067303  0.5605653369411385  0.7980039540752841  1.0000
  N   N10       1.0  0.3626681580129585  0.43943070003066254  0.2019897912495451  1.0000
  O   O1        1.0  0.3914835540431838  0.0786486990546678  0.12267091558886987  1.0000
  O   O2        1.0  0.6085112170229579  0.9213507753602812  0.8773302521717881  1.0000
  O   O3        1.0  0.116485501944922  0.120974795804436  0.7799952564615252  1.0000
  O   O4        1.0  0.8835207113422926  0.8790195224457946  0.2200000544960757  1.0000
  O   O5        1.0  0.14778880456205462  0.6992618708564322  0.6412123612169651  1.0000
  O   O6        1.0  0.8522141856681671  0.3007315880330168  0.3587871262483587  1.0000
  O   O7        1.0  0.29465034128323  0.6807718642036775  0.8006477056676997  1.0000
  O   O8        1.0  0.7053546899706048  0.3192276102112714  0.19935446621246913  1.0000
  O   O9        1.0  0.8380285363673607  0.3287037815888425  0.8899516971106465  1.0000
  O   O10       1.0  0.1619751678523969  0.6712999896300218  0.11005020244894577  1.0000
  O   O11       1.0  0.7661450046681182  0.1519006123787392  0.7597128838735897  1.0000
  O   O12       1.0  0.2338534134431782  0.8481083150048363  0.2402835623899903  1.0000
  O   O13       1.0  0.8974201151066125  0.18346063721246958  0.9388351651681858  1.0000
  O   O14       1.0  0.10256571179199632  0.8165405559240496  0.06116443695970019  1.0000
  O   O15       1.0  0.6044347087794009  0.48760646564478805  0.6922070548728242  1.0000
  O   O16       1.0  0.3955635863590529  0.512389571327013  0.307787695616163  1.0000
  O   O17       1.0  0.7138317412540971  0.532208149753572  0.8776042479683355  1.0000
  O   O18       1.0  0.28616201480720344  0.467785309135877  0.12239071678058618  1.0000
  O   O19       1.0  0.5934413449366787  0.6554086899914893  0.8218009810254613  1.0000
  O   O20       1.0  0.406561634279619  0.3445907844234526  0.17819390280514813  1.0000
