data_image0
_chemical_formula_structural       Zn4H64C76N20O2
_chemical_formula_sum              "Zn4 H64 C76 N20 O2"
_cell_length_a       19.96962128879029
_cell_length_b       20.008529196796015
_cell_length_c       20.72871181133394
_cell_angle_alpha    106.65232334566318
_cell_angle_beta     106.66057070590351
_cell_angle_gamma    113.60986902311168

_space_group_name_H-M_alt    "P 1"
_space_group_IT_number       1

loop_
  _space_group_symop_operation_xyz
  'x, y, z'

loop_
  _atom_site_type_symbol
  _atom_site_label
  _atom_site_symmetry_multiplicity
  _atom_site_fract_x
  _atom_site_fract_y
  _atom_site_fract_z
  _atom_site_occupancy
  Zn  Zn1       1.0  0.6108332150489489  0.6166824702748599  0.4980208274259823  1.0000
  Zn  Zn2       1.0  0.3977712490740686  0.39640898855994056  0.4985119088016886  1.0000
  Zn  Zn3       1.0  0.5149280900384597  0.5969053432996602  0.601098532127061  1.0000
  Zn  Zn4       1.0  0.4960880786936528  0.41788026205171025  0.3957503741915501  1.0000
  H   H1        1.0  0.7831565191352398  0.6481247845726442  0.6146189735223047  1.0000
  H   H2        1.0  0.23882216233599254  0.38241120210363266  0.38821200923808163  1.0000
  H   H3        1.0  0.5216464265592152  0.7762653167301747  0.6544002819749437  1.0000
  H   H4        1.0  0.36534288797447806  0.23756171246650834  0.2439648039026636  1.0000
  H   H5        1.0  0.24100535867357564  0.19919474192857217  0.38191692232334873  1.0000
  H   H6        1.0  0.6322736908786837  0.7932950214661498  0.50377516329727  1.0000
  H   H7        1.0  0.35843105770384653  0.4019284460366919  0.2540891232193587  1.0000
  H   H8        1.0  0.39486914348140095  0.6467040975293938  0.5211552803491769  1.0000
  H   H9        1.0  0.0590538244875134  0.43009904784910435  0.47345721634786736  1.0000
  H   H10       1.0  0.9448859254749067  0.4288536593172264  0.4837300732108503  1.0000
  H   H11       1.0  0.022682221034727904  0.641191005392727  0.5058963824100644  1.0000
  H   H12       1.0  0.4982963221385007  0.35218531420520793  0.6093177430588881  1.0000
  H   H13       1.0  0.017397123191621202  0.581954339301717  0.5551993114626725  1.0000
  H   H14       1.0  0.13467116570390664  0.583697124349456  0.5530065061868541  1.0000
  H   H15       1.0  0.14386654979762173  0.6486580140654752  0.5093897269987621  1.0000
  H   H16       1.0  0.8965514867914096  0.4622156513068062  0.31163852151312443  1.0000
  H   H17       1.0  0.9456672421168123  0.5697186065175258  0.36109776426869195  1.0000
  H   H18       1.0  0.019252258151986702  0.4797912301555057  0.310035296446685  1.0000
  H   H19       1.0  0.8895265539316952  0.3777956969176228  0.38393404873777826  1.0000
  H   H20       1.0  0.006407920102446999  0.3867044427419656  0.3738824563764638  1.0000
  H   H21       1.0  0.07057989299362791  0.5866493093379644  0.3664160558921736  1.0000
  H   H22       1.0  0.6524746087100938  0.08564943256514812  0.687573392459349  1.0000
  H   H23       1.0  0.4783702129794208  0.6147698855716256  0.747927100578174  1.0000
  H   H24       1.0  0.6717434313769887  0.2084806927156179  0.6861612826585173  1.0000
  H   H25       1.0  0.6283102284790021  0.12331404678900543  0.48292756774854695  1.0000
  H   H26       1.0  0.7071175007039373  0.17926235918196193  0.5771794876708397  1.0000
  H   H27       1.0  0.6897592323548453  0.05679953162857025  0.5781597774551841  1.0000
  H   H28       1.0  0.6112401573600367  0.0009921275132071489  0.4838891633261612  1.0000
  H   H29       1.0  0.4555120962543384  0.09331307888160707  0.5314834562438548  1.0000
  H   H30       1.0  0.4806439223380893  0.07280964933883637  0.45613932071471913  1.0000
  H   H31       1.0  0.43788426166417344  0.97048053351898  0.5317387404783104  1.0000
  H   H32       1.0  0.5689084610704995  0.1748519198285763  0.6678233523479307  1.0000
  H   H33       1.0  0.5489755754317329  0.05108878954501955  0.6670599781754589  1.0000
  H   H34       1.0  0.627827673045978  0.3807877677564162  0.34539974779857363  1.0000
  H   H35       1.0  0.4634526197207407  0.9501608233570308  0.4565393546214409  1.0000
  H   H36       1.0  0.4086467264376594  0.6120258753902517  0.8196501211346499  1.0000
  H   H37       1.0  0.38004330262891983  0.612747433444909  0.9288714611339515  1.0000
  H   H38       1.0  0.4658868001481125  0.6739262706446141  0.2640703962831523  1.0000
  H   H39       1.0  0.30220165916745856  0.3502906348261872  0.7271299355332417  1.0000
  H   H40       1.0  0.26381175193696293  0.41555886606507636  0.026263115012952132  1.0000
  H   H41       1.0  0.2951625604395716  0.4120920493697823  0.14958819722542666  1.0000
  H   H42       1.0  0.28475671051914025  0.09628535316937097  0.16527233574454667  1.0000
  H   H43       1.0  0.3130032130165077  0.35198594797739696  0.613471638023121  1.0000
  H   H44       1.0  0.17625493485724775  0.9586616522935432  0.05829834775813938  1.0000
  H   H45       1.0  0.0331768004358182  0.8090664369335412  0.8634842202842066  1.0000
  H   H46       1.0  0.12482528377356773  0.08016082988856249  0.27047889971338185  1.0000
  H   H47       1.0  0.017751899811166497  0.9413190346517409  0.16365630173528695  1.0000
  H   H48       1.0  0.7604003172195634  0.6335167832313998  0.8387072189525426  1.0000
  H   H49       1.0  0.7854708551699475  0.6415979654202884  0.494103735818527  1.0000
  H   H50       1.0  0.6250768833092764  0.37415760787871466  0.471218389939068  1.0000
  H   H51       1.0  0.648412314918126  0.6081836051513746  0.7443306500752627  1.0000
  H   H52       1.0  0.5189498920935308  0.6666466722323818  0.3777126161862299  1.0000
  H   H53       1.0  0.4753769375821549  0.7521571328387749  0.19819623514103307  1.0000
  H   H54       1.0  0.48632527284127053  0.7041216647637254  0.11827028272308124  1.0000
  H   H55       1.0  0.397003413786841  0.7079380613896403  0.1040380906749193  1.0000
  H   H56       1.0  0.24762691901516828  0.2766820192229318  0.7864347835833314  1.0000
  H   H57       1.0  0.29365817187067483  0.331466482608917  0.8873573282368099  1.0000
  H   H58       1.0  0.19751550820519986  0.3138797347892037  0.831939700158138  1.0000
  H   H59       1.0  0.029271590664215807  0.7399472664930183  0.7508359859362344  1.0000
  H   H60       1.0  0.0210267704747622  0.8280130063496997  0.7600211356176986  1.0000
  H   H61       1.0  0.982073225993794  0.7477881009238698  0.6677636447516874  1.0000
  H   H62       1.0  0.9740805404521994  0.7659935364476949  0.07573117293652121  1.0000
  H   H63       1.0  0.9709330397393715  0.6853684428489116  0.006346217392497424  1.0000
  H   H64       1.0  0.9005310793217092  0.6600525685926896  0.04592227671528085  1.0000
  C   C1        1.0  0.7383597445676389  0.6345089965830013  0.635900029144338  1.0000
  C   C2        1.0  0.5742148455748861  0.3413121643473714  0.5492207261723294  1.0000
  C   C3        1.0  0.38357516277191916  0.48215057409012724  0.7062892184005847  1.0000
  C   C4        1.0  0.7376448265463508  0.5091228558607809  0.4217521141268036  1.0000
  C   C5        1.0  0.4863301248850007  0.6007221844723458  0.35744834993910496  1.0000
  C   C6        1.0  0.28874629884068537  0.4457675201434553  0.42486261861636615  1.0000
  C   C7        1.0  0.5498684063547898  0.7687818845241592  0.6173475972386626  1.0000
  C   C8        1.0  0.3449360931096095  0.24088817458308395  0.2874243872989339  1.0000
  C   C9        1.0  0.2811109449253024  0.22173141002865993  0.35736898785573595  1.0000
  C   C10       1.0  0.6063041907113416  0.777068825492101  0.5403113749693347  1.0000
  C   C11       1.0  0.4041027683780173  0.46573224756330217  0.29439452459354243  1.0000
  C   C12       1.0  0.5237677594207283  0.3651922350869723  0.571535027439161  1.0000
  C   C13       1.0  0.36851178841490656  0.580943385477333  0.4930578871207131  1.0000
  C   C14       1.0  0.42057120336784243  0.5374639874145684  0.28627046768922776  1.0000
  C   C15       1.0  0.2857417549305339  0.5176155831907321  0.4452972893273567  1.0000
  C   C16       1.0  0.5723006391577172  0.8137591937309664  0.5780122100661345  1.0000
  C   C17       1.0  0.2753638034388501  0.18169433924755643  0.2862768497476083  1.0000
  C   C18       1.0  0.9460310868567278  0.4325655109108266  0.4321186623917015  1.0000
  C   C19       1.0  0.0223900191226889  0.5857966127941835  0.5047572818613872  1.0000
  C   C20       1.0  0.1013967683196384  0.5896018156915445  0.5046478347099139  1.0000
  C   C21       1.0  0.21491696960595164  0.5224433581983803  0.43256802572189207  1.0000
  C   C22       1.0  0.9451992503088177  0.5099316985053546  0.4332413549686151  1.0000
  C   C23       1.0  0.44136311841973713  0.5509226402213157  0.7054324121926996  1.0000
  C   C24       1.0  0.023288012319149204  0.43659452472239463  0.4269282219938475  1.0000
  C   C25       1.0  0.07956620094277872  0.5195677439872809  0.4305840581956559  1.0000
  C   C26       1.0  0.03135960988220181  0.5268404119136605  0.36248242339170395  1.0000
  C   C27       1.0  0.9504760155725266  0.517164125819505  0.3620672424591119  1.0000
  C   C28       1.0  0.15344121060514485  0.5230841135898173  0.42974916483262154  1.0000
  C   C29       1.0  0.8706707010242242  0.5061151006027059  0.43251558431649073  1.0000
  C   C30       1.0  0.8081088359394855  0.5060072572517168  0.42645001408728683  1.0000
  C   C31       1.0  0.6078649088069031  0.15766941162986117  0.6480458070316787  1.0000
  C   C32       1.0  0.6430944369534829  0.1283412710899086  0.5400853308559661  1.0000
  C   C33       1.0  0.6317123725695525  0.04737563539352862  0.540691682762855  1.0000
  C   C34       1.0  0.6544292537414266  0.4453434542560402  0.381649456987553  1.0000
  C   C35       1.0  0.5646102558935056  0.8801230410648769  0.5754204651136874  1.0000
  C   C36       1.0  0.5864461812627438  0.14965886280182855  0.5671911359329229  1.0000
  C   C37       1.0  0.595407102007087  0.07637955730239532  0.6483566730602988  1.0000
  C   C38       1.0  0.566920537519991  0.011918656070356876  0.5679454372446318  1.0000
  C   C39       1.0  0.484647855024214  0.9965158298487109  0.5136063357410733  1.0000
  C   C40       1.0  0.4961491537705883  0.07773534256561727  0.5133139522001642  1.0000
  C   C41       1.0  0.5606424654565884  0.9376230439847357  0.5700055990566069  1.0000
  C   C42       1.0  0.5943557851273767  0.22487292990180646  0.5663765978712262  1.0000
  C   C43       1.0  0.5918139653322569  0.28332234758256886  0.56206169281797  1.0000
  C   C44       1.0  0.3872544608324305  0.5423311430029472  0.21634660581002402  1.0000
  C   C45       1.0  0.35789811145454564  0.4169052146553723  0.6374047067289156  1.0000
  C   C46       1.0  0.3260206400980579  0.4702326062237958  0.14819326074128716  1.0000
  C   C47       1.0  0.3075618722332578  0.4716382813684773  0.07925082335286499  1.0000
  C   C48       1.0  0.3482959520126556  0.5454174909233984  0.07553134163592994  1.0000
  C   C49       1.0  0.40185639064458917  0.6202284045638606  0.14330958897639326  1.0000
  C   C50       1.0  0.4206175195526569  0.6167772707010072  0.21211875888759826  1.0000
  C   C51       1.0  0.36252718260098504  0.5556868961405427  0.8834797971274  1.0000
  C   C52       1.0  0.3791363067151536  0.554880476723582  0.8230596552916934  1.0000
  C   C53       1.0  0.32447666192658187  0.4825729919897127  0.8889866324627037  1.0000
  C   C54       1.0  0.35928513249551497  0.48110346876772775  0.7660961767731395  1.0000
  C   C55       1.0  0.3181359041354739  0.4080930531417194  0.7705295538720023  1.0000
  C   C56       1.0  0.734721112107593  0.5785915329611837  0.4575351941086367  1.0000
  C   C57       1.0  0.2996803327110059  0.40695886565215017  0.8303665903701543  1.0000
  C   C58       1.0  0.8244133960860225  0.6761417261053423  0.7770968010893354  1.0000
  C   C59       1.0  0.8197022867498661  0.6722284173899595  0.8423519259944428  1.0000
  C   C60       1.0  0.8874865425787065  0.7160396648652352  0.9136831925252693  1.0000
  C   C61       1.0  0.9651281737021196  0.7719370566455125  0.9219317668900616  1.0000
  C   C62       1.0  0.9723166609562031  0.7674900913418624  0.855080258429453  1.0000
  C   C63       1.0  0.9046680616031183  0.7207504457875018  0.7841355481644284  1.0000
  C   C64       1.0  0.16613921969338458  0.9858943018857357  0.10536914944244542  1.0000
  C   C65       1.0  0.22594388616206376  0.0629259537018356  0.1649954965007296  1.0000
  C   C66       1.0  0.09009315324686899  0.9416811493981708  0.10439108864329671  1.0000
  C   C67       1.0  0.5882879410385087  0.37600614757724304  0.5006035804076915  1.0000
  C   C68       1.0  0.2127210631960779  0.09924195135234017  0.2255865462213507  1.0000
  C   C69       1.0  0.1371697442317981  0.05369326080255379  0.2247619769037499  1.0000
  C   C70       1.0  0.0770516460242092  0.9761614418649596  0.16537514319850993  1.0000
  C   C71       1.0  0.6698397400914544  0.61371806356032  0.7024579680878134  1.0000
  C   C72       1.0  0.7493467945890658  0.6404947256784509  0.7081596500105505  1.0000
  C   C73       1.0  0.44238253737636063  0.7006370120916613  0.14118243027590432  1.0000
  C   C74       1.0  0.25742956202270056  0.32775678747085374  0.8339399333122942  1.0000
  C   C75       1.0  0.990544280881075  0.7612949198032977  0.7255964375304133  1.0000
  C   C76       1.0  0.9336717039274093  0.7038495248966823  0.0281153017526348  1.0000
  N   N1        1.0  0.6595876051209899  0.607814161971184  0.5924159401962754  1.0000
  N   N2        1.0  0.3668855592803554  0.46545627815762447  0.45990165329912003  1.0000
  N   N3        1.0  0.5686902078501603  0.7102827134559745  0.6036472637770983  1.0000
  N   N4        1.0  0.38813891249782273  0.30977980655514864  0.3534773964957624  1.0000
  N   N5        1.0  0.348444347740987  0.29780559298850307  0.3971790295878748  1.0000
  N   N6        1.0  0.6039823871718824  0.7156652238503793  0.5557791716381786  1.0000
  N   N7        1.0  0.45683505383118483  0.4854454931078748  0.3637961132328513  1.0000
  N   N8        1.0  0.41598200488892456  0.5484163930666454  0.5019003578827396  1.0000
  N   N9        1.0  0.34564322134242087  0.5490889872932528  0.008314957345042714  1.0000
  N   N10       1.0  0.3157597314180905  0.4796704313346892  0.9530667992464573  1.0000
  N   N11       1.0  0.03392470702240051  0.8400296724854355  0.9869298005007182  1.0000
  N   N12       1.0  0.5074475317895236  0.40823731119557743  0.5367974313302852  1.0000
  N   N13       1.0  0.022498987170706607  0.8660579019394562  0.044280536644258434  1.0000
  N   N14       1.0  0.44899599231480647  0.5285059558754454  0.6416347859699201  1.0000
  N   N15       1.0  0.6065564358344987  0.47459912449753006  0.3932759232309451  1.0000
  N   N16       1.0  0.39684902157699753  0.44492100313466654  0.5990231302562208  1.0000
  N   N17       1.0  0.6567022191288743  0.5577063886465081  0.440483140710441  1.0000
  N   N18       1.0  0.5470081302608137  0.414909490712219  0.4931588625144983  1.0000
  N   N19       1.0  0.6176072259984907  0.5952887817092216  0.6334891326497426  1.0000
  N   N20       1.0  0.5073771136684685  0.5684697229015255  0.40268610527095217  1.0000
  O   O1        1.0  0.9102018545225549  0.7181558587639781  0.7189810962676617  1.0000
  O   O2        1.0  0.8717734199164938  0.7013156261945  0.9696088097550088  1.0000
