data_image0
_chemical_formula_structural       Zn4H44C56N20O24
_chemical_formula_sum              "Zn4 H44 C56 N20 O24"
_cell_length_a       8.664003981009857
_cell_length_b       9.575863618939664
_cell_length_c       19.076868664970217
_cell_angle_alpha    100.56350016344308
_cell_angle_beta     90.00007873382135
_cell_angle_gamma    90.00013717417217

_space_group_name_H-M_alt    "P 1"
_space_group_IT_number       1

loop_
  _space_group_symop_operation_xyz
  'x, y, z'

loop_
  _atom_site_type_symbol
  _atom_site_label
  _atom_site_symmetry_multiplicity
  _atom_site_fract_x
  _atom_site_fract_y
  _atom_site_fract_z
  _atom_site_occupancy
  Zn  Zn1       1.0  0.3796156492198647  0.00036639467879240014  0.8739076564591103  1.0000
  Zn  Zn2       1.0  0.8796157047164996  0.4996356590611625  0.6260909050804104  1.0000
  Zn  Zn3       1.0  0.6203855795425567  0.9996335579354324  0.12609257628231063  1.0000
  Zn  Zn4       1.0  0.12038436984671108  0.5003653558224671  0.37390942182895515  1.0000
  H   H1        1.0  0.3656309699785679  0.5551648257168155  0.8979349435560808  1.0000
  H   H2        1.0  0.8656261905538613  0.9448352837658616  0.6020640263343608  1.0000
  H   H3        1.0  0.634367950379847  0.44483615284874395  0.10206275909690993  1.0000
  H   H4        1.0  0.1343750382077573  0.055164661585031596  0.397935681555886  1.0000
  H   H5        1.0  0.071464603234034  0.7598124737541243  0.06741843951982673  1.0000
  H   H6        1.0  0.5714602849222458  0.7401862753972639  0.4325803679142482  1.0000
  H   H7        1.0  0.9285354713268177  0.24018747159534123  0.9325812683699297  1.0000
  H   H8        1.0  0.4285397896394159  0.25981367721553283  0.5674198648266824  1.0000
  H   H9        1.0  0.1868782969553706  0.317188187092583  0.05083003786887731  1.0000
  H   H10       1.0  0.6868761853963505  0.1828127790220222  0.449170021952277  1.0000
  H   H11       1.0  0.8131217776085863  0.6828138827985484  0.9491698583577493  1.0000
  H   H12       1.0  0.31312273496374127  0.817187166326022  0.5508296859369823  1.0000
  H   H13       1.0  0.23409989315290855  0.19949904364046495  0.7693215177038868  1.0000
  H   H14       1.0  0.734102046952593  0.30050054010429517  0.7306777815553361  1.0000
  H   H15       1.0  0.765900181406458  0.800498791693997  0.23067905155134846  1.0000
  H   H16       1.0  0.2658980276082588  0.6994994052451703  0.26932192633442054  1.0000
  H   H17       1.0  0.0335754726512647  0.822487131488046  0.653158150265945  1.0000
  H   H18       1.0  0.5335753448286624  0.6775142520363815  0.8468386264066581  1.0000
  H   H19       1.0  0.966425756111164  0.17751282112618585  0.3468420824754759  1.0000
  H   H20       1.0  0.4664258839337592  0.3224857005778432  0.15316160633476275  1.0000
  H   H21       1.0  0.21178299728227756  0.7568562222579018  0.7638876745795998  1.0000
  H   H22       1.0  0.7117815530096436  0.7431434630535776  0.7361080154785145  1.0000
  H   H23       1.0  0.7882182314785949  0.2431426680854969  0.2361124639933863  1.0000
  H   H24       1.0  0.2882185215527571  0.2568575445667207  0.26389178657967  1.0000
  H   H25       1.0  0.6441099281908863  0.0773198368735422  0.7676538192023515  1.0000
  H   H26       1.0  0.1441094076333584  0.4226795242470871  0.7323454035900597  1.0000
  H   H27       1.0  0.3558901463692195  0.9226790534684285  0.23234631937013725  1.0000
  H   H28       1.0  0.8558906669274933  0.5773204211023851  0.2676543042996898  1.0000
  H   H29       1.0  0.9539008841029213  0.04502053278642391  0.8015700728538706  1.0000
  H   H30       1.0  0.4539003461631381  0.4549774846926055  0.6984302745375217  1.0000
  H   H31       1.0  0.046099190458740204  0.9549794198263728  0.19843015988706014  1.0000
  H   H32       1.0  0.5460997283977775  0.545021412912689  0.3015703888861552  1.0000
  H   H33       1.0  0.6737130897195412  0.900465440824036  0.9548851755156066  1.0000
  H   H34       1.0  0.17371460729082602  0.5995352706896852  0.5451147751731256  1.0000
  H   H35       1.0  0.3262881390436831  0.09953451905351332  0.04511558207699551  1.0000
  H   H36       1.0  0.8262854672708285  0.40046468192311124  0.4548854575678052  1.0000
  H   H37       1.0  0.0512349544712194  0.09470801883372812  0.6663529312371425  1.0000
  H   H38       1.0  0.5512376984683556  0.4052942920822247  0.833645970293695  1.0000
  H   H39       1.0  0.9487662742896532  0.9052908715096637  0.33364720733584363  1.0000
  H   H40       1.0  0.4487635302948121  0.594706715539502  0.16635383176498666  1.0000
  H   H41       1.0  0.9499837229341566  0.9353954262447959  0.9142093865150615  1.0000
  H   H42       1.0  0.44998527143587796  0.5646038514401256  0.5857911354388181  1.0000
  H   H43       1.0  0.050017505827519  0.06460347136192009  0.0857912769090987  1.0000
  H   H44       1.0  0.5500148031249736  0.43539609390933975  0.41420857245093157  1.0000
  C   C1        1.0  0.2875850012816485  0.42172714918014986  0.9700241535115882  1.0000
  C   C2        1.0  0.7875813402793811  0.07827469867604012  0.5299759043802226  1.0000
  C   C3        1.0  0.7124127648776124  0.5782738439106367  0.02997459884326052  1.0000
  C   C4        1.0  0.2124187342814707  0.921725246673425  0.4700238035095269  1.0000
  C   C5        1.0  0.30081689387804994  0.5509357688310672  0.9462373900787568  1.0000
  C   C6        1.0  0.8008154416360043  0.9490641875793743  0.5537620495908868  1.0000
  C   C7        1.0  0.6991820264812317  0.4490641692536457  0.05376179295932102  1.0000
  C   C8        1.0  0.19918578712560728  0.05093575777152641  0.44623765829935297  1.0000
  C   C9        1.0  0.2234429501992921  0.6726398309211561  0.9802407363889433  1.0000
  C   C10       1.0  0.7234433807034151  0.8273609890883123  0.5197582068530906  1.0000
  C   C11       1.0  0.7765536617592802  0.32736011442403173  0.01975897149933561  1.0000
  C   C12       1.0  0.2765555396590287  0.1726400257938892  0.4802421200557845  1.0000
  C   C13       1.0  0.13611584286140746  0.6675656666853627  0.04127583479876051  1.0000
  C   C14       1.0  0.6361130025036559  0.8324343046755444  0.45872312173938923  1.0000
  C   C15       1.0  0.8638819232994734  0.3324353409320864  0.9587239672584432  1.0000
  C   C16       1.0  0.36388476365802797  0.16756671020522873  0.5412772051689956  1.0000
  C   C17       1.0  0.13073021203754817  0.540146392758956  0.06678860286677953  1.0000
  C   C18       1.0  0.6307276318145938  0.9598556752940939  0.43320948772975504  1.0000
  C   C19       1.0  0.8692675541217199  0.45985460033183057  0.9332101494880691  1.0000
  C   C20       1.0  0.3692724427478069  0.040145332326211806  0.5667903143284292  1.0000
  C   C21       1.0  0.2020342092758156  0.4162903604957294  0.03161212180663852  1.0000
  C   C22       1.0  0.7020353560987329  0.08370958810871089  0.4683883815768226  1.0000
  C   C23       1.0  0.7979612484819896  0.5837095848480303  0.96838758608115  1.0000
  C   C24       1.0  0.29796818106602524  0.916290371771694  0.5316123760167599  1.0000
  C   C25       1.0  0.3531791413199059  0.28929419818851443  0.9251842051947821  1.0000
  C   C26       1.0  0.8531748130949025  0.21070888147045963  0.5748165274525762  1.0000
  C   C27       1.0  0.6468220874471697  0.7107089412382095  0.07481631005195062  1.0000
  C   C28       1.0  0.14682526146749808  0.7892921261498458  0.42518327460561534  1.0000
  C   C29       1.0  0.2255529552332902  0.8047926204218001  0.9479439284243157  1.0000
  C   C30       1.0  0.725554287856582  0.6952081975452771  0.5520544917598258  1.0000
  C   C31       1.0  0.7744448109283937  0.19520839445898025  0.05205639848406922  1.0000
  C   C32       1.0  0.2744457867042697  0.3047917478041953  0.4479452161299308  1.0000
  C   C33       1.0  0.2053947479467055  0.08819483936826342  0.7529790544256729  1.0000
  C   C34       1.0  0.7053960920378302  0.4118057211077186  0.74701926490814  1.0000
  C   C35       1.0  0.7946064808141671  0.9118040509751353  0.24702108414730622  1.0000
  C   C36       1.0  0.29460398252302156  0.5881942242417536  0.2529804429816096  1.0000
  C   C37       1.0  0.1028749903843362  0.8897035713936531  0.6931640549500244  1.0000
  C   C38       1.0  0.60287571723903  0.6102958517627926  0.8068320674196132  1.0000
  C   C39       1.0  0.8971262383773464  0.11029532621306973  0.30683660847414274  1.0000
  C   C40       1.0  0.39712551152258874  0.3897040935881009  0.19316764047062665  1.0000
  C   C41       1.0  0.19058505690540534  0.8584280500886337  0.7482561852454526  1.0000
  C   C42       1.0  0.6905845451848761  0.6415705423028231  0.7517409671859883  1.0000
  C   C43       1.0  0.8094150176539543  0.14156978524582803  0.2517443840097827  1.0000
  C   C44       1.0  0.3094155293759755  0.3584294030466424  0.24825874070376136  1.0000
  C   C45       1.0  0.6966133789671858  0.03649538454747871  0.8113864651583642  1.0000
  C   C46       1.0  0.19661283381651629  0.46350411372161204  0.6886133270980964  1.0000
  C   C47       1.0  0.3033878497944968  0.9635035130592443  0.18861419826579615  1.0000
  C   C48       1.0  0.8033872407458917  0.5364968938986863  0.31138647496009514  1.0000
  C   C49       1.0  0.8493499200545217  0.018672297512260596  0.8269439130092239  1.0000
  C   C50       1.0  0.34934937489570933  0.4813254540610145  0.6730558206926389  1.0000
  C   C51       1.0  0.15065130870560486  0.9813255378236291  0.17305665624650152  1.0000
  C   C52       1.0  0.6506506996651423  0.5186744912884506  0.3269438871971105  1.0000
  C   C53       1.0  0.7052873916224627  0.9435009317867228  0.9080004487328994  1.0000
  C   C54       1.0  0.20528893749699506  0.5564987955659859  0.5919994346165113  1.0000
  C   C55       1.0  0.29471383714076893  0.05649902809082623  0.09200030885970283  1.0000
  C   C56       1.0  0.7947111370631105  0.44350009477597757  0.4080007039559846  1.0000
  N   N1        1.0  0.0375031954872469  0.5332299153040553  0.13042752833821686  1.0000
  N   N2        1.0  0.5375027488090822  0.9667698121078487  0.3695713444084774  1.0000
  N   N3        1.0  0.962495724872845  0.4667700300439891  0.8695721795510424  1.0000
  N   N4        1.0  0.4624973257525795  0.0332301405049478  0.6304288883324533  1.0000
  N   N5        1.0  0.25372352274464294  0.9832979925680834  0.7852336026532216  1.0000
  N   N6        1.0  0.7537225679570909  0.5167028878223192  0.7147643166156713  1.0000
  N   N7        1.0  0.7462777060170324  0.016700905038632603  0.2147670607709387  1.0000
  N   N8        1.0  0.24627750660376077  0.4832970575271459  0.2852353912740782  1.0000
  N   N9        1.0  0.1141561761238847  0.03476721085482381  0.6969862952954531  1.0000
  N   N10       1.0  0.6141566775303459  0.4652331166471058  0.8030114216601945  1.0000
  N   N11       1.0  0.8858450526369878  0.9652316794885678  0.30301384327753317  1.0000
  N   N12       1.0  0.38584339703050563  0.5347668287023667  0.19698828622955494  1.0000
  N   N13       1.0  0.6078913054378603  0.9888046126158587  0.8624956945419414  1.0000
  N   N14       1.0  0.10789171521602732  0.5111948592664036  0.6375030563458779  1.0000
  N   N15       1.0  0.3921110775229693  0.011194270465637101  0.13750391918035382  1.0000
  N   N16       1.0  0.8921095135448454  0.4888040310769883  0.3624970822271082  1.0000
  N   N17       1.0  0.8520047670081397  0.9602279174508869  0.8876542725094938  1.0000
  N   N18       1.0  0.3520051761256013  0.5397700483141535  0.6123455471702641  1.0000
  N   N19       1.0  0.1479964617535359  0.039770980155836404  0.1123463909146665  1.0000
  N   N20       1.0  0.6479948984352575  0.46022989703531897  0.3876541607194924  1.0000
  O   O1        1.0  0.318037064619439  0.17153207772567214  0.9448893303541797  1.0000
  O   O2        1.0  0.8180329885662588  0.32846876866606334  0.5551096095421857  1.0000
  O   O3        1.0  0.6819641641429256  0.8284689226327303  0.05510994685332094  1.0000
  O   O4        1.0  0.1819659317953821  0.671532238952807  0.4448901925155156  1.0000
  O   O5        1.0  0.4304724305143565  0.2970836472668879  0.8701184897585037  1.0000
  O   O6        1.0  0.9304682488088858  0.20292068587437484  0.6298824027344807  1.0000
  O   O7        1.0  0.5695299524542817  0.7029194994245885  0.12988255033989307  1.0000
  O   O8        1.0  0.06953297995037391  0.7970781899423612  0.37011668613614296  1.0000
  O   O9        1.0  0.3501373573330255  0.8230592302857006  0.9134280888537778  1.0000
  O   O10       1.0  0.8501410547365964  0.6769418813595891  0.5865693874900303  1.0000
  O   O11       1.0  0.6498615630310309  0.17694179912316343  0.08657328775745303  1.0000
  O   O12       1.0  0.14986017402737417  0.3230591335254688  0.4134309394198255  1.0000
  O   O13       1.0  0.11109675585635159  0.8854340390486328  0.9561132435528353  1.0000
  O   O14       1.0  0.6110966958435712  0.6145697406894541  0.5438895606904951  1.0000
  O   O15       1.0  0.8889021645076483  0.1145680381044016  0.043887177524474914  1.0000
  O   O16       1.0  0.3889033787188935  0.38543021918667364  0.45611119690161667  1.0000
  O   O17       1.0  0.9768531449877642  0.6452847516154423  0.16206032497548514  1.0000
  O   O18       1.0  0.47685276490175  0.8547150004074455  0.3379388269242939  1.0000
  O   O19       1.0  0.0231457753738766  0.35471625600343504  0.8379394770822091  1.0000
  O   O20       1.0  0.5231473096614607  0.1452860144761843  0.6620614999850716  1.0000
  O   O21       1.0  0.022634654835087496  0.41649521754065694  0.14901019920651495  1.0000
  O   O22       1.0  0.5226342905445661  0.08350427272936402  0.3509891020357614  1.0000
  O   O23       1.0  0.9773654197242222  0.5835036655379754  0.8509894145147997  1.0000
  O   O24       1.0  0.4773657840162854  0.9164956726201082  0.6490106058539881  1.0000
