data_image0
_chemical_formula_structural       Zn4H48C40N16O16
_chemical_formula_sum              "Zn4 H48 C40 N16 O16"
_cell_length_a       7.796301515
_cell_length_b       12.846874737
_cell_length_c       13.145
_cell_angle_alpha    90.0
_cell_angle_beta     90.0
_cell_angle_gamma    90.0

_space_group_name_H-M_alt    "P 1"
_space_group_IT_number       1

loop_
  _space_group_symop_operation_xyz
  'x, y, z'

loop_
  _atom_site_type_symbol
  _atom_site_label
  _atom_site_symmetry_multiplicity
  _atom_site_fract_x
  _atom_site_fract_y
  _atom_site_fract_z
  _atom_site_occupancy
  Zn  Zn1       1.0  0.9738887067658555  0.08313539455039631  0.21179612019779634  1.0000
  Zn  Zn2       1.0  0.5261110017497828  0.9168642367217927  0.7117976416888538  1.0000
  Zn  Zn3       1.0  0.4738888039273093  0.4168632534865537  0.7882031190566751  1.0000
  Zn  Zn4       1.0  0.0261098162517612  0.5831355993862033  0.2882038798022037  1.0000
  H   H1        1.0  0.6002846338094727  0.9754045444149924  0.20108330163560592  1.0000
  H   H2        1.0  0.8997150747061653  0.024595865256628702  0.701083301635606  1.0000
  H   H3        1.0  0.10028473097092673  0.5245960700924357  0.7989159376188655  1.0000
  H   H4        1.0  0.3997151718676194  0.4754043395791854  0.29891593761886537  1.0000
  H   H5        1.0  0.6135114183048602  0.22639981003498383  0.4411167744389531  1.0000
  H   H6        1.0  0.8864934208486661  0.7736013780360693  0.9411160136934174  1.0000
  H   H7        1.0  0.1135089501473701  0.2736011732002623  0.5588839863065829  1.0000
  H   H8        1.0  0.3864871047127565  0.7263976796724947  0.058883225561047  1.0000
  H   H9        1.0  0.8019469216231343  0.2976342556674538  0.46780524914416344  1.0000
  H   H10       1.0  0.6980566348709232  0.7023653756047352  0.9678044883986275  1.0000
  H   H11       1.0  0.3019444534656373  0.20236517076892824  0.5321962723469014  1.0000
  H   H12       1.0  0.1980541667134332  0.7976329037043968  0.0321955116013726  1.0000
  H   H13       1.0  0.04866410044173362  0.44078268963664874  0.05788132369722381  1.0000
  H   H14       1.0  0.45133965037523194  0.5592184984344044  0.5578828451882814  1.0000
  H   H15       1.0  0.5486627206208041  0.059217515199158306  0.9421186763027762  1.0000
  H   H16       1.0  0.951339553213778  0.9407836728718949  0.4421171548117187  1.0000
  H   H17       1.0  0.8555697835911644  0.18573933729793882  0.6229106124001548  1.0000
  H   H18       1.0  0.644433772902893  0.8142587371753863  0.1229098516546188  1.0000
  H   H19       1.0  0.3555673154336674  0.3142585323395792  0.3770901483453813  1.0000
  H   H20       1.0  0.14443258740487866  0.6857410989326098  0.8770886268543168  1.0000
  H   H21       1.0  0.6582172316099817  0.2521648312386731  0.629866108786608  1.0000
  H   H22       1.0  0.8417850422246007  0.747834800033516  0.12986534804107921  1.0000
  H   H23       1.0  0.1582173287714355  0.2478338167982699  0.3701354127044497  1.0000
  H   H24       1.0  0.3417825740671106  0.7521658144739192  0.8701354127044496  1.0000
  H   H25       1.0  0.5617702177851174  0.0223408421017268  0.3865104602510456  1.0000
  H   H26       1.0  0.9382282080710453  0.9776603459693263  0.8865104602510456  1.0000
  H   H27       1.0  0.0617703149465711  0.4776601411335122  0.6134887790034258  1.0000
  H   H28       1.0  0.43822702257302387  0.5223402685381089  0.11348877900342562  1.0000
  H   H29       1.0  0.3063580847155052  0.9840541189048864  0.10424343856979593  1.0000
  H   H30       1.0  0.1936418181230408  0.0159447339678707  0.6042441993153318  1.0000
  H   H31       1.0  0.8063579875540514  0.5159464956025417  0.8957558006846684  1.0000
  H   H32       1.0  0.6936404383021113  0.4840539140690794  0.3957558006846683  1.0000
  H   H33       1.0  0.21626921390302564  0.0690144504520234  0.4097413465195885  1.0000
  H   H34       1.0  0.28372940627604504  0.9309867376190297  0.9097421072651175  1.0000
  H   H35       1.0  0.7162691167415716  0.43098653278322274  0.5902578927348827  1.0000
  H   H36       1.0  0.7837280264551154  0.5690138768883983  0.0902578927348827  1.0000
  H   H37       1.0  0.9484971798194977  0.3295315075975154  0.20924990490680534  1.0000
  H   H38       1.0  0.5515050940150845  0.6704696804735448  0.7092499049068124  1.0000
  H   H39       1.0  0.4484985596404273  0.1704694756377307  0.7907508558387235  1.0000
  H   H40       1.0  0.0515039085170628  0.8295293772350263  0.2907508558387235  1.0000
  H   H41       1.0  0.12476685235024833  0.3254402401822034  0.9045804488398659  1.0000
  H   H42       1.0  0.3752368984667243  0.6745593910899857  0.404580448839866  1.0000
  H   H43       1.0  0.6247629072103678  0.17455840785473953  0.0954218333967276  1.0000
  H   H44       1.0  0.8752380839647389  0.8254412234174496  0.5954203119056701  1.0000
  H   H45       1.0  0.0769993308808026  0.1219121406616708  0.9723902624572105  1.0000
  H   H46       1.0  0.42300313727668754  0.8780882690099503  0.4723910232027394  1.0000
  H   H47       1.0  0.5769966684004046  0.37808806417414337  0.0276112590338542  1.0000
  H   H48       1.0  0.9230017574557581  0.6219123454974778  0.5276112590338542  1.0000
  C   C1        1.0  0.7410616417135858  0.22076030614915962  0.4763727653100035  1.0000
  C   C2        1.0  0.7589431974399476  0.7792393251230294  0.9763727653100036  1.0000
  C   C3        1.0  0.24105917355608855  0.2792398986866544  0.5236279954355255  1.0000
  C   C4        1.0  0.2589381639635064  0.7207589541861026  0.023627234689996602  1.0000
  C   C5        1.0  0.6300436162646295  0.09094351925414661  0.6069806009889689  1.0000
  C   C6        1.0  0.8699573749104772  0.9090561120180425  0.1069790794979113  1.0000
  C   C7        1.0  0.13004114810713224  0.4090566855816604  0.3930201597565599  1.0000
  C   C8        1.0  0.3699574720719384  0.5909437240899607  0.8930186382655023  1.0000
  C   C9        1.0  0.7279323393382102  0.19104179422964762  0.58814454165082  1.0000
  C   C10       1.0  0.772069934496372  0.8089578370425414  0.08814454165082  1.0000
  C   C11       1.0  0.2279311538401956  0.3089584106061665  0.41185621909471604  1.0000
  C   C12       1.0  0.2720674663388749  0.6910412206660226  0.9118546976036515  1.0000
  C   C13       1.0  0.8457959183996524  0.1444327930322231  0.4136774438950185  1.0000
  C   C14       1.0  0.6542063554349369  0.8555652814411019  0.9136759224039537  1.0000
  C   C15       1.0  0.3457947329016307  0.3555658550047269  0.5863240775960463  1.0000
  C   C16       1.0  0.15420388727743986  0.6444314410691661  0.0863217953594528  1.0000
  C   C17       1.0  0.4580415461266299  0.021659742598608  0.33195815899581765  1.0000
  C   C18       1.0  0.0419557913929651  0.978340667073013  0.8319589197413466  1.0000
  C   C19       1.0  0.9580427316246514  0.4783404622371989  0.6680410802586536  1.0000
  C   C20       1.0  0.5419556942315114  0.5216599474344221  0.1680403195131248  1.0000
  C   C21       1.0  0.3279978327005467  0.0016346388074879  0.1837748193229345  1.0000
  C   C22       1.0  0.17200207013799945  0.9983649924647011  0.6837755800684704  1.0000
  C   C23       1.0  0.8279977355390926  0.4983663444277582  0.8162244199315297  1.0000
  C   C24       1.0  0.6720006903170699  0.5016348436432949  0.3162244199315296  1.0000
  C   C25       1.0  0.28737344184154523  0.0449369992171995  0.3430429821224834  1.0000
  C   C26       1.0  0.2126238956780497  0.9550641888538536  0.8430445036135411  1.0000
  C   C27       1.0  0.787374627339567  0.4550639840180466  0.656955496386459  1.0000
  C   C28       1.0  0.7126237985165957  0.5449356472541425  0.156955496386459  1.0000
  C   C29       1.0  0.9903298359029691  0.2998565860462037  0.1361955116013718  1.0000
  C   C30       1.0  0.5096737205910884  0.7001438236254174  0.6361955116013719  1.0000
  C   C31       1.0  0.4903299330644231  0.2001436187896104  0.8638052491441642  1.0000
  C   C32       1.0  0.0096738177525424  0.7998567908820107  0.3638052491441641  1.0000
  C   C33       1.0  0.0808857890868779  0.2954056980932478  0.9769897299353405  1.0000
  C   C34       1.0  0.4191153964111437  0.7045947115783733  0.4769904906808692  1.0000
  C   C35       1.0  0.5808844092659484  0.2045960635414232  0.0230102700646668  1.0000
  C   C36       1.0  0.9191127339307388  0.7954043461301978  0.5230087485736022  1.0000
  C   C37       1.0  0.0575311253851609  0.19531365031321  0.0111890452643593  1.0000
  C   C38       1.0  0.4424687774533852  0.804686759358411  0.5111913275009528  1.0000
  C   C39       1.0  0.5575297455642316  0.3046865545226041  0.988810954735641  1.0000
  C   C40       1.0  0.9424648323135048  0.695313076749585  0.4888086724990473  1.0000
  N   N1        1.0  0.20722133397377016  0.0322047197057529  0.24984861163940764  1.0000
  N   N2        1.0  0.2927785688647759  0.9677956899658682  0.7498501331304652  1.0000
  N   N3        1.0  0.7072199541528408  0.4677962635294932  0.7501506276150638  1.0000
  N   N4        1.0  0.7927771890438464  0.5322049245415599  0.2501498668695348  1.0000
  N   N5        1.0  0.48042651926603963  0.9944512001199257  0.2315983263598298  1.0000
  N   N6        1.0  0.019572100913031  0.0055492095516954006  0.7315990871053658  1.0000
  N   N7        1.0  0.9804264221045857  0.5055494143875094  0.7684009128946343  1.0000
  N   N8        1.0  0.519572003751577  0.4944517736835436  0.26840091289463436  1.0000
  N   N9        1.0  0.0007452251543683001  0.19918151709148904  0.11081551920882761  1.0000
  N   N10       1.0  0.4992546776841779  0.8008188925801321  0.6108170406998854  1.0000
  N   N11       1.0  0.5007464106523827  0.300818687744318  0.8891844807911725  1.0000
  N   N12       1.0  0.9992507325443045  0.6991817219273031  0.3891829593001149  1.0000
  N   N13       1.0  0.0380205921268839  0.3597738823348493  0.05690528718143641  1.0000
  N   N14       1.0  0.4619831586900888  0.6402273057362038  0.5569060479269652  1.0000
  N   N15       1.0  0.5380192123059544  0.1402271009003897  0.9430962343096214  1.0000
  N   N16       1.0  0.9619843441881031  0.8597740871706635  0.4430954735640925  1.0000
  O   O1        1.0  0.6881827222404411  0.0322810028501053  0.6810102700646611  1.0000
  O   O2        1.0  0.8118182689346656  0.9677186284220838  0.1810095093191322  1.0000
  O   O3        1.0  0.18818153674242677  0.4677184235862768  0.318989729935339  1.0000
  O   O4        1.0  0.3118183660961193  0.5322804292864802  0.8189889691898031  1.0000
  O   O5        1.0  0.498340141479254  0.0683746061188018  0.5580114111829602  1.0000
  O   O6        1.0  0.0016610440187677005  0.9316258035528194  0.0580114111829602  1.0000
  O   O7        1.0  0.9983374789988488  0.43162482031757327  0.4419885888170398  1.0000
  O   O8        1.0  0.5016596641978381  0.5683748109546158  0.941987828071511  1.0000
  O   O9        1.0  0.8537663643707847  0.165397424937936  0.31791707873716046  1.0000
  O   O10       1.0  0.6462359094637975  0.8346029847336852  0.8179163179916316  1.0000
  O   O11       1.0  0.3537664615322385  0.3346027798978781  0.6820836820083687  1.0000
  O   O12       1.0  0.14623087598735657  0.6653952945754469  0.182081399771775  1.0000
  O   O13       1.0  0.9180134947615601  0.0684228668835942  0.4566831494864943  1.0000
  O   O14       1.0  0.5819810831161762  0.9315752075897308  0.9566808672499079  1.0000
  O   O15       1.0  0.4180200052203844  0.4315757811533487  0.5433191327500922  1.0000
  O   O16       1.0  0.0819824629371055  0.5684215149205443  0.04331608976796991  1.0000
