data_image0
_chemical_formula_structural       Cd2H22C28N4O14
_chemical_formula_sum              "Cd2 H22 C28 N4 O14"
_cell_length_a       8.22726985105139
_cell_length_b       10.250983418571082
_cell_length_c       11.099577024837481
_cell_angle_alpha    65.86165404492557
_cell_angle_beta     92.76755063722533
_cell_angle_gamma    75.68681650757101

_space_group_name_H-M_alt    "P 1"
_space_group_IT_number       1

loop_
  _space_group_symop_operation_xyz
  'x, y, z'

loop_
  _atom_site_type_symbol
  _atom_site_label
  _atom_site_symmetry_multiplicity
  _atom_site_fract_x
  _atom_site_fract_y
  _atom_site_fract_z
  _atom_site_occupancy
  Cd  Cd1       1.0  0.22129829156429537  0.8917432965673553  0.49384758143375485  1.0000
  Cd  Cd2       1.0  0.7787109934894332  0.10825193956697629  0.5061674764942055  1.0000
  H   H1        1.0  0.013011288044282365  0.511058919243453  0.7945801116601384  1.0000
  H   H2        1.0  0.9870062711698325  0.48891619821334587  0.20544114942384786  1.0000
  H   H3        1.0  8.483893163459875e-05  0.08403000165958469  0.8143630053923941  1.0000
  H   H4        1.0  0.9999195208205904  0.9159697826984682  0.18563057267932243  1.0000
  H   H5        1.0  0.2544413138005552  0.35485248581877465  0.5252043394062652  1.0000
  H   H6        1.0  0.7455432027416861  0.6451541948148074  0.47477317954040643  1.0000
  H   H7        1.0  0.345978008557239  0.22385992591949835  0.00863779885674632  1.0000
  H   H8        1.0  0.6540475820884379  0.7761240722433839  0.9913749670691413  1.0000
  H   H9        1.0  0.5380923732686965  0.7444331955749987  0.14868576817364942  1.0000
  H   H10       1.0  0.4618802384949703  0.25555002958282796  0.8512909026859031  1.0000
  H   H11       1.0  0.40120391553765  0.717654888632033  0.34612646506478467  1.0000
  H   H12       1.0  0.5988060037018671  0.28232068528208737  0.6538702264681006  1.0000
  H   H13       1.0  0.053933324981414905  0.19866550559945745  0.23683141413421532  1.0000
  H   H14       1.0  0.9460724094130769  0.8013349988682207  0.7631682364012702  1.0000
  H   H15       1.0  0.1576080166905172  0.32027694046225  0.12471777220486047  1.0000
  H   H16       1.0  0.8424079503324718  0.6797124719181368  0.8752804079192696  1.0000
  H   H17       1.0  0.24204268090775824  0.22234038017885638  0.2980226597504795  1.0000
  H   H18       1.0  0.7579624238131117  0.7776536079683894  0.7019774707434788  1.0000
  H   H19       1.0  0.4909512133418303  0.6593450123301706  0.5693846562501078  1.0000
  H   H20       1.0  0.5090450873159255  0.34067036351990504  0.4306061148663287  1.0000
  H   H21       1.0  0.5792961595036911  0.7924129894536021  0.5337932125448928  1.0000
  H   H22       1.0  0.420707003353435  0.2075999062808903  0.4661993658930895  1.0000
  C   C1        1.0  0.1424793456745945  0.4454351367958365  0.6542552011427389  1.0000
  C   C2        1.0  0.857509732777267  0.5545812347383714  0.3457415034287051  1.0000
  C   C3        1.0  0.047206751775220754  0.4264631591670706  0.7575971123300601  1.0000
  C   C4        1.0  0.9527982522723307  0.5735282793425752  0.24241023163120443  1.0000
  C   C5        1.0  0.9985465396867355  0.29587835229112597  0.813282095679156  1.0000
  C   C6        1.0  0.0014361527697346226  0.7041244355507599  0.1867085158875952  1.0000
  C   C7        1.0  0.03795116605167688  0.18543553137146054  0.7676638332382024  1.0000
  C   C8        1.0  0.9620232219207594  0.8145690674311935  0.23231797766054996  1.0000
  C   C9        1.0  0.13039979791725642  0.20732679239977608  0.6620065151031084  1.0000
  C   C10       1.0  0.8695984439261719  0.7926696922945026  0.3379710411993244  1.0000
  C   C11       1.0  0.1829414001282714  0.33606820423993605  0.6074244178397022  1.0000
  C   C12       1.0  0.8170367171530158  0.663939722007285  0.39257429599422977  1.0000
  C   C13       1.0  0.20493281033694197  0.5806824932247918  0.5925176001838607  1.0000
  C   C14       1.0  0.7950429311612338  0.41932107005063557  0.40750339523863477  1.0000
  C   C15       1.0  0.17279281477256342  0.09593235113090509  0.6053767672630526  1.0000
  C   C16       1.0  0.8272453582023119  0.9040641379750197  0.3946181341322016  1.0000
  C   C17       1.0  0.2834227814403434  0.08617876858566118  0.19281108188211243  1.0000
  C   C18       1.0  0.7165707436726763  0.9138011193411655  0.807195748672818  1.0000
  C   C19       1.0  0.3618827257711601  0.10887850319248571  0.07993461885185837  1.0000
  C   C20       1.0  0.6380975693319613  0.8911129631955176  0.9200662753361397  1.0000
  C   C21       1.0  0.4578534832480016  0.9884407724120476  0.05942411904368333  1.0000
  C   C22       1.0  0.5421378424729396  0.01154861689190061  0.9405685321898641  1.0000
  C   C23       1.0  0.46922972479314484  0.8448441397991431  0.15681670828460872  1.0000
  C   C24       1.0  0.5307689357214257  0.15514764841380918  0.8431877737366165  1.0000
  C   C25       1.0  0.3921100905731976  0.8284365414928415  0.26817342986573317  1.0000
  C   C26       1.0  0.6079070836787821  0.17154585660622243  0.731833538019458  1.0000
  C   C27       1.0  0.1780190777298571  0.21415693820883053  0.21346206464087908  1.0000
  C   C28       1.0  0.8219833911966319  0.7858337686041988  0.7865401078809098  1.0000
  N   N1        1.0  0.30221877902610567  0.9456703341130104  0.28716485881894027  1.0000
  N   N2        1.0  0.6977831712339934  0.05432250311230286  0.7128383683213427  1.0000
  N   N3        1.0  0.9008918531598411  0.27519566023053693  0.9242763493502222  1.0000
  N   N4        1.0  0.09909764080214971  0.7248265191014764  0.07571290177467924  1.0000
  O   O1        1.0  0.12917947764043453  0.6944003348540518  0.6112588228830305  1.0000
  O   O2        1.0  0.8708139796058348  0.3055848233042439  0.38877143094651956  1.0000
  O   O3        1.0  0.3257678103711468  0.5726151735809211  0.5274335513008522  1.0000
  O   O4        1.0  0.6742071160330525  0.4274047247077916  0.47256635852136947  1.0000
  O   O5        1.0  0.2973097300325946  0.09086288768830288  0.5422638821348825  1.0000
  O   O6        1.0  0.7027188094394035  0.909138121385261  0.457753756358585  1.0000
  O   O7        1.0  0.0808717260426732  0.007386921332006596  0.6210919363462535  1.0000
  O   O8        1.0  0.9191534457075005  0.9926069925888825  0.3789182480181524  1.0000
  O   O9        1.0  0.8585254550023292  0.37910616422146853  0.9574277674708822  1.0000
  O   O10       1.0  0.14149444375637196  0.6209397069331145  0.04254699446975254  1.0000
  O   O11       1.0  0.8660220854565496  0.1552394973100774  0.9780716176662521  1.0000
  O   O12       1.0  0.13396336142812262  0.844797022818227  0.021936046521979273  1.0000
  O   O13       1.0  0.5040491721029313  0.7409183173580585  0.5911003681648949  1.0000
  O   O14       1.0  0.49596301683177285  0.25909048413901553  0.40890271897065117  1.0000
