data_image0
_chemical_formula_structural       Ca2H36C24O28
_chemical_formula_sum              "Ca2 H36 C24 O28"
_cell_length_a       6.3498595749301465
_cell_length_b       8.247825163110468
_cell_length_c       15.82896695904483
_cell_angle_alpha    90.00024034180248
_cell_angle_beta     89.99980213690402
_cell_angle_gamma    108.345857957897

_space_group_name_H-M_alt    "P 1"
_space_group_IT_number       1

loop_
  _space_group_symop_operation_xyz
  'x, y, z'

loop_
  _atom_site_type_symbol
  _atom_site_label
  _atom_site_symmetry_multiplicity
  _atom_site_fract_x
  _atom_site_fract_y
  _atom_site_fract_z
  _atom_site_occupancy
  Ca  Ca1       1.0  0.5282220920692567  0.7820905852482056  0.7511461530557781  1.0000
  Ca  Ca2       1.0  0.47177989638618095  0.21791115588149523  0.2511457983458527  1.0000
  H   H1        1.0  0.13886078432813775  0.4483672144472378  0.7180914723505226  1.0000
  H   H2        1.0  0.8611419114138386  0.5516355833912883  0.21809382770108238  1.0000
  H   H3        1.0  0.15412987767366104  0.48113672169220223  0.8160934708282994  1.0000
  H   H4        1.0  0.8458717328859395  0.5188654529913563  0.3160957761667475  1.0000
  H   H5        1.0  0.9707080498326449  0.9876988510758336  0.8420983080003096  1.0000
  H   H6        1.0  0.029290802264682697  0.012300936605122102  0.3420974914198921  1.0000
  H   H7        1.0  0.039097709849208774  0.9187464951351814  0.7575955792841141  1.0000
  H   H8        1.0  0.9609005716569144  0.08125399993573978  0.2575961400270899  1.0000
  H   H9        1.0  0.2245263515801454  0.3469868379397383  0.08890810758065017  1.0000
  H   H10       1.0  0.7754708515315016  0.6530074216865316  0.5889097316834367  1.0000
  H   H11       1.0  0.0037330385200249365  0.7029588772861999  0.8812648420250895  1.0000
  H   H12       1.0  0.9962750490414224  0.29704120713977733  0.3812658230319457  1.0000
  H   H13       1.0  0.5853038925302343  0.44840920865882344  0.959000754742469  1.0000
  H   H14       1.0  0.41470322776416413  0.551590117329816  0.45900183759648877  1.0000
  H   H15       1.0  0.6108834717683466  0.749714006397454  0.9387426359652622  1.0000
  H   H16       1.0  0.38912061194741215  0.2502851725941966  0.4387424670372013  1.0000
  H   H17       1.0  0.7314265263626254  0.3435495362511104  0.8247466732794422  1.0000
  H   H18       1.0  0.2685745188727182  0.6564514188525761  0.32475134697256175  1.0000
  H   H19       1.0  0.4530182866326272  0.3494228899144004  0.8234025031444859  1.0000
  H   H20       1.0  0.5469864358590897  0.6505793453143056  0.3234023533572312  1.0000
  H   H21       1.0  0.7882755994836972  0.5231887212598992  0.7166620750833914  1.0000
  H   H22       1.0  0.2117228878651005  0.47681532674550897  0.2166651736469163  1.0000
  H   H23       1.0  0.08713527764841443  0.21328413379784192  0.9355444830869573  1.0000
  H   H24       1.0  0.9128687923465223  0.7867188500299775  0.4355485413802286  1.0000
  H   H25       1.0  0.7644162156491915  0.22039694772225715  0.016504889808025797  1.0000
  H   H26       1.0  0.23557976687348517  0.7796044750476625  0.516506279140799  1.0000
  H   H27       1.0  0.8426376372460637  0.9779170195516116  0.0847861735206195  1.0000
  H   H28       1.0  0.1573584629552727  0.022086136374809898  0.5847891821895814  1.0000
  H   H29       1.0  0.897981469192125  0.24649718360883804  0.1505072527049265  1.0000
  H   H30       1.0  0.10201901261752504  0.7535026024965885  0.6505087715771793  1.0000
  H   H31       1.0  0.4440766832568103  0.7808040045029118  0.0955096153140857  1.0000
  H   H32       1.0  0.5559225090072176  0.21919923476453818  0.5955112333866879  1.0000
  H   H33       1.0  0.6120465127570613  0.7991387564745125  0.18726282099306246  1.0000
  H   H34       1.0  0.3879516629964712  0.20085999175731933  0.6872652652588229  1.0000
  H   H35       1.0  0.22257740155708927  0.8557656632723932  0.1820101267170813  1.0000
  H   H36       1.0  0.7774181652804445  0.14423431547928087  0.6820112726246066  1.0000
  C   C1        1.0  0.9767582009661598  0.6471240683448086  0.0733149777687174  1.0000
  C   C2        1.0  0.023241700047456963  0.3528726477639238  0.5733132076622239  1.0000
  C   C3        1.0  0.04230184885305731  0.5045842645659562  0.04736305444343  1.0000
  C   C4        1.0  0.9576966582357687  0.4954084462683496  0.5473659765966161  1.0000
  C   C5        1.0  0.020113528423550495  0.4878079202281853  0.9602868095739793  1.0000
  C   C6        1.0  0.9798893030588688  0.512200326379542  0.4602838593998158  1.0000
  C   C7        1.0  0.9109521733905626  0.6170135160593871  0.9309742453109422  1.0000
  C   C8        1.0  0.08905034597830756  0.3829894313693741  0.4309754155774073  1.0000
  C   C9        1.0  0.6663972657508239  0.5334127694588628  0.9064427177280193  1.0000
  C   C10       1.0  0.33360909809026407  0.46658747715635934  0.4064437287319649  1.0000
  C   C11       1.0  0.6285377142314844  0.42845261813155133  0.8253520569721216  1.0000
  C   C12       1.0  0.3714664819451841  0.5715483527626474  0.32535261182586345  1.0000
  C   C13       1.0  0.4001884360147799  0.9885586752409736  0.9211019674132288  1.0000
  C   C14       1.0  0.5998120809238188  0.011439096874610798  0.4211003529900026  1.0000
  C   C15       1.0  0.28795142782592364  0.0827938601673708  0.9693057219857337  1.0000
  C   C16       1.0  0.7120492912928568  0.9172093372519681  0.4693059221620004  1.0000
  C   C17       1.0  0.41601660884314384  0.15309302196739338  0.0391022386250484  1.0000
  C   C18       1.0  0.5839782122647391  0.8469059969404354  0.5391020248462581  1.0000
  C   C19       1.0  0.627529836877777  0.10453534125797147  0.0327074326880137  1.0000
  C   C20       1.0  0.37246553640610375  0.8954649123145162  0.5327076196800603  1.0000
  C   C21       1.0  0.7050117344219445  0.0204968929064506  0.107836637268889  1.0000
  C   C22       1.0  0.2949837490154081  0.979501313361574  0.6078377470015184  1.0000
  C   C23       1.0  0.5297020357384524  0.8684560238304966  0.1461446672615239  1.0000
  C   C24       1.0  0.4702937397785902  0.131543715506524  0.6461455822870477  1.0000
  O   O1        1.0  0.1936777079374536  0.5402586397161002  0.7605826203320445  1.0000
  O   O2        1.0  0.8063210711519845  0.4597431526527771  0.2605854839360546  1.0000
  O   O3        1.0  0.912890795166021  0.9400498028515898  0.7863536605716702  1.0000
  O   O4        1.0  0.08711095611981531  0.059955999473501685  0.2863541305344484  1.0000
  O   O5        1.0  0.9766647492535442  0.7102654200885042  0.145314059675357  1.0000
  O   O6        1.0  0.023329518504468183  0.28972665547979654  0.6453146790378241  1.0000
  O   O7        1.0  0.1053567762421324  0.4062530557102164  0.1057173117037564  1.0000
  O   O8        1.0  0.8946387841624669  0.593737484065528  0.6057173770573527  1.0000
  O   O9        1.0  0.06877393571491555  0.3840722356652578  0.9090142075050096  1.0000
  O   O10       1.0  0.9312360825798508  0.6159293172361587  0.40901723674245005  1.0000
  O   O11       1.0  0.9067360389393357  0.7198607104926752  0.005531781507180298  1.0000
  O   O12       1.0  0.0932673785911078  0.2801393910821446  0.5055322824281134  1.0000
  O   O13       1.0  0.5607787485289394  0.6618896404723031  0.8949557633774461  1.0000
  O   O14       1.0  0.4392255899550791  0.33810924622779476  0.39495571567353943  1.0000
  O   O15       1.0  0.6720607586264506  0.5391268980122276  0.7534251537650718  1.0000
  O   O16       1.0  0.327938609399581  0.46087229775197597  0.25342616023880987  1.0000
  O   O17       1.0  0.34762270249335353  0.9101963986975504  0.8534860091480283  1.0000
  O   O18       1.0  0.6523729612129331  0.08979962706384728  0.3534844919254283  1.0000
  O   O19       1.0  0.0850993033842755  0.08962231671833358  0.9449012460970607  1.0000
  O   O20       1.0  0.9148999805003373  0.9103807119146694  0.4449024119080391  1.0000
  O   O21       1.0  0.3877611172339713  0.2546205262873755  0.0977315896819206  1.0000
  O   O22       1.0  0.6122354549424927  0.7453801672223789  0.5977311155321203  1.0000
  O   O23       1.0  0.5959041317297322  0.9918458788248116  0.9602711625433997  1.0000
  O   O24       1.0  0.4040945800718418  0.0081521488880654  0.4602729727891557  1.0000
  O   O25       1.0  0.7802332493694025  0.1453208505227863  0.1739427402181377  1.0000
  O   O26       1.0  0.21976342666024345  0.8546778029107144  0.6739449467532805  1.0000
  O   O27       1.0  0.37685726575573136  0.9270075204509993  0.19411132852056306  1.0000
  O   O28       1.0  0.6231403228696949  0.0729938223106714  0.6941119028796194  1.0000
