data_image0
_chemical_formula_structural       Co2H48C44N12O12
_chemical_formula_sum              "Co2 H48 C44 N12 O12"
_cell_length_a       8.411964975
_cell_length_b       11.472858931503833
_cell_length_c       12.219
_cell_angle_alpha    112.01351146431494
_cell_angle_beta     90.0
_cell_angle_gamma    90.0

_space_group_name_H-M_alt    "P 1"
_space_group_IT_number       1

loop_
  _space_group_symop_operation_xyz
  'x, y, z'

loop_
  _atom_site_type_symbol
  _atom_site_label
  _atom_site_symmetry_multiplicity
  _atom_site_fract_x
  _atom_site_fract_y
  _atom_site_fract_z
  _atom_site_occupancy
  Co  Co1       1.0  0.9999958422318543  0.9999891162789326  0.9999820113388367  1.0000
  Co  Co2       1.0  0.4999783061983081  0.5000199425827105  1.8353337218008358e-05  1.0000
  H   H1        1.0  0.920284383376192  0.0187619240531163  0.2341150847825801  1.0000
  H   H2        1.0  0.4201860101063986  0.4811771643770371  0.7659222800542054  1.0000
  H   H3        1.0  0.079728101816066  0.9812008676180071  0.7658421124013797  1.0000
  H   H4        1.0  0.5797646583757938  0.5188420371679712  0.23409896331516927  1.0000
  H   H5        1.0  0.9631982567782843  0.1685602244755842  0.438984564926443  1.0000
  H   H6        1.0  0.4629917042658604  0.331306471283078  0.5609896759692816  1.0000
  H   H7        1.0  0.03684157042035  0.8313959860435816  0.5609776816854861  1.0000
  H   H8        1.0  0.5370017604002231  0.6687211917430034  0.4390345453075284  1.0000
  H   H9        1.0  0.2754623927805895  0.3762435169819511  0.2963136420506842  1.0000
  H   H10       1.0  0.7755155923007138  0.12377830592988913  0.7036562691890893  1.0000
  H   H11       1.0  0.7245453372801265  0.6237173943600354  0.7036453485687986  1.0000
  H   H12       1.0  0.2244802499311405  0.8762888440079166  0.2964064009164104  1.0000
  H   H13       1.0  0.21032541210741584  0.2233736989266148  0.0981355033019895  1.0000
  H   H14       1.0  0.7104582600809053  0.2766170985545955  0.9018030290044194  1.0000
  H   H15       1.0  0.7896644862100148  0.7766041353775464  0.9018204407590105  1.0000
  H   H16       1.0  0.2894971635328289  0.7234378292438706  0.0982577948719623  1.0000
  H   H17       1.0  0.2994746182951147  0.537181827331537  0.49531566774407304  1.0000
  H   H18       1.0  0.7996015223541735  0.9628103085679457  0.5046239084794166  1.0000
  H   H19       1.0  0.7005319229827124  0.4627847249978458  0.504635487376099  1.0000
  H   H20       1.0  0.2004299833642591  0.037224875774654706  0.495429148548709  1.0000
  H   H21       1.0  0.2288680475634024  0.6425094036792203  0.7333312146085263  1.0000
  H   H22       1.0  0.729042502937908  0.8575382019295787  0.2665845083809799  1.0000
  H   H23       1.0  0.7711313610171118  0.3574562084855941  0.266614699247576  1.0000
  H   H24       1.0  0.2710068345238241  0.1424951020838989  0.7334646132996241  1.0000
  H   H25       1.0  0.8866418277020929  0.5090445822392482  0.7927975342304093  1.0000
  H   H26       1.0  0.3866504448920409  0.9908055888109644  0.20714118317855673  1.0000
  H   H27       1.0  0.1133575808784215  0.4909200897609978  0.207139864771321  1.0000
  H   H28       1.0  0.6133822496092807  0.0092117324049141  0.7929047687585182  1.0000
  H   H29       1.0  0.0612056756691359  0.5868328581578055  0.8669103294946083  1.0000
  H   H30       1.0  0.5613242582479999  0.9132147474509935  0.1330233982416118  1.0000
  H   H31       1.0  0.9387735236023149  0.4131543777919973  0.13303828418392527  1.0000
  H   H32       1.0  0.4387001147731269  0.0867969327774887  0.8670222052189942  1.0000
  H   H33       1.0  0.0200892419906893  0.30069283272738556  0.7785256158732922  1.0000
  H   H34       1.0  0.5198404906577707  0.19931112705773302  0.221577136261196  1.0000
  H   H35       1.0  0.9799386973790831  0.6992925228932947  0.22145916393902348  1.0000
  H   H36       1.0  0.480219545849927  0.8006967925124969  0.7784556861189104  1.0000
  H   H37       1.0  0.9431375455768602  0.39900396092873086  0.9144589177714338  1.0000
  H   H38       1.0  0.4431937140822413  0.1009840160587814  0.08552608895865889  1.0000
  H   H39       1.0  0.0568226331684158  0.6009823348565106  0.0855008225945753  1.0000
  H   H40       1.0  0.5567973730180712  0.8990380059799109  0.9145239725641616  1.0000
  H   H41       1.0  0.9367751795709296  0.7963062239953587  0.06853663902553819  1.0000
  H   H42       1.0  0.4368812769575285  0.7038513808675121  0.9315757474930848  1.0000
  H   H43       1.0  0.0632087748320629  0.2036875931064017  0.9314445715135876  1.0000
  H   H44       1.0  0.5630800905706366  0.2961546583735881  0.0684400451782565  1.0000
  H   H45       1.0  0.11204278700649442  0.8051860783089282  0.012945853238008478  1.0000
  H   H46       1.0  0.6121946555061584  0.6947675108433984  0.9869752465772593  1.0000
  H   H47       1.0  0.8879399786136162  0.1947898756660962  0.9870159762464042  1.0000
  H   H48       1.0  0.3877690895877777  0.3052610923472514  0.013059126349084186  1.0000
  C   C1        1.0  0.9958505563083406  0.10041521649714008  0.252065411454403  1.0000
  C   C2        1.0  0.4957141419861912  0.3995041284771474  0.7479470001849934  1.0000
  C   C3        1.0  0.004173816712786001  0.8995569768196248  0.7478926393228634  1.0000
  C   C4        1.0  0.5042531694564047  0.6005225943843726  0.2520867109841376  1.0000
  C   C5        1.0  0.022678411116423505  0.1836273017894356  0.36623746685892655  1.0000
  C   C6        1.0  0.5224653232700831  0.3162779407163825  0.6337585240353292  1.0000
  C   C7        1.0  0.977349528253356  0.8163223275777796  0.6337167348197285  1.0000
  C   C8        1.0  0.4775138760013676  0.6837516026388357  0.3662753613720469  1.0000
  C   C9        1.0  0.12161130045598871  0.2888787248073896  0.3877698740672315  1.0000
  C   C10       1.0  0.6215135245495986  0.21107352592667178  0.6121943753001418  1.0000
  C   C11       1.0  0.87841069499936  0.7110737250535237  0.612189412235125  1.0000
  C   C12       1.0  0.37847518498494287  0.7889597780868058  0.3878465624046896  1.0000
  C   C13       1.0  0.19382986078112915  0.2996624123644764  0.2882243527417927  1.0000
  C   C14       1.0  0.6937915240190335  0.2003020605089247  0.7117270116983008  1.0000
  C   C15       1.0  0.8061921346742196  0.7003088407877271  0.7117440063253753  1.0000
  C   C16       1.0  0.306191241601077  0.7997425254793242  0.2883138045618878  1.0000
  C   C17       1.0  0.15881782722235024  0.2136053890993992  0.1758450680117676  1.0000
  C   C18       1.0  0.6588282305585835  0.2863581436094336  0.8241231518988529  1.0000
  C   C19       1.0  0.8411803925752823  0.7863686845464956  0.8241054605469316  1.0000
  C   C20       1.0  0.3411438360155543  0.7136883227079522  0.17592732849189474  1.0000
  C   C21       1.0  0.1398817046310867  0.383109538797946  0.5067822622600033  1.0000
  C   C22       1.0  0.6399063733619528  0.1168380111132876  0.493196700665905  1.0000
  C   C23       1.0  0.8601462347386928  0.6168429110629674  0.4931753872471987  1.0000
  C   C24       1.0  0.3601286987051466  0.8831981133938811  0.5068468664698926  1.0000
  C   C25       1.0  0.2262075514645119  0.4980907248959525  0.5461615526485275  1.0000
  C   C26       1.0  0.7262999808198813  0.0018991324206894  0.45377910397200344  1.0000
  C   C27       1.0  0.7738073112935169  0.5018748872688619  0.4537909083881999  1.0000
  C   C28       1.0  0.2737196370696964  0.9981407527447388  0.5462764258467133  1.0000
  C   C29       1.0  0.1926244349347144  0.5540803452174146  0.6654538937641661  1.0000
  C   C30       1.0  0.6927228082045147  0.9459230726568394  0.33447655864133446  1.0000
  C   C31       1.0  0.8073821063431126  0.4458786857954493  0.33449461432717703  1.0000
  C   C32       1.0  0.3073229629085574  0.054112111685761  0.665569951206166  1.0000
  C   C33       1.0  0.0144116149271056  0.4974542334856551  0.8046428428660519  1.0000
  C   C34       1.0  0.5143970538227336  0.0025064787294866  0.19533993396272822  1.0000
  C   C35       1.0  0.9855913600020686  0.5025170196665485  0.19530341946651927  1.0000
  C   C36       1.0  0.485630885547046  0.9975042613344343  0.804697154643499  1.0000
  C   C37       1.0  0.0379376282412522  0.3922836646202655  0.8502319430222444  1.0000
  C   C38       1.0  0.5378945363476149  0.10775132059548301  0.1498440818175979  1.0000
  C   C39       1.0  0.9620498925104002  0.6077082721523582  0.1497469689645144  1.0000
  C   C40       1.0  0.4621405357194774  0.8922509579873577  0.8501785713151121  1.0000
  C   C41       1.0  0.1949104644245168  0.389511119318975  0.9104780496027801  1.0000
  C   C42       1.0  0.694920867760743  0.11055019050458981  0.0896563436926172  1.0000
  C   C43       1.0  0.8050520918865303  0.610509962555156  0.08953894513833657  1.0000
  C   C44       1.0  0.3050737856882222  0.8894342249515219  0.9103338340241294  1.0000
  N   N1        1.0  0.059260826867621616  0.1152322100367797  0.1559256102601481  1.0000
  N   N2        1.0  0.5591892041847188  0.3846871349375078  0.8440671598373868  1.0000
  N   N3        1.0  0.9407302602326837  0.8847437439382447  0.8440345824291099  1.0000
  N   N4        1.0  0.4407567091659246  0.615341468253142  0.15597376026957482  1.0000
  N   N5        1.0  0.0591490812763382  0.3703806507564948  0.5976057131450361  1.0000
  N   N6        1.0  0.5591214435602154  0.1295678393193  0.4023973141892156  1.0000
  N   N7        1.0  0.9408848020078653  0.6295736794335411  0.4023550533121067  1.0000
  N   N8        1.0  0.4409041182437861  0.8704541827193993  0.5976388345747878  1.0000
  N   N9        1.0  0.0933800844790156  0.47431396305474044  0.6920149274622888  1.0000
  N   N10       1.0  0.593342936499802  0.025653330312351803  0.3079709839143021  1.0000
  N   N11       1.0  0.9066324007132494  0.5256497687809443  0.30794423739543214  1.0000
  N   N12       1.0  0.4066850028699776  0.9743668113972177  0.6920694134779666  1.0000
  O   O1        1.0  0.279190415911117  0.4895408683445909  0.9458106979570359  1.0000
  O   O2        1.0  0.779168722109425  0.0104912963774666  0.054283975788855805  1.0000
  O   O3        1.0  0.7207554974395265  0.5104914955043185  0.05421926970068114  1.0000
  O   O4        1.0  0.22082355377376936  0.9894968797369046  0.9456993414665291  1.0000
  O   O5        1.0  0.2299724268645065  0.2877016387723828  0.9240411038661734  1.0000
  O   O6        1.0  0.7299959068124835  0.21232676529140798  0.0760489727749984  1.0000
  O   O7        1.0  0.7700020172754023  0.7123288447473968  0.07598492844402926  1.0000
  O   O8        1.0  0.2699832924589671  0.7876473083544866  0.9239162869400985  1.0000
  O   O9        1.0  0.0319330858840132  0.8497075712702085  0.07445796822669581  1.0000
  O   O10       1.0  0.5319304126085029  0.6503381540094608  0.9255585743052208  1.0000
  O   O11       1.0  0.9680568124334102  0.1502777843504717  0.9255063516461774  1.0000
  O   O12       1.0  0.4680416539656349  0.3496810475355403  0.0744741266302356  1.0000
