data_image0
_chemical_formula_structural       U4H40C28N8O28
_chemical_formula_sum              "U4 H40 C28 N8 O28"
_cell_length_a       7.68262157677039
_cell_length_b       10.03810104087177
_cell_length_c       14.731379538736936
_cell_angle_alpha    90.001326640689
_cell_angle_beta     104.47339920659098
_cell_angle_gamma    89.99685946414058

_space_group_name_H-M_alt    "P 1"
_space_group_IT_number       1

loop_
  _space_group_symop_operation_xyz
  'x, y, z'

loop_
  _atom_site_type_symbol
  _atom_site_label
  _atom_site_symmetry_multiplicity
  _atom_site_fract_x
  _atom_site_fract_y
  _atom_site_fract_z
  _atom_site_occupancy
  U   U1        1.0  0.4447992719989528  0.9075087294683403  0.1653917494612642  1.0000
  U   U2        1.0  0.5552057291628286  0.4075601407453108  0.3346133738717326  1.0000
  U   U3        1.0  0.5551843356085512  0.0924851357223133  0.834594786115062  1.0000
  U   U4        1.0  0.44479676934234647  0.5924705838004558  0.6653844097025041  1.0000
  H   H1        1.0  0.6754496230766022  0.1306269905152178  0.46619209028960273  1.0000
  H   H2        1.0  0.32454855926112464  0.6306319527045616  0.03379017885172429  1.0000
  H   H3        1.0  0.3245825011866899  0.8693608967885286  0.5338156021907636  1.0000
  H   H4        1.0  0.6754685449512791  0.3693549381935881  0.9661870763476372  1.0000
  H   H5        1.0  0.6995157532716332  0.7550785456891945  0.36581726907417783  1.0000
  H   H6        1.0  0.3005441346221858  0.2551089533750144  0.13420948094751847  1.0000
  H   H7        1.0  0.3005298194430921  0.24490934137260478  0.634192827125176  1.0000
  H   H8        1.0  0.6994543594484595  0.7449008510123606  0.8657911830009509  1.0000
  H   H9        1.0  0.06342945416601958  0.5768101262543227  0.2446214943915734  1.0000
  H   H10       1.0  0.9365873145765063  0.07683483729937991  0.2553786091229426  1.0000
  H   H11       1.0  0.9365998649024403  0.4231827418819235  0.7553715829298325  1.0000
  H   H12       1.0  0.06345014310070239  0.9231351181331393  0.7446243366470284  1.0000
  H   H13       1.0  0.9204642513788385  0.7145412309238212  0.24252431907323307  1.0000
  H   H14       1.0  0.0795550272721499  0.21454427516057714  0.2574531432762299  1.0000
  H   H15       1.0  0.07945603713237398  0.28541776801945673  0.7574371242412423  1.0000
  H   H16       1.0  0.9204834923447149  0.7854127290071349  0.742515318326113  1.0000
  H   H17       1.0  0.08673647020457759  0.7757524218663434  0.40754718010330027  1.0000
  H   H18       1.0  0.9131885930429815  0.2757407003521166  0.09242187061767024  1.0000
  H   H19       1.0  0.9131918598684051  0.22426535293637068  0.5924125797612163  1.0000
  H   H20       1.0  0.08676549150015227  0.7242113249157427  0.9075669874807488  1.0000
  H   H21       1.0  0.9958118423022737  0.613977482457898  0.39989529057368856  1.0000
  H   H22       1.0  0.004187817252663699  0.1140112244974958  0.1001289952923798  1.0000
  H   H23       1.0  0.004155728420890599  0.3860064211874814  0.6001007281337891  1.0000
  H   H24       1.0  0.995787780807042  0.8859607244635652  0.899863301101135  1.0000
  H   H25       1.0  0.9023020874640933  0.756895298967656  0.5391371415360807  1.0000
  H   H26       1.0  0.09776492566542319  0.2568895465752377  0.9608950158944011  1.0000
  H   H27       1.0  0.0977287148919572  0.24308661118098485  0.46087309666584275  1.0000
  H   H28       1.0  0.9022536836749706  0.7430963484246149  0.03910211837990829  1.0000
  H   H29       1.0  0.666145035170956  0.7561200908395947  0.5305512914548486  1.0000
  H   H30       1.0  0.3338842236688393  0.25613259276600087  0.9694556467892494  1.0000
  H   H31       1.0  0.333887083581331  0.24386680024836238  0.4694557214820704  1.0000
  H   H32       1.0  0.666119614600177  0.7438682456122265  0.030541629559785104  1.0000
  H   H33       1.0  0.7260627096933376  0.9668691944997363  0.6093832774463905  1.0000
  H   H34       1.0  0.27393059906335526  0.46684965985201654  0.8906121627398206  1.0000
  H   H35       1.0  0.2739694421928646  0.033121681474227706  0.390627812744377  1.0000
  H   H36       1.0  0.7260556807960582  0.533135239414449  0.10937267902131959  1.0000
  H   H37       1.0  0.928394017384491  0.9894721722294407  0.5723281677974015  1.0000
  H   H38       1.0  0.071593762681097  0.48945642850358706  0.9276723473935248  1.0000
  H   H39       1.0  0.07164217870111139  0.010511730260851903  0.4276847987030336  1.0000
  H   H40       1.0  0.9284073486671429  0.5105304629842992  0.07231982729148709  1.0000
  C   C1        1.0  0.1873186465147541  0.7626712147615322  0.2360309380993968  1.0000
  C   C2        1.0  0.8128181700261264  0.2626795110959179  0.2641062639661982  1.0000
  C   C3        1.0  0.8125846169327459  0.2374043413581788  0.7639839864658241  1.0000
  C   C4        1.0  0.1872654311765416  0.7373023988301952  0.7359562277148368  1.0000
  C   C5        1.0  0.05794190743444719  0.677819862094431  0.2726274834529717  1.0000
  C   C6        1.0  0.9420788661677049  0.17785235689481743  0.22739100520117714  1.0000
  C   C7        1.0  0.9420013823737888  0.32217898490100083  0.7273552386836497  1.0000
  C   C8        1.0  0.0579411378090313  0.8221205875258805  0.7726124173065044  1.0000
  C   C9        1.0  0.09774162877684489  0.6762209311673573  0.3791817692094099  1.0000
  C   C10       1.0  0.9022134011098967  0.17622557938372554  0.12083029846166225  1.0000
  C   C11       1.0  0.9022003330022556  0.3237888741356444  0.6208028191671672  1.0000
  C   C12       1.0  0.09774746567725148  0.8237324231092985  0.8791668966870461  1.0000
  C   C13       1.0  0.27721178653013107  0.6171241270007787  0.4272108091710365  1.0000
  C   C14       1.0  0.722825264169728  0.11703407275960132  0.07281356889595966  1.0000
  C   C15       1.0  0.7227988317090419  0.3829494342946589  0.5727948044585034  1.0000
  C   C16       1.0  0.27716231636741645  0.8829289098942187  0.9271660088873472  1.0000
  C   C17       1.0  0.6714946358063685  0.9569394240689137  0.3891451906896036  1.0000
  C   C18       1.0  0.32851908550944836  0.45697383858441765  0.11086046626029859  1.0000
  C   C19       1.0  0.3285388105338568  0.0430494593681487  0.6108599560520318  1.0000
  C   C20       1.0  0.6714309586144438  0.5430369628051964  0.8891271952471484  1.0000
  C   C21       1.0  0.7761978948159152  0.8113460454973166  0.512618848100459  1.0000
  C   C22       1.0  0.22385861445968655  0.3113498377605737  0.9874039888782348  1.0000
  C   C23       1.0  0.22384096729788178  0.188648815144532  0.4873917451135057  1.0000
  C   C24       1.0  0.7761411800850552  0.6886440272403008  0.012591411113014329  1.0000
  C   C25       1.0  0.7876305887926874  0.9552850249587338  0.5503378196269962  1.0000
  C   C26       1.0  0.21236218643875296  0.4552860249815681  0.9496600864595519  1.0000
  C   C27       1.0  0.2124055738874944  0.044702862280431105  0.4496710696470814  1.0000
  C   C28       1.0  0.7876294981722295  0.5447028590581199  0.05032884268700137  1.0000
  N   N1        1.0  0.689330092679121  0.029638504311542108  0.46796141881024766  1.0000
  N   N2        1.0  0.3106590272747738  0.5296509640896474  0.0320411890401289  1.0000
  N   N3        1.0  0.31071413574495205  0.9703493827755881  0.5320485049712147  1.0000
  N   N4        1.0  0.6893179143628743  0.4703419051376088  0.9679512798434401  1.0000
  N   N5        1.0  0.737265807140993  0.8328452219953347  0.41110090323095244  1.0000
  N   N6        1.0  0.26281022407486176  0.3328806592797093  0.08892098748268748  1.0000
  N   N7        1.0  0.26278785370103447  0.16713668773399357  0.5889129456152346  1.0000
  N   N8        1.0  0.7371828874239978  0.6671251603801523  0.9110783072404303  1.0000
  O   O1        1.0  0.297128419770111  0.05177382990991932  0.138697412079388  1.0000
  O   O2        1.0  0.7029051464290814  0.5518148535738733  0.36134179007790107  1.0000
  O   O3        1.0  0.7028987763014313  0.9482190394425989  0.8613646334879447  1.0000
  O   O4        1.0  0.29716722746510976  0.4482158695971918  0.638661561526895  1.0000
  O   O5        1.0  0.593021534473273  0.7642657656095154  0.18850708304459124  1.0000
  O   O6        1.0  0.40695631326767057  0.2643734305556437  0.3114169681049219  1.0000
  O   O7        1.0  0.4068866177953153  0.23565836632925408  0.8114480516084297  1.0000
  O   O8        1.0  0.5930700321195135  0.7356871789448719  0.6885411080734798  1.0000
  O   O9        1.0  0.3096572235023273  0.8303078870681733  0.29216783831549253  1.0000
  O   O10       1.0  0.690515609947944  0.33039911729342464  0.20801169832125044  1.0000
  O   O11       1.0  0.6904316188186143  0.16959831093962663  0.7078783542755716  1.0000
  O   O12       1.0  0.30958559375238076  0.669606701470741  0.7920686642953071  1.0000
  O   O13       1.0  0.3370222475081447  0.5216110982587877  0.38728523246276575  1.0000
  O   O14       1.0  0.6630658437974403  0.0215398582734281  0.1127652423097274  1.0000
  O   O15       1.0  0.6630556956533055  0.4784774050636998  0.6127425929135056  1.0000
  O   O16       1.0  0.33690264040757967  0.9783942342373351  0.8871779445225342  1.0000
  O   O17       1.0  0.17696434016870907  0.7673879595256281  0.1479221397465551  1.0000
  O   O18       1.0  0.8231976552634704  0.2673051702363907  0.35221293416294225  1.0000
  O   O19       1.0  0.8227521204405264  0.23290576899632498  0.852076294423668  1.0000
  O   O20       1.0  0.1769235643048432  0.7326647844822533  0.6478516670179102  1.0000
  O   O21       1.0  0.6040673452894154  0.0006260939520644  0.3066784358113138  1.0000
  O   O22       1.0  0.395934481464124  0.5007002197847329  0.19332263329461338  1.0000
  O   O23       1.0  0.3959660853662327  0.999334895728666  0.6933246722140609  1.0000
  O   O24       1.0  0.6039793822718804  0.4993394724553895  0.8066746433696109  1.0000
  O   O25       1.0  0.35928742641477374  0.6614239856920534  0.5080274576981266  1.0000
  O   O26       1.0  0.6407051567948159  0.1612599748323049  0.9919590389690498  1.0000
  O   O27       1.0  0.6406464885082244  0.3386824516314989  0.49195881466443575  1.0000
  O   O28       1.0  0.3592662628668534  0.8387518220820097  0.008015072267781424  1.0000
