data_image0
_chemical_formula_structural       Bi4H52C68O12
_chemical_formula_sum              "Bi4 H52 C68 O12"
_cell_length_a       9.558217501
_cell_length_b       10.243160600768093
_cell_length_c       15.679
_cell_angle_alpha    101.1255071028206
_cell_angle_beta     90.0
_cell_angle_gamma    90.0

_space_group_name_H-M_alt    "P 1"
_space_group_IT_number       1

loop_
  _space_group_symop_operation_xyz
  'x, y, z'

loop_
  _atom_site_type_symbol
  _atom_site_label
  _atom_site_symmetry_multiplicity
  _atom_site_fract_x
  _atom_site_fract_y
  _atom_site_fract_z
  _atom_site_occupancy
  Bi  Bi1       1.0  0.4694023754461085  0.7150893970167047  0.7889552850257502  1.0000
  Bi  Bi2       1.0  0.9694045986116748  0.7849106862614192  0.7110480420104041  1.0000
  Bi  Bi3       1.0  0.5305926549034297  0.2849116534616343  0.2110440820435073  1.0000
  Bi  Bi4       1.0  0.030598801499273496  0.21508538941896654  0.2889526113189405  1.0000
  H   H1        1.0  0.2459213760048939  0.24297808657160394  0.7423220952824465  1.0000
  H   H2        1.0  0.7459162756292272  0.2570229361473579  0.757677013169129  1.0000
  H   H3        1.0  0.7540726081244671  0.7570189840683667  0.2576723055145749  1.0000
  H   H4        1.0  0.2540756160597866  0.742982094169342  0.24232094221458314  1.0000
  H   H5        1.0  0.1752900056757127  0.5421922841428639  0.7699813372757589  1.0000
  H   H6        1.0  0.6752880439605704  0.9578077991352528  0.730018800781508  1.0000
  H   H7        1.0  0.8247092095545341  0.45780976129506706  0.23001879301472167  1.0000
  H   H8        1.0  0.3247164023705551  0.0421922563834869  0.2699817164538558  1.0000
  H   H9        1.0  0.0324464263308073  0.4198620025235158  0.861132764008147  1.0000
  H   H10       1.0  0.5324476032761893  0.0801350403570851  0.6388645671500797  1.0000
  H   H11       1.0  0.9675548813397938  0.58013407315687  0.1388653381380891  1.0000
  H   H12       1.0  0.4675568430549362  0.9198610353233007  0.3611335349961564  1.0000
  H   H13       1.0  0.1092055082331811  0.40908360528250387  0.011096180783830782  1.0000
  H   H14       1.0  0.6092129624996261  0.0909104527193278  0.48890141189382774  1.0000
  H   H15       1.0  0.8907947532172429  0.5909104804786978  0.9889016705115099  1.0000
  H   H16       1.0  0.3907925300516766  0.9090806481631047  0.511095425329394  1.0000
  H   H17       1.0  0.3273696167379114  0.5246222927389113  0.07136489307843868  1.0000
  H   H18       1.0  0.8273833483254194  0.9753767955796206  0.42863830853227103  1.0000
  H   H19       1.0  0.6726264598318039  0.4753767678202436  0.9286361365272597  1.0000
  H   H20       1.0  0.1726252828864148  0.0246182851411731  0.5713628571674079  1.0000
  H   H21       1.0  0.4695498924909884  0.6478589825449603  0.9811332649959824  1.0000
  H   H22       1.0  0.9695615316381351  0.8521440856119327  0.5188761784785143  1.0000
  H   H23       1.0  0.530446184078734  0.35214206793337866  0.018869928847941312  1.0000
  H   H24       1.0  0.0304502382342235  0.1478579598259984  0.4811296919739618  1.0000
  H   H25       1.0  0.3152355551319843  0.7733592054187922  0.6137375251217492  1.0000
  H   H26       1.0  0.8152398707379049  0.7266448576976856  0.8862726815739705  1.0000
  H   H27       1.0  0.6847542441166752  0.22663786522118556  0.386265804816162  1.0000
  H   H28       1.0  0.1847645755932277  0.27335718774023826  0.1137319132869479  1.0000
  H   H29       1.0  0.23351634337328162  0.6489196094681517  0.47222174880226225  1.0000
  H   H30       1.0  0.733519612759018  0.8510894284462792  0.027785896041805803  1.0000
  H   H31       1.0  0.7664786869762636  0.3510804460505951  0.5277794062288805  1.0000
  H   H32       1.0  0.2664837873519303  0.1489175917895977  0.9722180503547975  1.0000
  H   H33       1.0  0.2622340409953807  0.40197859884863607  0.4344590800722727  1.0000
  H   H34       1.0  0.7622383566012942  0.0980283936278639  0.06554333211509798  1.0000
  H   H35       1.0  0.7377641280146889  0.5980204617105186  0.565540036146089  1.0000
  H   H36       1.0  0.2377671359500084  0.9019776316484212  0.9344547486940584  1.0000
  H   H37       1.0  0.373934784349288  0.2822003885782465  0.5398540293148812  1.0000
  H   H38       1.0  0.8739349150745  0.2178046139790766  0.9601462186342573  1.0000
  H   H39       1.0  0.626065477101136  0.7177996669405005  0.46014457453314617  1.0000
  H   H40       1.0  0.1260663925961012  0.7821974314588473  0.03984944708577132  1.0000
  H   H41       1.0  0.4569084140995017  0.4064788010752665  0.682338070167468  1.0000
  H   H42       1.0  0.9569064523843593  0.0935202317245114  0.8176633386163275  1.0000
  H   H43       1.0  0.5430908011307451  0.5935192645242964  0.3176615584212215  1.0000
  H   H44       1.0  0.043095901506419  0.9064758439558744  0.18233412573413693  1.0000
  H   H45       1.0  0.608687759971076  0.1563887433526645  0.8900416864816947  1.0000
  H   H46       1.0  0.1086918141265656  0.3436112844067054  0.6099623989106533  1.0000
  H   H47       1.0  0.3913062241582921  0.8436182768832124  0.10995588195713421  1.0000
  H   H48       1.0  0.8913136784247371  0.6563877761524495  0.3900437330612618  1.0000
  H   H49       1.0  0.4780106750575612  0.3602062154122265  0.8267804366612668  1.0000
  H   H50       1.0  0.9780118520029504  0.1397938123471434  0.6732223731395237  1.0000
  H   H51       1.0  0.5219791241910983  0.6397988149044664  0.17321560533510902  1.0000
  H   H52       1.0  0.0219863170071193  0.8602052482120115  0.3267805698534971  1.0000
  C   C1        1.0  0.3257532065653734  0.1959980846399105  0.7752485351282274  1.0000
  C   C2        1.0  0.8257491524098768  0.3040039330386435  0.7247526121361291  1.0000
  C   C3        1.0  0.6742428700043419  0.8040029658384285  0.22474891855369347  1.0000
  C   C4        1.0  0.1742469241598386  0.6959991073588723  0.2752482813755748  1.0000
  C   C5        1.0  0.3325316670882899  0.6031076900953849  0.8689774331484799  1.0000
  C   C6        1.0  0.8325338902538562  0.8968943831019089  0.6310286959216782  1.0000
  C   C7        1.0  0.667467548141957  0.39689336038294687  0.131024485103886  1.0000
  C   C8        1.0  0.1674716022974536  0.10310865729560699  0.3689741109773621  1.0000
  C   C9        1.0  0.2085974712116965  0.5394372410375041  0.8362046063147235  1.0000
  C   C10       1.0  0.708594463276377  0.9605608523214356  0.6637971942789775  1.0000
  C   C11       1.0  0.7914038364588976  0.46056281448124275  0.16379591092064064  1.0000
  C   C12       1.0  0.2914057981740399  0.0394372132781271  0.3362030721054836  1.0000
  C   C13       1.0  0.1283209970762513  0.4701721342037287  0.887351169375009  1.0000
  C   C14       1.0  0.628326358902342  0.029827893555641097  0.6126497270384519  1.0000
  C   C15       1.0  0.8716771719338182  0.529826926355426  0.1126485846391319  1.0000
  C   C16       1.0  0.371682272309485  0.9701721619630987  0.38734951460535433  1.0000
  C   C17       1.0  0.1715769702696548  0.464018309138126  0.9716816059798461  1.0000
  C   C18       1.0  0.6715844245361069  0.0359767438232907  0.5283193011021581  1.0000
  C   C19       1.0  0.8284232911807621  0.5359757766230757  0.028316883111280316  1.0000
  C   C20       1.0  0.3284231604555501  0.9640163469783188  0.4716803381550747  1.0000
  C   C21       1.0  0.2938037348183613  0.5289095736132268  0.005411952517583508  1.0000
  C   C22       1.0  0.7938122353049835  0.971088519745706  0.4945936748507905  1.0000
  C   C23       1.0  0.7061923417513611  0.471088491986336  0.9945889516626636  1.0000
  C   C24       1.0  0.2061974421270278  0.028908550894264796  0.5054096550871208  1.0000
  C   C25       1.0  0.373545590443662  0.5985895785961332  0.954099565712859  1.0000
  C   C26       1.0  0.8735509522697527  0.9014144845203517  0.5459068142082018  1.0000
  C   C27       1.0  0.6264515323462305  0.4014124668417978  0.045902477964958215  1.0000
  C   C28       1.0  0.1264555865017272  0.0985865659579872  0.45409637963572186  1.0000
  C   C29       1.0  0.3906010717593915  0.5986821098380232  0.6590146042191309  1.0000
  C   C30       1.0  0.8906022487047808  0.9013199633592777  0.8409921626468063  1.0000
  C   C31       1.0  0.6093918661497923  0.4013159557615396  0.3409869377568953  1.0000
  C   C32       1.0  0.109403243846522  0.0986810871190613  0.1590103934013314  1.0000
  C   C33       1.0  0.3281124330631613  0.6654697672921088  0.5988485438364037  1.0000
  C   C34       1.0  0.828117794889252  0.8345342958243691  0.9011591116762075  1.0000
  C   C35       1.0  0.6718794586258525  0.334528298307454  0.401153635935394  1.0000
  C   C36       1.0  0.1718866514418735  0.1654677496135548  0.09884229420583072  1.0000
  C   C37       1.0  0.2810743739320571  0.5951529881714634  0.5185422949387615  1.0000
  C   C38       1.0  0.7810776433177935  0.9048530648641985  0.9814656114247455  1.0000
  C   C39       1.0  0.7189185639771338  0.4048440824685143  0.4814591216118203  1.0000
  C   C40       1.0  0.218926803013332  0.0951519654524944  0.018538084120962105  1.0000
  C   C41       1.0  0.296927748265098  0.4571103047031286  0.4973367034969201  1.0000
  C   C42       1.0  0.7969331100911958  0.04289668777337849  0.0026669842820084  1.0000
  C   C43       1.0  0.7030704207449716  0.5428887558560263  0.5026630505172207  1.0000
  C   C44       1.0  0.2030723824601139  0.9571103324624984  0.9973324975441571  1.0000
  C   C45       1.0  0.3603381069367444  0.3899455575643386  0.5566114238210602  1.0000
  C   C46       1.0  0.8603403301023106  0.11005944499298437  0.9433913753111939  1.0000
  C   C47       1.0  0.6396590158531481  0.6100525080352242  0.44338820476762913  1.0000
  C   C48       1.0  0.1396641162288219  0.8899435954045316  0.05660696701740161  1.0000
  C   C49       1.0  0.4067139086961831  0.46029019555351874  0.6370857359419021  1.0000
  C   C50       1.0  0.9067161318617494  0.03971182212503519  0.8629179625055627  1.0000
  C   C51       1.0  0.5932821678735323  0.539706875086459  0.36291440501711497  1.0000
  C   C52       1.0  0.0932851758088518  0.9602892283533038  0.1370814045636948  1.0000
  C   C53       1.0  0.23176078591727392  0.9532946624339544  0.7575900584640607  1.0000
  C   C54       1.0  0.7317588242021316  0.5467084057229384  0.7424117314611038  1.0000
  C   C55       1.0  0.7682373830927958  0.04670539308479249  0.2424091831797455  1.0000
  C   C56       1.0  0.2682403910281153  0.4532986145129385  0.2575864747735039  1.0000
  C   C57       1.0  0.3276656970478342  0.06462561026450689  0.7835023302310518  1.0000
  C   C58       1.0  0.827664781552869  0.4353774023736321  0.7164983046629702  1.0000
  C   C59       1.0  0.6723324719622354  0.9353754402138248  0.21649384785931153  1.0000
  C   C60       1.0  0.172336526117725  0.5646286229026529  0.2835016895335229  1.0000
  C   C61       1.0  0.5138405774388559  0.15945520880976718  0.8523964854808455  1.0000
  C   C62       1.0  0.0138414929338211  0.34054481894960276  0.6476075999115025  1.0000
  C   C63       1.0  0.48615131425015795  0.8405498215069258  0.1475995565155301  1.0000
  C   C64       1.0  0.98615981473678  0.6594562315287362  0.3523975073197505  1.0000
  C   C65       1.0  0.44588857698143874  0.257115467389248  0.8197774589080068  1.0000
  C   C66       1.0  0.9458876614864734  0.24288356541052988  0.6802252254673391  1.0000
  C   C67       1.0  0.5541054071479223  0.7428835931699069  0.18022038171879734  1.0000
  C   C68       1.0  0.0541136461841205  0.757117485067802  0.31977733058079855  1.0000
  O   O1        1.0  0.2544888730294659  0.842426315294105  0.780904544396286  1.0000
  O   O2        1.0  0.754490049974855  0.6575747629435966  0.7190957190864325  1.0000
  O   O3        1.0  0.7455072035402495  0.1575747351842267  0.2190948226729716  1.0000
  O   O4        1.0  0.2455133501361004  0.34242827745391924  0.28090198544638406  1.0000
  O   O5        1.0  0.12316208538640439  0.972499372444659  0.7133148025787293  1.0000
  O   O6        1.0  0.6231601236712621  0.5274937461163276  0.7866850952961856  1.0000
  O   O7        1.0  0.8768392222841898  0.0274937183569506  0.28668100990383755  1.0000
  O   O8        1.0  0.3768359528984533  0.47250332452365024  0.21331121888816537  1.0000
  O   O9        1.0  0.4436182791986454  0.04169477658837199  0.8312609260466316  1.0000
  O   O10       1.0  0.9436215485843887  0.45830724109018206  0.6687414968092752  1.0000
  O   O11       1.0  0.5563757049307156  0.958308263809144  0.16873869187351434  1.0000
  O   O12       1.0  0.056386036407268095  0.541696794266926  0.33126079771943034  1.0000
