data_image0
_chemical_formula_structural       Ag2H20C20N6O6
_chemical_formula_sum              "Ag2 H20 C20 N6 O6"
_cell_length_a       5.870397137811795
_cell_length_b       10.20885069835087
_cell_length_c       10.209811369043782
_cell_angle_alpha    87.28765450865244
_cell_angle_beta     79.3288237983235
_cell_angle_gamma    79.32824686228342

_space_group_name_H-M_alt    "P 1"
_space_group_IT_number       1

loop_
  _space_group_symop_operation_xyz
  'x, y, z'

loop_
  _atom_site_type_symbol
  _atom_site_label
  _atom_site_symmetry_multiplicity
  _atom_site_fract_x
  _atom_site_fract_y
  _atom_site_fract_z
  _atom_site_occupancy
  Ag  Ag1       1.0  0.25002370664958556  0.12278934508039899  0.877223665052263  1.0000
  Ag  Ag2       1.0  0.7499512285384069  0.8772170416888727  0.12278225074645376  1.0000
  H   H1        1.0  0.084481842857862  0.004576026028168197  0.6546975233353436  1.0000
  H   H2        1.0  0.41557475237166125  0.3452987336756266  0.9953952862345264  1.0000
  H   H3        1.0  0.9155267438147091  0.9954027049639645  0.34530079065349634  1.0000
  H   H4        1.0  0.5844375886215544  0.6546841871076411  0.004591712579070921  1.0000
  H   H5        1.0  0.23656968231170342  0.8342193319399982  0.4743653177136267  1.0000
  H   H6        1.0  0.2634899074832687  0.52565108702305  0.16576081612018365  1.0000
  H   H7        1.0  0.7634168798416068  0.165773211744586  0.5256358860289723  1.0000
  H   H8        1.0  0.736546422554575  0.47434290835019516  0.8342291238850948  1.0000
  H   H9        1.0  0.6531655186049647  0.7127672286304474  0.4523781553431122  1.0000
  H   H10       1.0  0.8469082995248199  0.547618200304221  0.2871950764399713  1.0000
  H   H11       1.0  0.3468289993131961  0.28723247250786693  0.5476151035535963  1.0000
  H   H12       1.0  0.15312661140685443  0.4523799170594741  0.7127860647109259  1.0000
  H   H13       1.0  0.8949438217296687  0.7573629464470741  0.6196805087685533  1.0000
  H   H14       1.0  0.60511137934904  0.3803181848243611  0.2426283631936386  1.0000
  H   H15       1.0  0.10504213727195828  0.242641582562797  0.3803203670658776  1.0000
  H   H16       1.0  0.39487397581125083  0.6196932583791508  0.7573772487366243  1.0000
  H   H17       1.0  0.7117372283726765  0.926315507817847  0.7969709421764649  1.0000
  H   H18       1.0  0.7883236657803464  0.20300355805647294  0.0736759773584978  1.0000
  H   H19       1.0  0.2882358819740673  0.07368091949623333  0.20303255694161496  1.0000
  H   H20       1.0  0.21167193345362273  0.7969980889034148  0.9263210200498904  1.0000
  C   C1        1.0  0.26136618793484  0.9454372549445295  0.6437348124147704  1.0000
  C   C2        1.0  0.2386686081766386  0.356281820284991  0.05456298374905089  1.0000
  C   C3        1.0  0.7386089684674033  0.0545582333591099  0.35626555928703857  1.0000
  C   C4        1.0  0.7613380793674478  0.6437127625149515  0.9454428511985855  1.0000
  C   C5        1.0  0.34834074926416736  0.8523782474227205  0.5432387713164389  1.0000
  C   C6        1.0  0.15167364650351797  0.4567972036571535  0.1476191359099772  1.0000
  C   C7        1.0  0.6516472478604098  0.14762028647493958  0.4567630618279922  1.0000
  C   C8        1.0  0.8483145272093398  0.5432212540500103  0.8523859438838953  1.0000
  C   C9        1.0  0.5793977894867411  0.7834823443083394  0.5324120130165895  1.0000
  C   C10       1.0  0.9206347402052798  0.46760344644661705  0.21651066300864846  1.0000
  C   C11       1.0  0.4206057720653292  0.2165213739437561  0.4675830828276375  1.0000
  C   C12       1.0  0.07935785616603404  0.532407080457503  0.7834922430176762  1.0000
  C   C13       1.0  0.713876911298719  0.8087905913744535  0.6244336085292376  1.0000
  C   C14       1.0  0.7861941295589074  0.375593095892917  0.19121134335319573  1.0000
  C   C15       1.0  0.28611632581809227  0.1912180173182776  0.3755643937858793  1.0000
  C   C16       1.0  0.213830470254763  0.6244406139475345  0.8087893292367385  1.0000
  C   C17       1.0  0.6139190721823694  0.9021995668553445  0.723338963861977  1.0000
  C   C18       1.0  0.8861451703253139  0.27665384715790253  0.09780689952708597  1.0000
  C   C19       1.0  0.386085635181999  0.0978008908177941  0.2766737479974566  1.0000
  C   C20       1.0  0.11384746881378045  0.7233515184353081  0.9022069461695923  1.0000
  N   N1        1.0  0.39132688961825574  0.9702753317232506  0.732666423380323  1.0000
  N   N2        1.0  0.1087354946113024  0.26730971112839086  0.029716977424897106  1.0000
  N   N3        1.0  0.6086617258334569  0.029716257921009487  0.26733263222373443  1.0000
  N   N4        1.0  0.8912948598414089  0.7326712519179354  0.9702740305144604  1.0000
  N   N5        1.0  0.7499994001756678  0.23210704407029673  0.7678905763576863  1.0000
  N   N6        1.0  0.2500027553767552  0.7678906238492189  0.23210780719559665  1.0000
  O   O1        1.0  0.9389437012070373  0.24083028308298535  0.6869214692241672  1.0000
  O   O2        1.0  0.5610497037438549  0.313081891402561  0.7591572301772302  1.0000
  O   O3        1.0  0.06105983723703184  0.7591633379954602  0.31308081679488003  1.0000
  O   O4        1.0  0.438954843586984  0.6869138257962393  0.2408390015762265  1.0000
  O   O5        1.0  0.7500120302596543  0.1415609369936419  0.8584507016012851  1.0000
  O   O6        1.0  0.24998637166176962  0.8584376122663712  0.141553933123248  1.0000
