data_image0
_chemical_formula_structural       Cu4H36C24N4O20
_chemical_formula_sum              "Cu4 H36 C24 N4 O20"
_cell_length_a       8.388091468167676
_cell_length_b       8.38655936253407
_cell_length_c       11.944306447627566
_cell_angle_alpha    89.9955004099319
_cell_angle_beta     90.02067179209826
_cell_angle_gamma    90.0262415317559

_space_group_name_H-M_alt    "P 1"
_space_group_IT_number       1

loop_
  _space_group_symop_operation_xyz
  'x, y, z'

loop_
  _atom_site_type_symbol
  _atom_site_label
  _atom_site_symmetry_multiplicity
  _atom_site_fract_x
  _atom_site_fract_y
  _atom_site_fract_z
  _atom_site_occupancy
  Cu  Cu1       1.0  0.9056736586992004  0.3034923739489627  0.11139451287125013  1.0000
  Cu  Cu2       1.0  0.09418661326603227  0.6963099047082721  0.6115962802564426  1.0000
  Cu  Cu3       1.0  0.6963165870399096  0.9058140618879877  0.8614920766953491  1.0000
  Cu  Cu4       1.0  0.3035052952687209  0.09408665193367231  0.3615989137562679  1.0000
  H   H1        1.0  0.0222750735805164  0.12037304152783435  0.9113374900081087  1.0000
  H   H2        1.0  0.9777560389541833  0.8795638790927427  0.41150147075347127  1.0000
  H   H3        1.0  0.8795566578870366  0.023248930342802506  0.6620010201194619  1.0000
  H   H4        1.0  0.12040230921637367  0.9767659382770121  0.16188973778665883  1.0000
  H   H5        1.0  0.41898004105520664  0.18749545544429222  0.11253329197774063  1.0000
  H   H6        1.0  0.5810799506687586  0.8127419742297166  0.6125137242896274  1.0000
  H   H7        1.0  0.8124462499564656  0.41895558963945956  0.8622276526166889  1.0000
  H   H8        1.0  0.18739743643099163  0.5809641332061375  0.36218949495143704  1.0000
  H   H9        1.0  0.5413351699823891  0.3531847232081447  0.07431512868298283  1.0000
  H   H10       1.0  0.4586861037405754  0.6469448808463272  0.5743741649635937  1.0000
  H   H11       1.0  0.6465876531734692  0.5411760763443425  0.8242529782821892  1.0000
  H   H12       1.0  0.35339873287392715  0.4589041168873679  0.32437828281752  1.0000
  H   H13       1.0  0.2872306633885273  0.4613760236517592  0.9050573902684534  1.0000
  H   H14       1.0  0.7127805054927734  0.5386104902703651  0.4050750940017168  1.0000
  H   H15       1.0  0.5386142122805707  0.2878495279203294  0.6551941893307645  1.0000
  H   H16       1.0  0.46138184239173097  0.7122185663202387  0.15523660211672316  1.0000
  H   H17       1.0  0.3087098546059154  0.43414798674032085  0.757377105809198  1.0000
  H   H18       1.0  0.6912957648828169  0.5658490711368386  0.25738535530553724  1.0000
  H   H19       1.0  0.5658495428208709  0.30908249441830554  0.5074739490269808  1.0000
  H   H20       1.0  0.4341242493015685  0.6909734884892628  0.007518165815575601  1.0000
  H   H21       1.0  0.44213966602355725  0.3341012240768535  0.8518635297187843  1.0000
  H   H22       1.0  0.5578596403076902  0.6658602352646169  0.3518006521050552  1.0000
  H   H23       1.0  0.6659211938133185  0.4427401609303486  0.6018207754483671  1.0000
  H   H24       1.0  0.33407365344163514  0.5573040897888718  0.10185119987966831  1.0000
  H   H25       1.0  0.1485522896513132  0.0230231621480499  0.7683457674189713  1.0000
  H   H26       1.0  0.8514506424414988  0.9769965132725961  0.26841713332960654  1.0000
  H   H27       1.0  0.9764680146553886  0.1485295547109331  0.5184343197796438  1.0000
  H   H28       1.0  0.023494655106475196  0.8514894411658958  0.018261859748967907  1.0000
  H   H29       1.0  0.3552494261434873  0.07190124552206363  0.7639400361402056  1.0000
  H   H30       1.0  0.6447667056664556  0.9281248951101659  0.26387132066970764  1.0000
  H   H31       1.0  0.9280298901023373  0.3552781482740102  0.5135046626601751  1.0000
  H   H32       1.0  0.0719517269322409  0.6447449756363922  0.013411964141838003  1.0000
  H   H33       1.0  0.21998383134084779  0.173753847263896  0.6730784881786249  1.0000
  H   H34       1.0  0.7800428606761257  0.8262717143808943  0.1731132802249817  1.0000
  H   H35       1.0  0.825564971440386  0.21967611981044402  0.42323568040841775  1.0000
  H   H36       1.0  0.17436490597553705  0.7803202740762389  0.9231358172401444  1.0000
  C   C1        1.0  0.6124905652381331  0.2450552518702835  0.22543426442196338  1.0000
  C   C2        1.0  0.387714456093427  0.7550861231332464  0.7254458974390945  1.0000
  C   C3        1.0  0.7552371614048851  0.6123098820203979  0.9751961062729609  1.0000
  C   C4        1.0  0.24492570374759032  0.38770698167878953  0.4752434151123597  1.0000
  C   C5        1.0  0.09912702733696219  0.22616060520030604  0.9196629158729197  1.0000
  C   C6        1.0  0.9008570912620968  0.7738016097525318  0.4197697186051102  1.0000
  C   C7        1.0  0.7738276431920497  0.1000829594298125  0.670247188732752  1.0000
  C   C8        1.0  0.2261248429905791  0.8999130968771144  0.17019622550599686  1.0000
  C   C9        1.0  0.5417425502057399  0.23067858325975277  0.10796052717883244  1.0000
  C   C10       1.0  0.4583246223095898  0.7694544256357647  0.6080076901572157  1.0000
  C   C11       1.0  0.769178504140747  0.5416959169904416  0.8577672965752614  1.0000
  C   C12       1.0  0.23079167648986504  0.4582744089940365  0.3578096703123494  1.0000
  C   C13       1.0  0.3193924443892087  0.3766347704387414  0.8395221105287691  1.0000
  C   C14       1.0  0.6806124631782425  0.6233495290263349  0.339521972560334  1.0000
  C   C15       1.0  0.6233272079707106  0.3199298341896224  0.5896263453201628  1.0000
  C   C16       1.0  0.37665660022285863  0.6801133930894283  0.08964153232248863  1.0000
  C   C17       1.0  0.2340212346145094  0.12029066551514231  0.7564762857825758  1.0000
  C   C18       1.0  0.766005388934033  0.8797196130100603  0.25650373840005614  1.0000
  C   C19       1.0  0.8793658992834705  0.2340567820259096  0.5065035265685368  1.0000
  C   C20       1.0  0.1205989997623007  0.7659671220551872  0.006384656711986702  1.0000
  C   C21       1.0  0.6368753820111834  0.13172276257910204  0.025824027099531608  1.0000
  C   C22       1.0  0.3628765787105479  0.868307265292259  0.525967183813073  1.0000
  C   C23       1.0  0.8678846165247123  0.6370256065044302  0.7755036605969893  1.0000
  C   C24       1.0  0.13225663841333807  0.36276794391346096  0.27550370778431704  1.0000
  N   N1        1.0  0.21150327392264504  0.240797341488836  0.8426726914582546  1.0000
  N   N2        1.0  0.788484192632623  0.7591997155006142  0.34271834622723674  1.0000
  N   N3        1.0  0.7590982673561512  0.21210243341782592  0.5929593883036689  1.0000
  N   N4        1.0  0.24088961645037438  0.7879487740016418  0.09288400757620963  1.0000
  O   O1        1.0  0.763979038014753  0.2632338165524929  0.23665661431349605  1.0000
  O   O2        1.0  0.23636858868376004  0.7357163347017277  0.7367163238020712  1.0000
  O   O3        1.0  0.7364909737810733  0.7637138944832101  0.9865087600761487  1.0000
  O   O4        1.0  0.2630959240508943  0.23623837404099393  0.48660090593065775  1.0000
  O   O5        1.0  0.7887686725905141  0.14714444819790629  0.01892489922084911  1.0000
  O   O6        1.0  0.21097746723764027  0.8530329964372432  0.5193594529393692  1.0000
  O   O7        1.0  0.8523848973477898  0.7889405295787884  0.7685770585943602  1.0000
  O   O8        1.0  0.14792210484910837  0.2109003342072313  0.26860868118298953  1.0000
  O   O9        1.0  0.07755962852002089  0.32607785161454234  0.9979516388106052  1.0000
  O   O10       1.0  0.9223824585860212  0.6738577164277046  0.4980761052517126  1.0000
  O   O11       1.0  0.6740835956661044  0.07865721535814883  0.7486666585266664  1.0000
  O   O12       1.0  0.32582216139243775  0.9212513628904234  0.24870256787863104  1.0000
  O   O13       1.0  0.5211023864914425  0.24424747853348086  0.30857530215723034  1.0000
  O   O14       1.0  0.47887384129098365  0.7569946509667034  0.8087631914746541  1.0000
  O   O15       1.0  0.7569787726567228  0.5210010435900045  0.058429817445933514  1.0000
  O   O16       1.0  0.24400235414419308  0.4791627568733363  0.5583682510902221  1.0000
  O   O17       1.0  0.5598015717155533  0.036741334706889  0.9632694041935468  1.0000
  O   O18       1.0  0.4397447117457887  0.9631562980583155  0.46317450893747053  1.0000
  O   O19       1.0  0.9627413545246879  0.5598892583976322  0.7129381925170082  1.0000
  O   O20       1.0  0.0372520183805918  0.4396417793741351  0.21281450583699524  1.0000
