data_image0
_chemical_formula_structural       Cu2H12C18I4N12
_chemical_formula_sum              "Cu2 H12 C18 I4 N12"
_cell_length_a       4.415947454701964
_cell_length_b       11.945317559446362
_cell_length_c       12.239354574402224
_cell_angle_alpha    74.2190149751927
_cell_angle_beta     86.03426371629541
_cell_angle_gamma    81.619994384366

_space_group_name_H-M_alt    "P 1"
_space_group_IT_number       1

loop_
  _space_group_symop_operation_xyz
  'x, y, z'

loop_
  _atom_site_type_symbol
  _atom_site_label
  _atom_site_symmetry_multiplicity
  _atom_site_fract_x
  _atom_site_fract_y
  _atom_site_fract_z
  _atom_site_occupancy
  Cu  Cu1       1.0  0.8775279526514982  0.9149510870829117  0.5604884397243952  1.0000
  Cu  Cu2       1.0  0.12249260415308781  0.0850474166055264  0.43950896366398956  1.0000
  H   H1        1.0  0.7783769679084858  0.553692662744524  0.2675919598378727  1.0000
  H   H2        1.0  0.22157223072799337  0.4463023009792195  0.7324047559304959  1.0000
  H   H3        1.0  0.5239368210051865  0.5561435152371246  0.8690840423959758  1.0000
  H   H4        1.0  0.4760508887261778  0.4438646441664745  0.1309083613721214  1.0000
  H   H5        1.0  0.4800858513622759  0.0494384107311276  0.8684215910321171  1.0000
  H   H6        1.0  0.5199338731254957  0.9505556332052976  0.13158679018251007  1.0000
  H   H7        1.0  0.19189138665933586  0.9865970268347082  0.7017649777834976  1.0000
  H   H8        1.0  0.808132594063409  0.013397915522325797  0.2982406205329299  1.0000
  H   H9        1.0  0.5580774250210185  0.6815710076475127  0.6419838236186949  1.0000
  H   H10       1.0  0.4419288498283933  0.31844242067283096  0.3580084181508738  1.0000
  H   H11       1.0  0.11045448209480926  0.742562304496417  0.20603290329668766  1.0000
  H   H12       1.0  0.8895204858753234  0.25742996285647723  0.7939753476078906  1.0000
  C   C1        1.0  0.8287443627957888  0.6077713048343654  0.18335401463419737  1.0000
  C   C2        1.0  0.1712209956204519  0.3922227694886116  0.8166458224207532  1.0000
  C   C3        1.0  0.8265735782130792  0.6678829496307017  0.002023851614772799  1.0000
  C   C4        1.0  0.1734154982666142  0.33211464166638643  0.997976156408406  1.0000
  C   C5        1.0  0.6280593209890527  0.6347189228498349  0.826857306704092  1.0000
  C   C6        1.0  0.3719360442629521  0.365286556144568  0.17314296538369692  1.0000
  C   C7        1.0  0.34063455742935417  0.9798121912848711  0.8763448530299485  1.0000
  C   C8        1.0  0.6593794245168781  0.020185377335835097  0.12366029921134473  1.0000
  C   C9        1.0  0.8877571536318318  0.7860187674849327  0.8089145021797108  1.0000
  C   C10       1.0  0.1122502054840951  0.21398498784893144  0.19108266769671906  1.0000
  C   C11       1.0  0.11453549381711539  0.8323405402184818  0.9632849947532166  1.0000
  C   C12       1.0  0.8854607270911716  0.1676622592486439  0.0367224870159504  1.0000
  C   C13       1.0  0.20032624862053464  0.9510165126965259  0.7929564438476363  1.0000
  C   C14       1.0  0.7996746903497965  0.04897926161515899  0.20705356217674623  1.0000
  C   C15       1.0  0.6473942505966052  0.6978402460145503  0.7156826392478237  1.0000
  C   C16       1.0  0.3526177421618471  0.30216964012310393  0.28431528778494203  1.0000
  C   C17       1.0  0.9935779465156005  0.7012058329614278  0.15586707915147002  1.0000
  C   C18       1.0  0.006404305467249633  0.2987917417191639  0.844134726523251  1.0000
  I   I1        1.0  0.35610146110133234  0.8701091016901827  0.4391182945945999  1.0000
  I   I2        1.0  0.6439046731615792  0.12989210662058068  0.560867306782626  1.0000
  I   I3        1.0  0.11162647424966125  0.6104324098050993  0.4793810025671591  1.0000
  I   I4        1.0  0.8884037883275868  0.3895775711941596  0.5206050347796918  1.0000
  N   N1        1.0  0.052634393071571244  0.8549962125230194  0.8487522863970157  1.0000
  N   N2        1.0  0.947379265338697  0.1450022220536979  0.151254283512479  1.0000
  N   N3        1.0  0.7824672062354096  0.6917367664742855  0.8866516238650847  1.0000
  N   N4        1.0  0.21753377147786077  0.3082722512886775  0.11334433361113129  1.0000
  N   N5        1.0  0.9923486623818008  0.7401172927886392  0.037981897626544  1.0000
  N   N6        1.0  0.007649458688149568  0.2598802817784146  0.9620211719498215  1.0000
  N   N7        1.0  0.2876124821099709  0.9045957798643729  0.9826026350244846  1.0000
  N   N8        1.0  0.7123907344295831  0.09540000193041458  0.017406498861625215  1.0000
  N   N9        1.0  0.7248359532297005  0.587252238306405  0.08673671660775277  1.0000
  N   N10       1.0  0.2751422688171986  0.4127506587816255  0.9132556356589063  1.0000
  N   N11       1.0  0.8086813169618812  0.7928451408736519  0.7043883354721885  1.0000
  N   N12       1.0  0.19133355938358682  0.207162991671062  0.29560997790231625  1.0000
