data_image0
_chemical_formula_structural       Cd2H30C24N2O10
_chemical_formula_sum              "Cd2 H30 C24 N2 O10"
_cell_length_a       5.825271119075227
_cell_length_b       9.764893017920455
_cell_length_c       11.847502261541374
_cell_angle_alpha    102.13625465817162
_cell_angle_beta     103.76075735388976
_cell_angle_gamma    93.04683415762784

_space_group_name_H-M_alt    "P 1"
_space_group_IT_number       1

loop_
  _space_group_symop_operation_xyz
  'x, y, z'

loop_
  _atom_site_type_symbol
  _atom_site_label
  _atom_site_symmetry_multiplicity
  _atom_site_fract_x
  _atom_site_fract_y
  _atom_site_fract_z
  _atom_site_occupancy
  Cd  Cd1       1.0  0.21341540257176211  0.594592412530382  0.7544789503743843  1.0000
  Cd  Cd2       1.0  0.7865747513178222  0.4054116224121742  0.24551803986503978  1.0000
  H   H1        1.0  0.6225780366902853  0.04601641750858221  0.9357805458558771  1.0000
  H   H2        1.0  0.37745252317697003  0.9539787328463514  0.06422573220526559  1.0000
  H   H3        1.0  0.8574601099817728  0.9408035201333219  0.9420254005368989  1.0000
  H   H4        1.0  0.1425542276810035  0.0591896653311395  0.057971836037694395  1.0000
  H   H5        1.0  0.09202366627574331  0.9135573188050545  0.7922014318519855  1.0000
  H   H6        1.0  0.9079949907210434  0.0864474130291626  0.20779489500539938  1.0000
  H   H7        1.0  0.2152839549908308  0.007735980968917002  0.6343879276484401  1.0000
  H   H8        1.0  0.7847201716376305  0.992258322113095  0.36559897992790263  1.0000
  H   H9        1.0  0.9873625388460853  0.18204497313846696  0.543295282251357  1.0000
  H   H10       1.0  0.012631666101832233  0.8179526248779682  0.45669267135099995  1.0000
  H   H11       1.0  0.5078972355137025  0.16572676847140846  0.7670402140185144  1.0000
  H   H12       1.0  0.4921126978515602  0.8342707036403496  0.23295890149741172  1.0000
  H   H13       1.0  0.44993939457793186  0.21587033751711723  0.5039657200227765  1.0000
  H   H14       1.0  0.5500319606745592  0.7841297975286848  0.49604522648967725  1.0000
  H   H15       1.0  0.6949462976214917  0.3431124395885022  0.5446538827655303  1.0000
  H   H16       1.0  0.3050239723592583  0.6568812554360123  0.45533727759111287  1.0000
  H   H17       1.0  0.3052310772498145  0.42742663530106034  0.9773044325636276  1.0000
  H   H18       1.0  0.6947680821282773  0.5725783663797799  0.022696339608415914  1.0000
  H   H19       1.0  0.10271453328847711  0.3111955808578132  0.8541569729252387  1.0000
  H   H20       1.0  0.8972848665946316  0.6888104689244088  0.145843160766141  1.0000
  H   H21       1.0  0.049054421628710494  0.27096128725395363  0.04963539021069607  1.0000
  H   H22       1.0  0.9509485046911338  0.7290447213308581  0.9503651621008584  1.0000
  H   H23       1.0  0.7898936730059345  0.32242041826643225  0.9640449229544997  1.0000
  H   H24       1.0  0.21010683246590395  0.6775824395748985  0.035953118160413994  1.0000
  H   H25       1.0  0.814199579463356  0.6153662992681248  0.5528467410914928  1.0000
  H   H26       1.0  0.1858008621230596  0.384636585611247  0.4471555173519518  1.0000
  H   H27       1.0  0.7413649709972036  0.6928953884451586  0.6722876331539922  1.0000
  H   H28       1.0  0.2586291136766405  0.3071107339483987  0.3277135595385231  1.0000
  H   H29       1.0  0.8510379601595304  0.49081258670227607  0.8358535776606502  1.0000
  H   H30       1.0  0.14896028830681726  0.5091882009426029  0.16414637457119594  1.0000
  C   C1        1.0  0.5334134610429828  0.8358559729418076  0.8293679878721035  1.0000
  C   C2        1.0  0.4665938237463365  0.16413729491747384  0.1706284114621326  1.0000
  C   C3        1.0  0.7054531595022481  0.9698936372505712  0.8796987568520364  1.0000
  C   C4        1.0  0.2945654463861942  0.0301111162140728  0.12030094386816609  1.0000
  C   C5        1.0  0.7887864874817935  0.03170595893842431  0.7884728410683193  1.0000
  C   C6        1.0  0.21121975334462928  0.9682916246696326  0.21153682088160508  1.0000
  C   C7        1.0  0.9900863443378186  0.9890524769043196  0.7516841243834234  1.0000
  C   C8        1.0  0.009917687570748498  0.0109503397396011  0.2483143353516724  1.0000
  C   C9        1.0  0.060298431911611806  0.0428603061767987  0.6636521992817066  1.0000
  C   C10       1.0  0.9396965434001101  0.9571415653592721  0.3363458523836015  1.0000
  C   C11       1.0  0.9314472368410307  0.14031093849686016  0.6120803441816207  1.0000
  C   C12       1.0  0.0685458444607719  0.8596983325767272  0.38791619336171823  1.0000
  C   C13       1.0  0.7295626051190284  0.18483173046798382  0.6476074783629996  1.0000
  C   C14       1.0  0.27043258066746734  0.815155404820878  0.3523965567888751  1.0000
  C   C15       1.0  0.6620147999667624  0.13055110068488318  0.7367787797096027  1.0000
  C   C16       1.0  0.3379834154486332  0.8694412274741624  0.26321805502054463  1.0000
  C   C17       1.0  0.5823928251854511  0.28025395800059283  0.5822783202261589  1.0000
  C   C18       1.0  0.4175973700561002  0.7197427358563998  0.41772587908508285  1.0000
  C   C19       1.0  0.4548622506517929  0.38494896180287697  0.6519139967888491  1.0000
  C   C20       1.0  0.5451276244015162  0.615054041261125  0.3480861623283502  1.0000
  C   C21       1.0  0.11612010063333139  0.3998710248243427  0.9305247550470738  1.0000
  C   C22       1.0  0.8838790715218466  0.6001339714488907  0.06947517365925647  1.0000
  C   C23       1.0  0.9752089995609765  0.35865596329703214  0.013792107781348824  1.0000
  C   C24       1.0  0.02479476628840162  0.6413458160607207  0.9862086773658162  1.0000
  N   N1        1.0  0.025259242401510614  0.5222482787287748  0.8852367310789687  1.0000
  N   N2        1.0  0.974734159088534  0.4777546831378102  0.11476384665840555  1.0000
  O   O1        1.0  0.5109817756954769  0.7640289577451185  0.7231391418210364  1.0000
  O   O2        1.0  0.48901466594094256  0.23598034242995425  0.2768687793966578  1.0000
  O   O3        1.0  0.41503153780332985  0.7977054412406944  0.8974867734939664  1.0000
  O   O4        1.0  0.5849802384635084  0.20228465296396084  0.10251723000674669  1.0000
  O   O5        1.0  0.5292627610632294  0.430928639934642  0.7639784877950148  1.0000
  O   O6        1.0  0.4707342540435421  0.5690753937271964  0.23603199167035877  1.0000
  O   O7        1.0  0.2700158175757538  0.429467808262487  0.5924545320074656  1.0000
  O   O8        1.0  0.7299828607922906  0.5705350972155826  0.4075475171258915  1.0000
  O   O9        1.0  0.8627475825261257  0.638245763757375  0.642530003777537  1.0000
  O   O10       1.0  0.1372469373297278  0.3617540007607118  0.3574676379176792  1.0000
