data_image0
_chemical_formula_structural       Tb2Ag2H20C40N12O16
_chemical_formula_sum              "Tb2 Ag2 H20 C40 N12 O16"
_cell_length_a       9.140733853624376
_cell_length_b       11.051807847351352
_cell_length_c       11.051801972594072
_cell_angle_alpha    99.9972359997868
_cell_angle_beta     106.35795185755885
_cell_angle_gamma    106.35813527384869

_space_group_name_H-M_alt    "P 1"
_space_group_IT_number       1

loop_
  _space_group_symop_operation_xyz
  'x, y, z'

loop_
  _atom_site_type_symbol
  _atom_site_label
  _atom_site_symmetry_multiplicity
  _atom_site_fract_x
  _atom_site_fract_y
  _atom_site_fract_z
  _atom_site_occupancy
  Tb  Tb1       1.0  0.7499986609914941  0.09292229830032991  0.90707545826055  1.0000
  Tb  Tb2       1.0  0.24999988296580275  0.9070745668889589  0.09292637483525826  1.0000
  Ag  Ag1       1.0  0.7500016899995501  0.36551453480694107  0.6344868915759887  1.0000
  Ag  Ag2       1.0  0.2500000934449816  0.6344872071836749  0.36551288922044006  1.0000
  H   H1        1.0  0.3761649528959267  0.3368531137600926  0.8217575015403538  1.0000
  H   H2        1.0  0.12383507409406751  0.17824204013304984  0.6631466683559921  1.0000
  H   H3        1.0  0.6238321322719358  0.6631456734499181  0.17823979092850092  1.0000
  H   H4        1.0  0.8761661609268856  0.8217557880143574  0.3368532350432147  1.0000
  H   H5        1.0  0.8825796721540087  0.5709394557555285  0.9394938145429705  1.0000
  H   H6        1.0  0.6174204151764613  0.06050679461738179  0.42905913652990785  1.0000
  H   H7        1.0  0.11742055638455896  0.42906131797411734  0.06050725352110221  1.0000
  H   H8        1.0  0.3825793802315118  0.9394929841208537  0.5709398548883441  1.0000
  H   H9        1.0  0.5220453928813241  0.7536167695932932  0.8527269907456584  1.0000
  H   H10       1.0  0.9779569285692773  0.14727539309734541  0.24638243714897345  1.0000
  H   H11       1.0  0.47795084520178227  0.24638005620401063  0.14726977707756814  1.0000
  H   H12       1.0  0.022048416994223868  0.852729308976734  0.7536204744039805  1.0000
  H   H13       1.0  0.12182680601587488  0.37231832488239286  0.8299717378554161  1.0000
  H   H14       1.0  0.3781729641156417  0.1700283809217282  0.6276812099953302  1.0000
  H   H15       1.0  0.8781734033462457  0.6276824202771397  0.1700257015626505  1.0000
  H   H16       1.0  0.6218284005806253  0.8299723875050662  0.3723192156397771  1.0000
  H   H17       1.0  0.2931838733277701  0.6816534902433845  0.6691152436371296  1.0000
  H   H18       1.0  0.20681873204202358  0.33088565133052583  0.3183495643738324  1.0000
  H   H19       1.0  0.7068144824672161  0.3183482390856796  0.3308828358001746  1.0000
  H   H20       1.0  0.7931842115307716  0.6691161210698768  0.6816541098011297  1.0000
  C   C1        1.0  0.429883703672722  0.5430504975422252  0.8280907703030137  1.0000
  C   C2        1.0  0.0701163009997217  0.1719113898342925  0.4569501875576448  1.0000
  C   C3        1.0  0.5701122261609869  0.4569482664005235  0.1719035359488003  1.0000
  C   C4        1.0  0.9298856265024608  0.8280933138632917  0.5430528369591839  1.0000
  C   C5        1.0  0.46912157322653053  0.4323364507616533  0.842966037148713  1.0000
  C   C6        1.0  0.030879302320307986  0.1570340646729633  0.5676638033660452  1.0000
  C   C7        1.0  0.5308766480990242  0.567662331145499  0.15703061289118375  1.0000
  C   C8        1.0  0.9691232081218857  0.8429667127360292  0.4323377941631036  1.0000
  C   C9        1.0  0.6327187351564376  0.44280892926591514  0.884844552782958  1.0000
  C   C10       1.0  0.8672848835897256  0.11516023985520007  0.5571907980850526  1.0000
  C   C11       1.0  0.36728335174337445  0.5571908674367309  0.11515678242337658  1.0000
  C   C12       1.0  0.1327156292276755  0.8848385600163555  0.4428081957429271  1.0000
  C   C13       1.0  0.7553111278631589  0.5635976760688521  0.9107528025329824  1.0000
  C   C14       1.0  0.7446911264121708  0.08924934240476999  0.4363999512517294  1.0000
  C   C15       1.0  0.24468723752005414  0.43640406754527555  0.08924709122732105  1.0000
  C   C16       1.0  0.25531136485356126  0.9107514064341159  0.5635980176314205  1.0000
  C   C17       1.0  0.7140926946674497  0.6751263930555781  0.8999714909941828  1.0000
  C   C18       1.0  0.7859086021852946  0.10003461973961691  0.3248739999522313  1.0000
  C   C19       1.0  0.28590324954860336  0.32487239231475934  0.10002553674213023  1.0000
  C   C20       1.0  0.21409429248872405  0.8999749713650047  0.6751282571231412  1.0000
  C   C21       1.0  0.5508766867679639  0.6653040465451099  0.8601242791715149  1.0000
  C   C22       1.0  0.9491239890523674  0.13987801609275147  0.33469592977890267  1.0000
  C   C23       1.0  0.4491188386998246  0.3346937652613988  0.13987339340348368  1.0000
  C   C24       1.0  0.050877514907440996  0.8601257068984866  0.6653068324151191  1.0000
  C   C25       1.0  0.1264364676317412  0.44610339192374937  0.7765857470400375  1.0000
  C   C26       1.0  0.3735633122935623  0.22341561040054367  0.5538972543781213  1.0000
  C   C27       1.0  0.8735597752454822  0.5538934410160863  0.2234119279446886  1.0000
  C   C28       1.0  0.6264407674369251  0.7765861566970075  0.44610577736788304  1.0000
  C   C29       1.0  0.21103891215211948  0.6065904863801634  0.6940740372613803  1.0000
  C   C30       1.0  0.28896179306774167  0.30592593301415155  0.3934096773399744  1.0000
  C   C31       1.0  0.7889627464112082  0.39340832247359714  0.3059261284606407  1.0000
  C   C32       1.0  0.7110387245437763  0.6940728739999359  0.6065902236495047  1.0000
  C   C33       1.0  0.6729277008814093  0.321601440721345  0.8954620210014637  1.0000
  C   C34       1.0  0.8270712036990489  0.10453809064922129  0.6783980418864601  1.0000
  C   C35       1.0  0.32706882148053035  0.6783934112178686  0.10453267258567678  1.0000
  C   C36       1.0  0.17292986713015768  0.8954646373505993  0.3216026436617411  1.0000
  C   C37       1.0  0.8426568504028323  0.8048449690925141  0.9198131415132307  1.0000
  C   C38       1.0  0.657346171432806  0.08018843144196809  0.19515784465580305  1.0000
  C   C39       1.0  0.15733955091438645  0.19515484698187177  0.0801904986764015  1.0000
  C   C40       1.0  0.3426569363317282  0.9198084411060206  0.8048450473701647  1.0000
  N   N1        1.0  0.2640642614033197  0.5319322711147336  0.7720099736430441  1.0000
  N   N2        1.0  0.23593722919331842  0.22798984814213702  0.4680685452443851  1.0000
  N   N3        1.0  0.7359339551281181  0.46806650364989366  0.227985769235353  1.0000
  N   N4        1.0  0.7640661283336243  0.7720128906795624  0.531933576930399  1.0000
  N   N5        1.0  0.9993087532088013  0.46911546722209624  0.705821041190525  1.0000
  N   N6        1.0  0.5006902747297203  0.2941788393977163  0.5308845118449455  1.0000
  N   N7        1.0  0.0006890541626133844  0.5308823482637665  0.29417716084955703  1.0000
  N   N8        1.0  0.4993126688430749  0.7058229330026863  0.4691191623300241  1.0000
  N   N9        1.0  0.05184042900253159  0.5708883438705287  0.6535684328985808  1.0000
  N   N10       1.0  0.44815956270360147  0.3464320288100637  0.4291109750616115  1.0000
  N   N11       1.0  0.9481623801008326  0.42911048110796923  0.34643381187898104  1.0000
  N   N12       1.0  0.5518409644961437  0.6535667924890801  0.570890740250867  1.0000
  O   O1        1.0  0.5588706254933768  0.2156252144354198  0.8790342619957199  1.0000
  O   O2        1.0  0.9411273191370527  0.12096475785736523  0.7843734725744722  1.0000
  O   O3        1.0  0.44112718667214773  0.7843726081929675  0.12096484720586177  1.0000
  O   O4        1.0  0.0588696507378331  0.8790311105008403  0.2156260191429809  1.0000
  O   O5        1.0  0.8202274692599117  0.3267256868270536  0.9186936517323472  1.0000
  O   O6        1.0  0.6797689009358053  0.0813079581917293  0.6732706212423308  1.0000
  O   O7        1.0  0.1797734910704349  0.6732741294635006  0.081310140225952  1.0000
  O   O8        1.0  0.3202268992225897  0.9186878654716326  0.32672316277357527  1.0000
  O   O9        1.0  0.9864166449497348  0.8063391811312925  0.9381113049587525  1.0000
  O   O10       1.0  0.513585833280409  0.06189056122210701  0.19366218065989216  1.0000
  O   O11       1.0  0.013574624960213605  0.1936566851710779  0.06188777025749907  1.0000
  O   O12       1.0  0.48642366693029954  0.9381131889319005  0.8063442489849134  1.0000
  O   O13       1.0  0.7963272144310026  0.9014735053510278  0.9090204567521523  1.0000
  O   O14       1.0  0.7036690809387806  0.0909792974741634  0.09852550877249658  1.0000
  O   O15       1.0  0.2036625918953945  0.0985242758295328  0.09097317067564599  1.0000
  O   O16       1.0  0.29633312604812534  0.9090234252228055  0.9014745343467393  1.0000
