data_image0
_chemical_formula_structural       Zn2H8C40N10O8
_chemical_formula_sum              "Zn2 H8 C40 N10 O8"
_cell_length_a       14.32677887481807
_cell_length_b       14.152068115569728
_cell_length_c       15.328786395428585
_cell_angle_alpha    89.99553186594709
_cell_angle_beta     91.29682370903386
_cell_angle_gamma    89.9972211875465

_space_group_name_H-M_alt    "P 1"
_space_group_IT_number       1

loop_
  _space_group_symop_operation_xyz
  'x, y, z'

loop_
  _atom_site_type_symbol
  _atom_site_label
  _atom_site_symmetry_multiplicity
  _atom_site_fract_x
  _atom_site_fract_y
  _atom_site_fract_z
  _atom_site_occupancy
  Zn  Zn1       1.0  0.500005753437634  0.4019066459107918  0.4999954441768962  1.0000
  Zn  Zn2       1.0  0.4999767159474616  0.5983132782301723  0.5000269942187643  1.0000
  H   H1        1.0  0.36338820525755733  0.9314175783890377  0.4364642487090434  1.0000
  H   H2        1.0  0.5842828916360574  0.06903653620559422  0.6191426729574161  1.0000
  H   H3        1.0  0.6366323271722509  0.9313554359483406  0.5635671608115658  1.0000
  H   H4        1.0  0.4157982792450597  0.06903801022061633  0.3808537109238158  1.0000
  H   H5        1.0  0.6425815770302423  0.44988446277095323  0.0672089647018481  1.0000
  H   H6        1.0  0.6467138420573093  0.5358457867698407  0.9454833927772055  1.0000
  H   H7        1.0  0.3574074643416481  0.4502327803261395  0.9329132155924214  1.0000
  H   H8        1.0  0.3535271044770526  0.5363713829080156  0.0544340349992822  1.0000
  C   C1        1.0  0.49333291798676293  0.49860743320734713  0.3313269094162763  1.0000
  C   C2        1.0  0.5066203658874715  0.4984786736339829  0.6686972670584551  1.0000
  C   C3        1.0  0.3219559902828877  0.500985740427595  0.5047908195727544  1.0000
  C   C4        1.0  0.6780277533877669  0.5010522920067971  0.49521645179440543  1.0000
  C   C5        1.0  0.4251223543973098  0.8968280324221927  0.46416362195112976  1.0000
  C   C6        1.0  0.547249214633034  0.10378110205807195  0.5652729814384969  1.0000
  C   C7        1.0  0.5748906304884047  0.8967932514956375  0.5358812494624201  1.0000
  C   C8        1.0  0.4528276165398781  0.10378788093201761  0.43470838088027347  1.0000
  C   C9        1.0  0.42772070851748384  0.7978085835555929  0.4648428691737294  1.0000
  C   C10       1.0  0.545802433940118  0.20276162461122743  0.563104799825062  1.0000
  C   C11       1.0  0.5722280559206755  0.7977773342258915  0.5352439166596028  1.0000
  C   C12       1.0  0.4542863553503056  0.20276923857191062  0.43686565514121156  1.0000
  C   C13       1.0  0.22211220232141227  0.5038080966635264  0.5048345023706133  1.0000
  C   C14       1.0  0.7778844621823497  0.5038750457630883  0.4951372021997499  1.0000
  C   C15       1.0  0.13649563400930026  0.5057243905483945  0.5030381674060322  1.0000
  C   C16       1.0  0.8634924308952779  0.5057673818647145  0.4969127648268169  1.0000
  C   C17       1.0  0.04308021192040461  0.5067765578436508  0.5009874316681362  1.0000
  C   C18       1.0  0.956907759840526  0.5067905295614353  0.49896132932040865  1.0000
  C   C19       1.0  0.500013037084237  0.9480989053576965  0.5000081741380029  1.0000
  C   C20       1.0  0.5000384921728555  0.05253085184278212  0.5000017997930044  1.0000
  C   C21       1.0  0.5782120569408279  0.4706527037230687  0.0985193647063767  1.0000
  C   C22       1.0  0.5835149723842579  0.5170633127342726  0.9085522327167153  1.0000
  C   C23       1.0  0.4218162843843416  0.47076733462051834  0.901547777801305  1.0000
  C   C24       1.0  0.4166523016738212  0.517428630831077  0.09141531674183767  1.0000
  C   C25       1.0  0.576150158083607  0.47085452245961096  0.1899330462781208  1.0000
  C   C26       1.0  0.5861897516551482  0.5180740320409427  0.8171295387054867  1.0000
  C   C27       1.0  0.4238251408514345  0.4709287144998485  0.8101441683342898  1.0000
  C   C28       1.0  0.4139124962862937  0.5184748551128779  0.18283333572302501  1.0000
  C   C29       1.0  0.4941993716117851  0.4962057144329394  0.2333800384007887  1.0000
  C   C30       1.0  0.5057945718045502  0.4960379898372624  0.7666329906634671  1.0000
  C   C31       1.0  0.4987510397493012  0.49433718662634624  0.04821155420614079  1.0000
  C   C32       1.0  0.5013694293658376  0.49426393951829084  0.9518054924962127  1.0000
  C   C33       1.0  0.3486944799190752  0.7510507415846136  0.4254488032045883  1.0000
  C   C34       1.0  0.5953362214497349  0.25047471188801046  0.6325827336315797  1.0000
  C   C35       1.0  0.6512053365922346  0.7509820673470815  0.5747066706856926  1.0000
  C   C36       1.0  0.4047590288669413  0.2504959126440482  0.36737742005730917  1.0000
  C   C37       1.0  0.659299236955569  0.4450394847139593  0.2376358727384087  1.0000
  C   C38       1.0  0.6730585746072606  0.5384406142443299  0.7769654387059433  1.0000
  C   C39       1.0  0.3405798277270265  0.44537599613194356  0.7624611288524716  1.0000
  C   C40       1.0  0.3270256157872924  0.53904150988123  0.2229009280017635  1.0000
  N   N1        1.0  0.49996356795788466  0.7480687777107564  0.5000525226582297  1.0000
  N   N2        1.0  0.5000426544439736  0.25235535695589567  0.4999781625848883  1.0000
  N   N3        1.0  0.2795295475824347  0.7271235522046241  0.3903342768604502  1.0000
  N   N4        1.0  0.6375916836120085  0.2778315196435344  0.6934205821131201  1.0000
  N   N5        1.0  0.720309740827027  0.7270342789387952  0.6099221807779427  1.0000
  N   N6        1.0  0.3625124380682152  0.27787103490142334  0.3065341337549937  1.0000
  N   N7        1.0  0.7290505827887304  0.4236715406177182  0.2732714674952135  1.0000
  N   N8        1.0  0.7464535551529681  0.5524199498503323  0.7479764468131334  1.0000
  N   N9        1.0  0.2707854564077011  0.4242208253316235  0.726786686599908  1.0000
  N   N10       1.0  0.2536025935888233  0.5531400457606142  0.2517775816650243  1.0000
  O   O1        1.0  0.5178185279986709  0.42241192411381695  0.369073773627079  1.0000
  O   O2        1.0  0.5300525460186736  0.575711167331612  0.6335600909508798  1.0000
  O   O3        1.0  0.4821556973309101  0.42230917062690315  0.6309265903747843  1.0000
  O   O4        1.0  0.4698768956121883  0.5757933615137106  0.3664804581074178  1.0000
  O   O5        1.0  0.3598527009299702  0.4235542251734473  0.4819745243145589  1.0000
  O   O6        1.0  0.6350811034570542  0.5768485508480554  0.4724771556228332  1.0000
  O   O7        1.0  0.6401500346378485  0.423613861389491  0.5180222023067671  1.0000
  O   O8        1.0  0.3648894454814311  0.5767666233029589  0.527565242421538  1.0000
