data_image0
_chemical_formula_structural       Zn2H26C22I2N8O8
_chemical_formula_sum              "Zn2 H26 C22 I2 N8 O8"
_cell_length_a       9.953434778828777
_cell_length_b       10.977138986425345
_cell_length_c       13.584429785361174
_cell_angle_alpha    85.07496826838664
_cell_angle_beta     87.34244609512244
_cell_angle_gamma    91.63848831148418

_space_group_name_H-M_alt    "P 1"
_space_group_IT_number       1

loop_
  _space_group_symop_operation_xyz
  'x, y, z'

loop_
  _atom_site_type_symbol
  _atom_site_label
  _atom_site_symmetry_multiplicity
  _atom_site_fract_x
  _atom_site_fract_y
  _atom_site_fract_z
  _atom_site_occupancy
  Zn  Zn1       1.0  0.6476354229965295  0.4972672722106211  0.5327010846403653  1.0000
  Zn  Zn2       1.0  0.3564692270154808  0.4899251717460231  0.5058702732685703  1.0000
  H   H1        1.0  0.5598163734790305  0.06690159070527102  0.5770147365154514  1.0000
  H   H2        1.0  0.1360645390074566  0.6795100444338614  0.3833471091906944  1.0000
  H   H3        1.0  0.350590147634243  0.46505430973329004  0.13516797800890862  1.0000
  H   H4        1.0  0.122149376868343  0.4743694129289509  0.08491487536340972  1.0000
  H   H5        1.0  0.18283432419517712  0.5035257783325875  0.9596380307849302  1.0000
  H   H6        1.0  0.19976376978763713  0.6199310597774143  0.0422898496817581  1.0000
  H   H7        1.0  0.2851522442230703  0.21480148521894898  0.4583397651575184  1.0000
  H   H8        1.0  0.1548951779646757  0.15624999173344628  0.3336572615939772  1.0000
  H   H9        1.0  0.13461077756620907  0.0063552434526598965  0.3959934402822043  1.0000
  H   H10       1.0  0.27466796612708316  0.042820728163199796  0.3112859202788627  1.0000
  H   H11       1.0  0.6801310983166643  0.8546996604193141  0.3920487389589056  1.0000
  H   H12       1.0  0.8990209134379724  0.5607142513824501  0.5705060884949091  1.0000
  H   H13       1.0  0.6998857740173392  0.030820411476995  0.2877290555248067  1.0000
  H   H14       1.0  0.6431702577040214  0.10972251931596591  0.39149792436881375  1.0000
  H   H15       1.0  0.5254086554735834  0.0558931195556127  0.3101756913188822  1.0000
  H   H16       1.0  0.7573029208226741  0.27053427521848045  0.5513572974540537  1.0000
  H   H17       1.0  0.9069086127209687  0.1229559173953731  0.46954233765573866  1.0000
  H   H18       1.0  0.9090683839333877  0.09771490988659787  0.6009589047587554  1.0000
  H   H19       1.0  0.0437013572618028  0.18154009181446173  0.5332722634912415  1.0000
  H   H20       1.0  0.669614763619883  0.5185271927156805  0.8987512637848597  1.0000
  H   H21       1.0  0.8973803819385181  0.5131222381754553  0.9475345730615887  1.0000
  H   H22       1.0  0.8238824350653502  0.36790331576051466  0.9947218919459929  1.0000
  H   H23       1.0  0.8390834217626164  0.48880608892201854  0.07375104022670341  1.0000
  H   H24       1.0  0.9883904123166262  0.48180682859760543  0.4083330526323508  1.0000
  H   H25       1.0  0.0947876890814285  0.601395292334999  0.27721290217079547  1.0000
  H   H26       1.0  0.25522776988244533  0.5828908016372125  0.3286647450147769  1.0000
  C   C1        1.0  0.5025019277580753  0.7282257311821707  0.46993227065728865  1.0000
  C   C2        1.0  0.487642651838783  0.2522732456018915  0.5509060256508036  1.0000
  C   C3        1.0  0.4623802296540872  0.5348186824593809  0.7015113181056094  1.0000
  C   C4        1.0  0.4415034944908669  0.5303641625055917  0.8070107510094644  1.0000
  C   C5        1.0  0.44458332105406134  0.4923879852918276  0.9995909535675976  1.0000
  C   C6        1.0  0.5755760880110614  0.49254554387333377  0.03449629446185299  1.0000
  C   C7        1.0  0.5872510168847356  0.47402876143830514  0.1369804824258978  1.0000
  C   C8        1.0  0.4321911917904374  0.5124575199374065  0.8973491866164948  1.0000
  C   C9        1.0  0.8183633309533748  0.46803085840562636  0.9981140876215804  1.0000
  C   C10       1.0  0.14815221295258144  0.5948095243745541  0.3462599013590832  1.0000
  C   C11       1.0  0.20292615946870998  0.5201148516866781  0.03628395414641259  1.0000
  C   C12       1.0  0.5758059229378746  0.45891516400893545  0.2274713078951081  1.0000
  C   C13       1.0  0.2086705348978128  0.07930053866406443  0.3683475831837059  1.0000
  C   C14       1.0  0.6200646393398586  0.0342592668133648  0.3458177032015328  1.0000
  C   C15       1.0  0.9345496835753406  0.16418016570067806  0.5370854611572329  1.0000
  C   C16       1.0  0.38554371498420176  0.0633850807039806  0.49197036358923907  1.0000
  C   C17       1.0  0.48244391741616977  0.12193048121326196  0.5430728218000453  1.0000
  C   C18       1.0  0.38882626913368057  0.9299955144939036  0.48814816947508183  1.0000
  C   C19       1.0  0.4957427641160734  0.8663987322391834  0.4549869587483358  1.0000
  C   C20       1.0  0.9171807666682382  0.3864776882822838  0.5555620451564068  1.0000
  C   C21       1.0  0.06538993264921801  0.40227681788657316  0.5660274156490104  1.0000
  C   C22       1.0  0.5497684984666621  0.45824868453676254  0.3324202764337443  1.0000
  I   I1        1.0  0.2154348610169947  0.8456614029342263  0.567285776770163  1.0000
  I   I2        1.0  0.12567337681754506  0.3341947971543959  0.7047950416771798  1.0000
  N   N1        1.0  0.8447095497114816  0.4853179617439308  0.5547789069065985  1.0000
  N   N2        1.0  0.14360231934126944  0.45860650750103094  0.4962066102658369  1.0000
  N   N3        1.0  0.6892471106054999  0.5159600783597895  0.9717710128369249  1.0000
  N   N4        1.0  0.09142999843674461  0.48674874681334757  0.4056613332103184  1.0000
  N   N5        1.0  0.3305482139592257  0.46826121037793905  0.06217612311240119  1.0000
  N   N6        1.0  0.2841861001086059  0.1236982392823549  0.44729819817194993  1.0000
  N   N7        1.0  0.6076882729146149  0.9162606674267479  0.40190692325725763  1.0000
  N   N8        1.0  0.8627011246488081  0.2761298784570911  0.5458914187938149  1.0000
  O   O1        1.0  0.6177299975485226  0.6844217486141416  0.4832262588116905  1.0000
  O   O2        1.0  0.39253848263183494  0.6689302089642695  0.4642710254187891  1.0000
  O   O3        1.0  0.6504205603149275  0.4570483572865456  0.38758936897718144  1.0000
  O   O4        1.0  0.42553980963377575  0.46080045327529723  0.3600424389766915  1.0000
  O   O5        1.0  0.5964487495968314  0.30701436439373003  0.574350881515457  1.0000
  O   O6        1.0  0.37926155036874587  0.311123219327726  0.5335909914047292  1.0000
  O   O7        1.0  0.5855247770798612  0.5364822565108723  0.670147718652011  1.0000
  O   O8        1.0  0.3592290300122727  0.5342459603343244  0.6494406064429157  1.0000
