data_image0
_chemical_formula_structural       Zn4H72C82N16O24
_chemical_formula_sum              "Zn4 H72 C82 N16 O24"
_cell_length_a       9.11906473335693
_cell_length_b       13.68554303947333
_cell_length_c       20.530368056170982
_cell_angle_alpha    86.09750700041435
_cell_angle_beta     78.2106181899335
_cell_angle_gamma    70.55596887480337

_space_group_name_H-M_alt    "P 1"
_space_group_IT_number       1

loop_
  _space_group_symop_operation_xyz
  'x, y, z'

loop_
  _atom_site_type_symbol
  _atom_site_label
  _atom_site_symmetry_multiplicity
  _atom_site_fract_x
  _atom_site_fract_y
  _atom_site_fract_z
  _atom_site_occupancy
  Zn  Zn1       1.0  0.3526272997010194  0.7576738639692522  0.5136050936040134  1.0000
  Zn  Zn2       1.0  0.8896133954115513  0.7576411852513016  0.9863950496425742  1.0000
  Zn  Zn3       1.0  0.6473765301316518  0.2423267534880225  0.48639272833998576  1.0000
  Zn  Zn4       1.0  0.11038786139997815  0.2423578820982684  0.013605514927448296  1.0000
  H   H1        1.0  0.970917277777552  0.30546329933252986  0.8284055738931283  1.0000
  H   H2        1.0  0.997681877605011  0.3856508107263252  0.7572273704889907  1.0000
  H   H3        1.0  0.2178111797156745  0.5032141320755628  0.5527910605828906  1.0000
  H   H4        1.0  0.6173351948093284  0.6652190580519673  0.3112680983757698  1.0000
  H   H5        1.0  0.03147585338433604  0.41172161061859913  0.8779238266352604  1.0000
  H   H6        1.0  0.61070276373826  0.7499381217986213  0.9172615188346566  1.0000
  H   H7        1.0  0.5710889208548834  0.6185156291261295  0.8501826580161023  1.0000
  H   H8        1.0  0.8433490111279697  0.012274094153980297  0.6330740463186186  1.0000
  H   H9        1.0  0.01789883232711993  0.857295842666616  0.564342096572332  1.0000
  H   H10       1.0  0.2624224773302259  0.09788006628158287  0.6284182562072543  1.0000
  H   H11       1.0  0.41617725381709647  0.9425318134511398  0.5596040486093796  1.0000
  H   H12       1.0  0.04457492516622349  0.2647061384424774  0.6613496828229228  1.0000
  H   H13       1.0  0.0957988444630615  0.1743812803847788  0.7276255077322629  1.0000
  H   H14       1.0  0.05060598076804714  0.5516352103010648  0.9424917764070954  1.0000
  H   H15       1.0  0.840350619256682  0.7450825692973595  0.4506131160979406  1.0000
  H   H16       1.0  0.7149327652977037  0.6819410092687618  0.4335914471140752  1.0000
  H   H17       1.0  0.4264078770064685  0.013726157832422798  0.3675961931564444  1.0000
  H   H18       1.0  0.48452881667189013  0.078081962821841  0.29694849311764665  1.0000
  H   H19       1.0  0.7234229810538578  0.305463968144764  0.6714785650147447  1.0000
  H   H20       1.0  0.6167704596217759  0.3858117296949999  0.7426148191754223  1.0000
  H   H21       1.0  0.27912455980550277  0.5029692438348619  0.9471834100581797  1.0000
  H   H22       1.0  0.7167959219551745  0.6652336921229959  0.18871575439853666  1.0000
  H   H23       1.0  0.556904216376246  0.41172044564757465  0.6218429119760457  1.0000
  H   H24       1.0  0.6393774664400381  0.7500898701954668  0.5827040132713533  1.0000
  H   H25       1.0  0.8104414964399069  0.6185983435572027  0.6497141853834234  1.0000
  H   H26       1.0  0.1435915439815858  0.012611823082920599  0.866887125096852  1.0000
  H   H27       1.0  0.12420865428507001  0.85760020071217  0.9356543485753189  1.0000
  H   H28       1.0  0.6390331390713514  0.097891318874062  0.8716166836403685  1.0000
  H   H29       1.0  0.640749085411016  0.9425711459390271  0.9405029792887444  1.0000
  H   H30       1.0  0.6902247000273932  0.2650105827383129  0.8384905559071212  1.0000
  H   H31       1.0  0.7293597817684372  0.17452436831656123  0.7722966493338815  1.0000
  H   H32       1.0  0.39790792912564416  0.5516786168542822  0.5573121360524594  1.0000
  H   H33       1.0  0.4145580895161486  0.7451383391425281  0.0492697909257558  1.0000
  H   H34       1.0  0.6029732237253072  0.6820367417040599  0.06639048832068538  1.0000
  H   H35       1.0  0.5599257100886985  0.013775058168931799  0.13244015597600617  1.0000
  H   H36       1.0  0.4373830532354717  0.0780940020195047  0.20306740661956005  1.0000
  H   H37       1.0  0.029086991350361253  0.6945342184586848  0.17159429827583486  1.0000
  H   H38       1.0  0.0023182590325630586  0.6143482565075972  0.24277329687019028  1.0000
  H   H39       1.0  0.7821926162212802  0.49678881018906645  0.4472081190763645  1.0000
  H   H40       1.0  0.3826678656435618  0.3347831091997832  0.6887306972378437  1.0000
  H   H41       1.0  0.9685242858419442  0.5882774566201406  0.12207732757080687  1.0000
  H   H42       1.0  0.38929664259266145  0.2500601704320431  0.08273973817264138  1.0000
  H   H43       1.0  0.42891345354188815  0.38148343833427123  0.14981731691787553  1.0000
  H   H44       1.0  0.15665034836370487  0.9877265228599653  0.366926134169546  1.0000
  H   H45       1.0  0.9821009118544451  0.14270399945009868  0.43565759708102536  1.0000
  H   H46       1.0  0.7375787743038913  0.9021190010583594  0.37158133466900967  1.0000
  H   H47       1.0  0.5838213650131151  0.057468028540292  0.44039477413938494  1.0000
  H   H48       1.0  0.955425941778003  0.7352937037946957  0.3386503948881482  1.0000
  H   H49       1.0  0.9042027944496523  0.8256170120627432  0.27237408315607325  1.0000
  H   H50       1.0  0.9493919727156807  0.448361531937536  0.05751212043706026  1.0000
  H   H51       1.0  0.15964869598445824  0.2549203725046779  0.5493864747179698  1.0000
  H   H52       1.0  0.2850692244091774  0.3180588330888768  0.5664090146547096  1.0000
  H   H53       1.0  0.5735865989785792  0.986275233582461  0.6324014773950352  1.0000
  H   H54       1.0  0.5154682869396578  0.921918653931918  0.7030489718675736  1.0000
  H   H55       1.0  0.2765782731689654  0.6945350991999888  0.3285215127083986  1.0000
  H   H56       1.0  0.3832289441204324  0.6141865625308541  0.25738595098499667  1.0000
  H   H57       1.0  0.7208751766099512  0.49703059826740054  0.05281482305454686  1.0000
  H   H58       1.0  0.28320713849771545  0.33476847512875463  0.811283041215077  1.0000
  H   H59       1.0  0.4430951431154283  0.5882801713663711  0.37815726851212605  1.0000
  H   H60       1.0  0.3606181452511875  0.2499115213639485  0.4172964755722289  1.0000
  H   H61       1.0  0.18955484814667048  0.3814038230102809  0.35028620065892807  1.0000
  H   H62       1.0  0.8564022068742215  0.9873887933383402  0.13311210879649585  1.0000
  H   H63       1.0  0.8757892055201706  0.1424011910929934  0.06434739523057688  1.0000
  H   H64       1.0  0.3609632862501896  0.9021061981027998  0.12838342120585364  1.0000
  H   H65       1.0  0.35924692132491737  0.057429470742420094  0.05949897010754057  1.0000
  H   H66       1.0  0.3097735392903331  0.7349900341599848  0.16150972737020908  1.0000
  H   H67       1.0  0.2706399624131279  0.8254754738001469  0.22770304431947608  1.0000
  H   H68       1.0  0.6020903101920821  0.4483220000440156  0.4426881472248708  1.0000
  H   H69       1.0  0.5854442926467341  0.25486072833231793  0.9507316445488666  1.0000
  H   H70       1.0  0.3970295770231829  0.3179592260662005  0.9336091026038599  1.0000
  H   H71       1.0  0.44007734518678615  0.9862271090731836  0.8675576659438489  1.0000
  H   H72       1.0  0.5626181489706995  0.9219073900988946  0.7969306208906984  1.0000
  C   C1        1.0  0.80025285616496  0.5057217341379784  0.8562527792400939  1.0000
  C   C2        1.0  0.913361059170768  0.3530843112449062  0.7895827068140376  1.0000
  C   C3        1.0  0.12190108083115803  0.5010007970156635  0.5295230319110401  1.0000
  C   C4        1.0  0.08744015816071736  0.6856509980706633  0.49917627587124247  1.0000
  C   C5        1.0  0.6028420679968106  0.7376936525934498  0.28388247931346905  1.0000
  C   C6        1.0  0.9367892683643506  0.4861234252573964  0.8830848352300077  1.0000
  C   C7        1.0  0.7022447479455279  0.6747101047544675  0.9063203233465484  1.0000
  C   C8        1.0  0.47548560065765577  0.8299286347078266  0.3933433596852466  1.0000
  C   C9        1.0  0.03928283131094189  0.0666031091577537  0.6373537128028914  1.0000
  C   C10       1.0  0.03904310248204003  0.5915652517120762  0.49920947466122084  1.0000
  C   C11       1.0  0.9119211249543111  0.5917046543371073  0.4688797004119251  1.0000
  C   C12       1.0  0.5293560151256639  0.8316446065981683  0.31971383179543966  1.0000
  C   C13       1.0  0.6800751200803177  0.6021427473588403  0.8690100318880807  1.0000
  C   C14       1.0  0.9704461334721941  0.9978520649573782  0.6185123766808899  1.0000
  C   C15       1.0  0.06647215892858317  0.9114990798010537  0.5815044367023104  1.0000
  C   C16       1.0  0.20299924476423561  0.04632602008476281  0.6166588546864202  1.0000
  C   C17       1.0  0.2899689051682157  0.9583995510285135  0.5787891905704042  1.0000
  C   C18       1.0  2.1573967735767004e-05  0.21814391654091034  0.7014855803068227  1.0000
  C   C19       1.0  0.947301414083519  0.5631384581502772  0.920415657233377  1.0000
  C   C20       1.0  0.5112676347089502  0.9266042098637469  0.2853403053422524  1.0000
  C   C21       1.0  0.6941881196295938  0.5057234308669294  0.6435425923788853  1.0000
  C   C22       1.0  0.7335519903648733  0.3531345965498716  0.7102286877602281  1.0000
  C   C23       1.0  0.377155661535781  0.5009276441479997  0.970462729585584  1.0000
  C   C24       1.0  0.2270305478618937  0.6856492514469393  0.0006997646161579029  1.0000
  C   C25       1.0  0.6589730796531936  0.7377027377349207  0.21611643006634293  1.0000
  C   C26       1.0  0.5772214441952173  0.4861362035063195  0.616713943575405  1.0000
  C   C27       1.0  0.6231340608380335  0.6748051155699816  0.5935832184668752  1.0000
  C   C28       1.0  0.6944028294759617  0.8299526219084115  0.10667120608930956  1.0000
  C   C29       1.0  0.8934093896924227  0.0667708438753962  0.862650207272736  1.0000
  C   C30       1.0  0.3693975542335223  0.5915329928341748  0.0007523109125386694  1.0000
  C   C31       1.0  0.49635307661200295  0.5917340255438432  0.03108120670542287  1.0000
  C   C32       1.0  0.6387119429801584  0.8316593383417371  0.18029468805528376  1.0000
  C   C33       1.0  0.7178608173330687  0.602201802493191  0.6308643046574645  1.0000
  C   C34       1.0  0.03100755894568127  0.9980790979931842  0.8814611902659588  1.0000
  C   C35       1.0  0.021404111366884054  0.9117315641844853  0.918503693805199  1.0000
  C   C36       1.0  0.7500339716612741  0.04639552939058691  0.8833552243777516  1.0000
  C   C37       1.0  0.7510579535285798  0.9584639206806359  0.9212578771965593  1.0000
  C   C38       1.0  0.7813806766620034  0.21831450196543756  0.798425860084272  1.0000
  C   C39       1.0  0.4896849360389765  0.5631876038766848  0.579415601806758  1.0000
  C   C40       1.0  0.5619711373843258  0.9266196773209997  0.21467309897062134  1.0000
  C   C41       1.0  0.19974844748580978  0.4942750084283105  0.14374886184905475  1.0000
  C   C42       1.0  0.08664170250460052  0.6469139813230738  0.21041726813201214  1.0000
  C   C43       1.0  0.8781030972069743  0.4990013703469174  0.4704751740665357  1.0000
  C   C44       1.0  0.9125606619442692  0.3143511689497913  0.5008227253206953  1.0000
  C   C45       1.0  0.39715801403540496  0.2623077394093016  0.7161156509859479  1.0000
  C   C46       1.0  0.06321126072922559  0.5138748670937334  0.11691680583500388  1.0000
  C   C47       1.0  0.2977539280787341  0.3252874124729459  0.09368152330885945  1.0000
  C   C48       1.0  0.5245182317637214  0.17007198275427277  0.606654949105632  1.0000
  C   C49       1.0  0.9607180382219838  0.9333967330842369  0.36264685175505906  1.0000
  C   C50       1.0  0.9609603426607405  0.4084361406424364  0.5007888341175855  1.0000
  C   C51       1.0  0.08808305308382101  0.4082975130254738  0.5311185055656437  1.0000
  C   C52       1.0  0.4706425594540066  0.16835756018135584  0.6802844012810778  1.0000
  C   C53       1.0  0.3199257885257367  0.3978547700854235  0.13099014864836528  1.0000
  C   C54       1.0  0.029554736060731602  0.0021477772846126004  0.3814881878770605  1.0000
  C   C55       1.0  0.933529485161536  0.0884992126560959  0.41849612787978413  1.0000
  C   C56       1.0  0.7970008892846321  0.9536730471443421  0.38334132582588143  1.0000
  C   C57       1.0  0.710031231469351  0.041599516205408804  0.4212114767887769  1.0000
  C   C58       1.0  0.9999789447710226  0.7818543757909637  0.29851411337067185  1.0000
  C   C59       1.0  0.05269653422279664  0.4368582840787028  0.07958726591701998  1.0000
  C   C60       1.0  0.48873094245942644  0.07339795692058709  0.7146584145811372  1.0000
  C   C61       1.0  0.3058082692075245  0.49427641091246954  0.3564583833357202  1.0000
  C   C62       1.0  0.2664484867120579  0.6468660205749045  0.2897709030918988  1.0000
  C   C63       1.0  0.6228467467567071  0.4990690985050533  0.029535887633137674  1.0000
  C   C64       1.0  0.7729648093023441  0.3143459406406208  0.9993024932321148  1.0000
  C   C65       1.0  0.34103149084094747  0.2622986547448746  0.7838827496170564  1.0000
  C   C66       1.0  0.42277567494855345  0.5138644132763304  0.3832864424910837  1.0000
  C   C67       1.0  0.3768630557170382  0.3251955012078582  0.4064166807527413  1.0000
  C   C68       1.0  0.3056010081228209  0.1700479955633156  0.8933280763953277  1.0000
  C   C69       1.0  0.106586611866099  0.9332297727964233  0.13735076842979768  1.0000
  C   C70       1.0  0.6306059794103264  0.4084637499441612  0.9992471772107759  1.0000
  C   C71       1.0  0.5036482192726478  0.40826271700800737  0.9689189738430881  1.0000
  C   C72       1.0  0.3612907744446758  0.16834127901433502  0.8197046972185191  1.0000
  C   C73       1.0  0.2821363069881143  0.39779881429908676  0.369137055102783  1.0000
  C   C74       1.0  0.9689869351602952  0.0019222934554008  0.11853988821366801  1.0000
  C   C75       1.0  0.9785918537072149  0.08827137728986399  0.08149815276571806  1.0000
  C   C76       1.0  0.24996241976454295  0.9536043123936223  0.11664623818373338  1.0000
  C   C77       1.0  0.24893766334005815  0.04153747088841439  0.07874358534078138  1.0000
  C   C78       1.0  0.21861868282967117  0.7816861150485083  0.20157432040389262  1.0000
  C   C79       1.0  0.5103136905573464  0.4368122381291927  0.4205846814826372  1.0000
  C   C80       1.0  0.4380300674105442  0.07338171480221689  0.7853254153865094  1.0000
  C   C81       1.0  0.8565765748187745  0.28670969073387204  0.7499249159232946  1.0000
  C   C82       1.0  0.14342579957799728  0.7132893767265287  0.2500750590106832  1.0000
  N   N1        1.0  0.8344954832181987  0.6570068218456908  0.9317207695431691  1.0000
  N   N2        1.0  0.22508738808089376  0.8907154397407596  0.5619998523051777  1.0000
  N   N3        1.0  0.825925901785972  0.6784561045908645  0.43762271289868676  1.0000
  N   N4        1.0  0.43875508543511177  0.0218040928223431  0.31680068999185096  1.0000
  N   N5        1.0  0.5085859079009365  0.6571012397462755  0.5681715095886161  1.0000
  N   N6        1.0  0.8836419390352929  0.8908525991225105  0.9380416137495543  1.0000
  N   N7        1.0  0.495500510656086  0.6785313444551377  0.062337877454744645  1.0000
  N   N8        1.0  0.5394316447013309  0.021831924484466494  0.18323376411868958  1.0000
  N   N9        1.0  0.16550246508811733  0.34298992038328174  0.0682821536072282  1.0000
  N   N10       1.0  0.7749161013124208  0.10928362782566128  0.4379990461458829  1.0000
  N   N11       1.0  0.1740734134551686  0.32154683721117294  0.5623768779172308  1.0000
  N   N12       1.0  0.5612397335779917  0.9781988484882119  0.6831963908994466  1.0000
  N   N13       1.0  0.4914115959327247  0.3428986021391439  0.4318283896430656  1.0000
  N   N14       1.0  0.11635329832085968  0.10914956735339842  0.06196130931635218  1.0000
  N   N15       1.0  0.5045019079912264  0.3214653982171781  0.937662687151487  1.0000
  N   N16       1.0  0.4605706776787951  0.9781694677495808  0.8167641606024103  1.0000
  O   O1        1.0  0.2166044762428781  0.6707495222931927  0.5215405003745417  1.0000
  O   O2        1.0  0.006462587563937838  0.7718513230844266  0.479116720976691  1.0000
  O   O3        1.0  0.7758672794844088  0.43745579759907127  0.8189343667801479  1.0000
  O   O4        1.0  0.4673963764719887  0.7417313922783676  0.4194805051451027  1.0000
  O   O5        1.0  0.9400610765297231  0.14776913814679918  0.6745002410118558  1.0000
  O   O6        1.0  0.4413286742311583  0.9097008545281752  0.42817109701260125  1.0000
  O   O7        1.0  0.11254427773686601  0.670736756533323  0.9785043403298557  1.0000
  O   O8        1.0  0.2221224739258219  0.7719245117577459  0.020527552276178085  1.0000
  O   O9        1.0  0.7869042314850389  0.4374052862986986  0.6808013617037927  1.0000
  O   O10       1.0  0.7907144606842496  0.7417789332713056  0.08053673691314593  1.0000
  O   O11       1.0  0.9114879993007605  0.14796673139809974  0.8255237482645299  1.0000
  O   O12       1.0  0.648867756960449  0.9097276566372016  0.07184932439449199  1.0000
  O   O13       1.0  0.7833936823398842  0.32925574419573417  0.47846006409891817  1.0000
  O   O14       1.0  0.9935389499041773  0.22815161891520563  0.5208792563327477  1.0000
  O   O15       1.0  0.22413324443175497  0.5625424947424306  0.18106630059111234  1.0000
  O   O16       1.0  0.5326131036583845  0.2582669009786969  0.5805183662190954  1.0000
  O   O17       1.0  0.05994017510439407  0.8522299291931433  0.3254993498644082  1.0000
  O   O18       1.0  0.5586691648644474  0.09030053723846983  0.5718267520182677  1.0000
  O   O19       1.0  0.8874552067403056  0.3292568861019021  0.02149614863443358  1.0000
  O   O20       1.0  0.7778665155775855  0.22807222955085388  0.9794766800344019  1.0000
  O   O21       1.0  0.21309362314279665  0.56259610549683  0.3191994084083446  1.0000
  O   O22       1.0  0.2092890364751767  0.2582201343095605  0.9194636220785523  1.0000
  O   O23       1.0  0.08851102234027053  0.8520323357298025  0.17447799557757546  1.0000
  O   O24       1.0  0.35114353716610947  0.09027373654129893  0.9281497254008069  1.0000
