data_image0
_chemical_formula_structural       Mn2H24C12N20O12
_chemical_formula_sum              "Mn2 H24 C12 N20 O12"
_cell_length_a       6.421837045973878
_cell_length_b       9.886627990574809
_cell_length_c       11.806994454974598
_cell_angle_alpha    70.80453640761469
_cell_angle_beta     74.18977499262087
_cell_angle_gamma    71.0539851271804

_space_group_name_H-M_alt    "P 1"
_space_group_IT_number       1

loop_
  _space_group_symop_operation_xyz
  'x, y, z'

loop_
  _atom_site_type_symbol
  _atom_site_label
  _atom_site_symmetry_multiplicity
  _atom_site_fract_x
  _atom_site_fract_y
  _atom_site_fract_z
  _atom_site_occupancy
  Mn  Mn1       1.0  0.999996206345436  1.5725844022992251e-06  0.9999974412778909  1.0000
  Mn  Mn2       1.0  0.999995975734741  0.5000012576694601  0.5000025211685964  1.0000
  H   H1        1.0  0.6901849851414569  0.9170946447225035  0.21748847060355556  1.0000
  H   H2        1.0  0.8246310731459372  0.582970366962904  0.282497447372485  1.0000
  H   H3        1.0  0.30980314501313444  0.08290569798500509  0.7825053819561062  1.0000
  H   H4        1.0  0.1753712572889724  0.4170277255825496  0.7175061928017925  1.0000
  H   H5        1.0  0.5950247035360192  0.8959045452690404  0.11407323070468317  1.0000
  H   H6        1.0  0.6048517674426531  0.6040741249222988  0.3860076473780722  1.0000
  H   H7        1.0  0.404966575031118  0.10409912848195552  0.885918694908355  1.0000
  H   H8        1.0  0.3951484535887885  0.39592398323215855  0.6139916381483487  1.0000
  H   H9        1.0  0.3475685089798759  0.14953093735528708  0.5517556550795817  1.0000
  H   H10       1.0  0.04874236573382241  0.350357342502008  0.9485864569557805  1.0000
  H   H11       1.0  0.6524310720404857  0.8504682905058232  0.4482403674407678  1.0000
  H   H12       1.0  0.9512595748327967  0.6496385512727301  0.05141245826252554  1.0000
  H   H13       1.0  0.3208448528902539  0.9739271197545064  0.6277862955327933  1.0000
  H   H14       1.0  0.9227653418658119  0.5258834042313579  0.872435086272162  1.0000
  H   H15       1.0  0.6791523437614868  0.026076529061540996  0.3722126449277069  1.0000
  H   H16       1.0  0.07725074277342973  0.47411803516386186  0.1275625093620576  1.0000
  H   H17       1.0  0.08418648023251049  0.834097168728846  0.636425855996343  1.0000
  H   H18       1.0  0.5561684846688236  0.6657070539003412  0.8636258767226153  1.0000
  H   H19       1.0  0.9158198528186292  0.1659053917958317  0.3635678752289308  1.0000
  H   H20       1.0  0.4438401380263171  0.33429656693787996  0.1363810443366801  1.0000
  H   H21       1.0  0.7885528042527098  0.8590410386748175  0.6623871254671058  1.0000
  H   H22       1.0  0.31065675323829084  0.6412227348072222  0.8381629808151984  1.0000
  H   H23       1.0  0.2114501753229803  0.14095820175240453  0.3376055081567273  1.0000
  H   H24       1.0  0.6893388071512591  0.35878196565850123  0.1618514497138718  1.0000
  C   C1        1.0  0.9217977098144486  0.8379316194526609  0.8210188676835556  1.0000
  C   C2        1.0  0.5809773657237118  0.6619980619609437  0.6791680667397698  1.0000
  C   C3        1.0  0.07820574522444451  0.1620620708883891  0.17897665267857826  1.0000
  C   C4        1.0  0.41903229349274773  0.33798670984802465  0.32084278957847084  1.0000
  C   C5        1.0  0.9210259752461663  0.8894219002723458  0.6830843119594902  1.0000
  C   C6        1.0  0.49424075122893607  0.6105888595187069  0.8171812437169875  1.0000
  C   C7        1.0  0.07897762408308741  0.11057844111100221  0.3169102605302641  1.0000
  C   C8        1.0  0.5057590573547727  0.3894158566546579  0.18282895069144436  1.0000
  C   C9        1.0  0.028310893307157366  0.13505321121156297  0.6090346976528096  1.0000
  C   C10       1.0  0.7724475136622785  0.36481145271591237  0.8911997567946911  1.0000
  C   C11       1.0  0.9716874752713803  0.8649504477897947  0.3909614596974648  1.0000
  C   C12       1.0  0.22755571829912197  0.6351921891549992  0.10880123807910987  1.0000
  N   N1        1.0  0.885030220984923  0.04858815589057031  0.6362583982459211  1.0000
  N   N2        1.0  0.5701239178434887  0.4513833373137642  0.8638708221374997  1.0000
  N   N3        1.0  0.1149759024384594  0.9514132817859251  0.3637394432095462  1.0000
  N   N4        1.0  0.4298721744617779  0.5486224930439221  0.13613756227528026  1.0000
  N   N5        1.0  0.6750316818934295  0.13812469567572092  0.6289746748085392  1.0000
  N   N6        1.0  0.442276826613785  0.36196116505149684  0.870982276989558  1.0000
  N   N7        1.0  0.32497384203390567  0.8618734203818761  0.3710225519211576  1.0000
  N   N8        1.0  0.5577225515866074  0.6380457936767031  0.12902054418260886  1.0000
  N   N9        1.0  0.6921509950171437  0.2728712326570317  0.5936611385957206  1.0000
  N   N10       1.0  0.5585791648551602  0.22716254636427638  0.9063001781202615  1.0000
  N   N11       1.0  0.30785197999369257  0.7271268739759833  0.4063386298063704  1.0000
  N   N12       1.0  0.4414179191363701  0.7728422182561729  0.09369658799613487  1.0000
  N   N13       1.0  0.9075875610635719  0.27710675424103215  0.579371771023929  1.0000
  N   N14       1.0  0.7639093850580279  0.22278973039312425  0.9207349895505316  1.0000
  N   N15       1.0  0.09241199513441954  0.7228935604886504  0.42063006213452775  1.0000
  N   N16       1.0  0.23608815413918885  0.777211704803932  0.07926333916402226  1.0000
  N   N17       1.0  0.24762163096434603  0.08620317768452421  0.6153357989260897  1.0000
  N   N18       1.0  0.949274035649793  0.4135979037288279  0.8849285081293558  1.0000
  N   N19       1.0  0.7523809090983201  0.9137960377091121  0.384663731017987  1.0000
  N   N20       1.0  0.050726600072302085  0.5864013163277876  0.11506969171492194  1.0000
  O   O1        1.0  0.9101303198786042  0.7070366212728276  0.8765301973204344  1.0000
  O   O2        1.0  0.4938573954724956  0.7928184568840564  0.6236343566453469  1.0000
  O   O3        1.0  0.08988362829187212  0.2929582006789034  0.12345903110416856  1.0000
  O   O4        1.0  0.5061288933570011  0.20718294841915247  0.37637196143482743  1.0000
  O   O5        1.0  0.9418154414063762  0.9317932058111468  0.865863038425374  1.0000
  O   O6        1.0  0.7395722655386834  0.5680950855971145  0.6342485025714096  1.0000
  O   O7        1.0  0.05817621565641671  0.0682026792010859  0.1341380585002767  1.0000
  O   O8        1.0  0.2604083057042601  0.431905199900811  0.3657609599876252  1.0000
  O   O9        1.0  0.6999821598916752  0.940161278983524  0.12890852234522038  1.0000
  O   O10       1.0  0.7689880741565814  0.5601059173050729  0.3710998553643987  1.0000
  O   O11       1.0  0.3000060424080925  0.05984238924514069  0.8710848562782444  1.0000
  O   O12       1.0  0.2310114820414098  0.4398943974246095  0.6289019777940581  1.0000
