data_image0
_chemical_formula_structural       Al4H64C68N24O24
_chemical_formula_sum              "Al4 H64 C68 N24 O24"
_cell_length_a       6.627738208439978
_cell_length_b       20.246683721362704
_cell_length_c       22.98346698009994
_cell_angle_alpha    87.37767588502254
_cell_angle_beta     89.99036555087446
_cell_angle_gamma    89.98381602416268

_space_group_name_H-M_alt    "P 1"
_space_group_IT_number       1

loop_
  _space_group_symop_operation_xyz
  'x, y, z'

loop_
  _atom_site_type_symbol
  _atom_site_label
  _atom_site_symmetry_multiplicity
  _atom_site_fract_x
  _atom_site_fract_y
  _atom_site_fract_z
  _atom_site_occupancy
  Al  Al1       1.0  0.2094680792330905  0.2495899612108161  0.751202173119019  1.0000
  Al  Al2       1.0  0.7883729162645635  0.750248366080328  0.24916618411221952  1.0000
  Al  Al3       1.0  0.7094655949163452  0.2504447200147056  0.7487886088731274  1.0000
  Al  Al4       1.0  0.28838300764336106  0.7497868075862257  0.2508276848685185  1.0000
  H   H1        1.0  0.5766392702150327  0.6545604999636295  0.4338074553439811  1.0000
  H   H2        1.0  0.7024836831636633  0.688034704241062  0.3751721123131375  1.0000
  H   H3        1.0  0.2936552236846238  0.3118160357787474  0.6256367694757827  1.0000
  H   H4        1.0  0.43535527808384694  0.3607530226118172  0.5830627204066516  1.0000
  H   H5        1.0  0.07696637051584082  0.845384948570107  0.065979017264219  1.0000
  H   H6        1.0  0.20243839229311078  0.8119784231578675  0.1247387302677438  1.0000
  H   H7        1.0  0.7937703358555906  0.18817432264040687  0.8743736628884092  1.0000
  H   H8        1.0  0.9353508903942894  0.1392773966825374  0.9170303999400957  1.0000
  H   H9        1.0  0.379956195236133  0.6177525110464899  0.33192926009573404  1.0000
  H   H10       1.0  0.45387240004523477  0.5391197878755777  0.36258548814412  1.0000
  H   H11       1.0  0.5454580261622863  0.460894194790029  0.6368177258432226  1.0000
  H   H12       1.0  0.6202876886571005  0.3835807018172162  0.6682765715796962  1.0000
  H   H13       1.0  0.9535090753262025  0.9609735253789043  0.1375198515354796  1.0000
  H   H14       1.0  0.879694642681329  0.8823433530794986  0.16816326291178293  1.0000
  H   H15       1.0  0.04589035763052609  0.03904719819409762  0.8630866504694907  1.0000
  H   H16       1.0  0.1204389243765362  0.1163891094966516  0.8316851524435265  1.0000
  H   H17       1.0  0.1637575836840313  0.46264256474019305  0.322338754848694  1.0000
  H   H18       1.0  0.1849680666716793  0.3799875594146016  0.3540072383802056  1.0000
  H   H19       1.0  0.3722181430488263  0.4111187792758955  0.30300065679007554  1.0000
  H   H20       1.0  0.631983687354186  0.5795154999210723  0.7022414188860255  1.0000
  H   H21       1.0  0.831972572206112  0.5262831541148998  0.6798460809746915  1.0000
  H   H22       1.0  0.8307818243798124  0.6117240658125525  0.6554295274927072  1.0000
  H   H23       1.0  0.662937615509378  0.03740618716062729  0.1777115360680952  1.0000
  H   H24       1.0  0.683758090169263  0.12000635152570988  0.14603809466092343  1.0000
  H   H25       1.0  0.8711199040748807  0.08900951558285902  0.19707719172825483  1.0000
  H   H26       1.0  0.13327727967444497  0.9204019103095579  0.7975944600641398  1.0000
  H   H27       1.0  0.3328334081806759  0.973716513853006  0.8199998356599282  1.0000
  H   H28       1.0  0.332251287266935  0.888316640087787  0.8444083140171659  1.0000
  H   H29       1.0  0.37478631516118804  0.3216761180602035  0.5033863375856952  1.0000
  H   H30       1.0  0.4771975243327872  0.355243674754476  0.43963034323762434  1.0000
  H   H31       1.0  0.555542416935026  0.6470945039648869  0.5704586141019732  1.0000
  H   H32       1.0  0.6721421459929999  0.6872736904591152  0.5120700173890641  1.0000
  H   H33       1.0  0.8742810567979189  0.1783998022381184  0.9966836174538685  1.0000
  H   H34       1.0  0.9764173842242626  0.14487202168857746  0.06047736880824321  1.0000
  H   H35       1.0  0.0568398996517203  0.852757352919767  0.9293154763744413  1.0000
  H   H36       1.0  0.1732547683940737  0.8126281709654746  0.9877537930081318  1.0000
  H   H37       1.0  0.36420143297127067  0.5703703673531565  0.9268065664180795  1.0000
  H   H38       1.0  0.23307536906821713  0.6378557220985925  0.945081023907804  1.0000
  H   H39       1.0  0.660907319172537  0.41534513857698135  0.0782799266941154  1.0000
  H   H40       1.0  0.7775400856756036  0.3555264032566612  0.04346939976344541  1.0000
  H   H41       1.0  0.8640952990513071  0.9294709858460167  0.5732300316008151  1.0000
  H   H42       1.0  0.7329720163541181  0.8620155918760305  0.554911103118009  1.0000
  H   H43       1.0  0.16153293637971436  0.08495886886220208  0.42170614366620646  1.0000
  H   H44       1.0  0.27791933708206773  0.14457817490601596  0.45679103580294367  1.0000
  H   H45       1.0  0.7988152651365326  0.6119047110971823  0.9058862059595755  1.0000
  H   H46       1.0  0.8509516038514845  0.5471021185022734  0.8668969584576587  1.0000
  H   H47       1.0  0.10117927738493648  0.42488518819577353  0.12938171676933763  1.0000
  H   H48       1.0  0.3229385905296951  0.4491748252587654  0.10273365251644863  1.0000
  H   H49       1.0  0.2987490113386286  0.8881063620837039  0.5941296534595893  1.0000
  H   H50       1.0  0.3508578925981567  0.9528971902745554  0.6331264216033007  1.0000
  H   H51       1.0  0.6022945362495022  0.0749090433178026  0.37060718163242273  1.0000
  H   H52       1.0  0.823763209319331  0.05073193997296951  0.39754119982240604  1.0000
  H   H53       1.0  0.3205853394156435  0.40657791559273454  0.9333828930786155  1.0000
  H   H54       1.0  0.4634323685156686  0.4318915860188427  0.9879101789162662  1.0000
  H   H55       1.0  0.5335362747361286  0.5657615002023063  0.0117709482830151  1.0000
  H   H56       1.0  0.6700947479536692  0.5893731899434657  0.0682191369222238  1.0000
  H   H57       1.0  0.8207636499727471  0.0932544446343897  0.5666816132426221  1.0000
  H   H58       1.0  0.963487643864738  0.0679979744611288  0.5120910989156969  1.0000
  H   H59       1.0  0.03364458409236449  0.9342649586176746  0.48827804469677016  1.0000
  H   H60       1.0  0.17006911176250844  0.9107405872646411  0.4317761428110458  1.0000
  H   H61       1.0  0.46076985521919767  0.3276474827568805  0.7766462450066458  1.0000
  H   H62       1.0  0.5374376683378799  0.6719446621643783  0.22441639313807127  1.0000
  H   H63       1.0  0.9609024471968225  0.17238762036930666  0.7233531159422597  1.0000
  H   H64       1.0  0.037374763943802194  0.8280796941579566  0.27560325522425444  1.0000
  C   C1        1.0  0.4572388950536136  0.1730208760640011  0.6720002825770024  1.0000
  C   C2        1.0  0.5401869366206498  0.8282430611408599  0.32707001954435094  1.0000
  C   C3        1.0  0.9571322784475881  0.3270068020677641  0.8279961396093539  1.0000
  C   C4        1.0  0.0402216754023996  0.6718061704383516  0.1729078001310782  1.0000
  C   C5        1.0  0.4636698695871785  0.16873558889902546  0.832940884974093  1.0000
  C   C6        1.0  0.5354648734679799  0.8304303294036971  0.16626412760381024  1.0000
  C   C7        1.0  0.9635820165544613  0.33129229600042015  0.6670596455081325  1.0000
  C   C8        1.0  0.03560421080121759  0.6695908129276803  0.3337281341120573  1.0000
  C   C9        1.0  0.8659301012646379  0.6239719597806754  0.4251044363042523  1.0000
  C   C10       1.0  0.13727928877973739  0.3780949984507132  0.5765363178127246  1.0000
  C   C11       1.0  0.3660824497829793  0.8760164149896784  0.07483265463385182  1.0000
  C   C12       1.0  0.6372823623052993  0.12191405531213212  0.9234741409219538  1.0000
  C   C13       1.0  0.030874271253786396  0.6235415818172001  0.38501996939858435  1.0000
  C   C14       1.0  0.9699777963815776  0.37720166457170723  0.6156212633855774  1.0000
  C   C15       1.0  0.5308582946994135  0.8764789583233821  0.11497247036665931  1.0000
  C   C16       1.0  0.4700673045146074  0.12280794486933638  0.8843697963460003  1.0000
  C   C17       1.0  0.1881514621828444  0.5754496447740961  0.39291841414378587  1.0000
  C   C18       1.0  0.8120372497985782  0.42482288804789187  0.6068082212706046  1.0000
  C   C19       1.0  0.6880141432661587  0.9245853674183735  0.10712333293713533  1.0000
  C   C20       1.0  0.31230742986800647  0.07513395981478509  0.8931303494301589  1.0000
  C   C21       1.0  0.159335954620218  0.5212213752726882  0.43420829741400274  1.0000
  C   C22       1.0  0.8439600561863327  0.47983032914899576  0.5669965728045839  1.0000
  C   C23       1.0  0.6592066813411037  0.9788058246307614  0.06582276927436231  1.0000
  C   C24       1.0  0.34438987938310817  0.020117121815872017  0.9329206821174268  1.0000
  C   C25       1.0  0.007228353362634698  0.5259971378557111  0.4776161652045162  1.0000
  C   C26       1.0  0.9965954344203211  0.4757003282021729  0.5236017927863728  1.0000
  C   C27       1.0  0.5073327828874028  0.9739896510185131  0.022370949389767202  1.0000
  C   C28       1.0  0.49677557182389614  0.02428652819570941  0.9763589543669725  1.0000
  C   C29       1.0  0.8664547830888976  0.5800265738198505  0.47511830809594363  1.0000
  C   C30       1.0  0.13576220481756704  0.42142699847385495  0.5261940900364338  1.0000
  C   C31       1.0  0.3667361664455342  0.919932278356974  0.024807312387906705  1.0000
  C   C32       1.0  0.6356716794629661  0.07858487315429129  0.9738212328373307  1.0000
  C   C33       1.0  0.2765004463913101  0.4618891464935049  0.4335411055983158  1.0000
  C   C34       1.0  0.7270187416556411  0.5391342342687935  0.5680897088566255  1.0000
  C   C35       1.0  0.7761858736302684  0.038168223316375795  0.06651051467310512  1.0000
  C   C36       1.0  0.22760998098025448  0.9607816769624334  0.9317960874909518  1.0000
  C   C37       1.0  0.26472286462389855  0.41203850859312774  0.4764404328158562  1.0000
  C   C38       1.0  0.7346900170965184  0.5881032038795199  0.5243909230979115  1.0000
  C   C39       1.0  0.764401878575903  0.0880097630136518  0.023606377984435798  1.0000
  C   C40       1.0  0.23531499507350861  0.911818500890483  0.975477173720286  1.0000
  C   C41       1.0  0.9048126885586356  0.5322238037706982  0.9536872722231211  1.0000
  C   C42       1.0  0.09186002820655399  0.46520270950330184  0.04692435054489149  1.0000
  C   C43       1.0  0.40475755326229285  0.9677684338131275  0.5463453223091506  1.0000
  C   C44       1.0  0.592106289956888  0.03473685878999791  0.4531199758145307  1.0000
  C   C45       1.0  0.1251931448943893  0.5482548415763305  0.9786840005926224  1.0000
  C   C46       1.0  0.8745767784842898  0.44994302418616894  0.021988224240040204  1.0000
  C   C47       1.0  0.6251727764425183  0.9516731565329548  0.5213491228872158  1.0000
  C   C48       1.0  0.37478299047006647  0.05008176140400173  0.47805553934997386  1.0000
  C   C49       1.0  0.04377350253125909  0.6264842591320133  0.1270161920672663  1.0000
  C   C50       1.0  0.9526072178451483  0.372393878831474  0.8739494596115591  1.0000
  C   C51       1.0  0.5436797448899141  0.8735694496875585  0.3729558462933796  1.0000
  C   C52       1.0  0.4527955872687456  0.12761601021586702  0.6260710238585362  1.0000
  C   C53       1.0  0.8205574144897909  0.5256269408045426  0.018011306725064503  1.0000
  C   C54       1.0  0.17678629648319333  0.4724543581736924  0.9829650064902326  1.0000
  C   C55       1.0  0.3206111241886162  0.9743934265507195  0.48202961331534777  1.0000
  C   C56       1.0  0.676897404402375  0.027457515390835907  0.5170796836780981  1.0000
  C   C57       1.0  0.0335467833401282  0.5438150428992116  0.04277783338846321  1.0000
  C   C58       1.0  0.9622362100723761  0.45604777982514133  0.9575091975549979  1.0000
  C   C59       1.0  0.5335858252841703  0.9561545154950933  0.45725567998677275  1.0000
  C   C60       1.0  0.46233905609113174  0.043928813456297205  0.54253517531685  1.0000
  C   C61       1.0  0.050971182005142196  0.5886408618393161  0.08711173998776899  1.0000
  C   C62       1.0  0.9427840404787132  0.41123643491220463  0.9129410103753769  1.0000
  C   C63       1.0  0.5509229017674996  0.9113623595162468  0.4128946644786994  1.0000
  C   C64       1.0  0.44290012802004236  0.08876152901218863  0.5870780629459063  1.0000
  C   C65       1.0  0.2699771017067292  0.42400741757541033  0.3382915127365607  1.0000
  C   C66       1.0  0.7348833537915096  0.5684828279702572  0.6665124760355853  1.0000
  C   C67       1.0  0.76904090403098  0.076054122510044  0.1617577749719956  1.0000
  C   C68       1.0  0.23593488340464566  0.9314891856933586  0.8333562465684707  1.0000
  N   N1        1.0  0.7117455071968308  0.6698606809461295  0.4171668566141591  1.0000
  N   N2        1.0  0.3017099742424491  0.3352508815478288  0.5854572186907206  1.0000
  N   N3        1.0  0.21193108618746234  0.8301412527017645  0.08274444885783791  1.0000
  N   N4        1.0  0.8016802999811004  0.1647523203398791  0.9145586209974043  1.0000
  N   N5        1.0  0.3608874166127904  0.5789606824879671  0.36097286503072473  1.0000
  N   N6        1.0  0.6314557958382138  0.41939493140425554  0.6359365795799762  1.0000
  N   N7        1.0  0.8605875002007152  0.9211367076884401  0.13912127361708573  1.0000
  N   N8        1.0  0.13176116462625487  0.08054969403032433  0.8639997745760513  1.0000
  N   N9        1.0  0.3571853924771204  0.35179541397964437  0.46703697712876396  1.0000
  N   N10       1.0  0.615845999843536  0.6444121243995512  0.5300343897490337  1.0000
  N   N11       1.0  0.8565302028250557  0.14829003555313136  0.033034734063399206  1.0000
  N   N12       1.0  0.1167613120012305  0.8554737779523335  0.969789357790532  1.0000
  N   N13       1.0  0.2788746046104221  0.5915096704275911  0.9581586113887254  1.0000
  N   N14       1.0  0.7266901115725587  0.4031019821546807  0.040107115416759605  1.0000
  N   N15       1.0  0.7787801871940374  0.9083669524042224  0.5418714102443188  1.0000
  N   N16       1.0  0.22699558123554905  0.09700869130241332  0.45997538987608527  1.0000
  N   N17       1.0  0.7961577215988667  0.5614937531368086  0.9058568529472099  1.0000
  N   N18       1.0  0.18724308488567226  0.42870144348423617  0.0925441432803424  1.0000
  N   N19       1.0  0.29607743335109404  0.9385142489370895  0.5941734733469702  1.0000
  N   N20       1.0  0.6878291590916488  0.0711969052076853  0.40754380525471834  1.0000
  N   N21       1.0  0.35206582642678796  0.4453779579129957  0.958718062136292  1.0000
  N   N22       1.0  0.6410480016114092  0.5512309161638527  0.0418567387713011  1.0000
  N   N23       1.0  0.8522307335294245  0.054474486537117214  0.5413113287310196  1.0000
  N   N24       1.0  0.14105381553921598  0.9488587947078957  0.45817920909730964  1.0000
  O   O1        1.0  0.6307793664139467  0.18875073279073723  0.8099371426357538  1.0000
  O   O2        1.0  0.3672857090435854  0.8105710862849665  0.18880543396639382  1.0000
  O   O3        1.0  0.13070537980714647  0.3113390419827198  0.6900965529672548  1.0000
  O   O4        1.0  0.8674427342307495  0.6893616850597085  0.31110872320382305  1.0000
  O   O5        1.0  0.28731385310260993  0.19072924933730923  0.6920805828743967  1.0000
  O   O6        1.0  0.7104575836781423  0.8099882460828097  0.3075019777070835  1.0000
  O   O7        1.0  0.7872596339019893  0.309347682295197  0.8078851447574139  1.0000
  O   O8        1.0  0.210423165945592  0.6899453092842337  0.19256201472266812  1.0000
  O   O9        1.0  0.2915363285178785  0.18600830522358788  0.8110991470786573  1.0000
  O   O10       1.0  0.70681993694312  0.8128259493395902  0.18836983347917877  1.0000
  O   O11       1.0  0.7914503265163261  0.3139771462916485  0.6888708356981469  1.0000
  O   O12       1.0  0.2069738440674626  0.6872889230661485  0.3116985230961546  1.0000
  O   O13       1.0  0.1297816635652467  0.3079999465161834  0.8106408494763713  1.0000
  O   O14       1.0  0.8677035125100616  0.6906067396231493  0.19069179325830993  1.0000
  O   O15       1.0  0.6298503153807004  0.19199004191260371  0.6893772259249715  1.0000
  O   O16       1.0  0.36772793802705905  0.8095477268014905  0.309205831530285  1.0000
  O   O17       1.0  0.4589093794109188  0.2919191634810119  0.749837074738153  1.0000
  O   O18       1.0  0.5386704273665115  0.7080756659067404  0.25080900052434174  1.0000
  O   O19       1.0  0.9589637384936722  0.20811987691506317  0.7501567123423313  1.0000
  O   O20       1.0  0.03862399809174379  0.7919496752048051  0.24920886128559522  1.0000
  O   O21       1.0  0.3937260285597191  0.44786648600332063  0.38443133429976223  1.0000
  O   O22       1.0  0.6105097931087328  0.5530094769267818  0.6175656793006469  1.0000
  O   O23       1.0  0.8931427182785325  0.0522319357565664  0.11565295638003191  1.0000
  O   O24       1.0  0.11140606348475758  0.946906057787693  0.8822919411538378  1.0000
