data_image0
_chemical_formula_structural       Ba2H36C28N24O16
_chemical_formula_sum              "Ba2 H36 C28 N24 O16"
_cell_length_a       6.923198478
_cell_length_b       10.114856683867332
_cell_length_c       16.5743
_cell_angle_alpha    99.05425151962395
_cell_angle_beta     90.0
_cell_angle_gamma    90.0

_space_group_name_H-M_alt    "P 1"
_space_group_IT_number       1

loop_
  _space_group_symop_operation_xyz
  'x, y, z'

loop_
  _atom_site_type_symbol
  _atom_site_label
  _atom_site_symmetry_multiplicity
  _atom_site_fract_x
  _atom_site_fract_y
  _atom_site_fract_z
  _atom_site_occupancy
  Ba  Ba1       1.0  0.32901122324287957  0.250001419211209  0.250000000546585  1.0000
  Ba  Ba2       1.0  0.6709861077595392  0.7500002531579497  0.7499990137121628  1.0000
  H   H1        1.0  0.6153875284001344  0.17933944240426308  0.3737205989740318  1.0000
  H   H2        1.0  0.6153889728192183  0.3206603926613951  0.1262797170249712  1.0000
  H   H3        1.0  0.3846098026022844  0.8206592266081358  0.626278730190549  1.0000
  H   H4        1.0  0.3846126914404522  0.6793392774699214  0.8737215183167634  1.0000
  H   H5        1.0  0.7242071733076185  0.3207985470725063  0.3893737789271441  1.0000
  H   H6        1.0  0.7242086177267024  0.1791992857553097  0.1106263447799307  1.0000
  H   H7        1.0  0.2757901576948  0.6791991208209679  0.6106260574352049  1.0000
  H   H8        1.0  0.2757916021138839  0.8207993832570821  0.8893735877283788  1.0000
  H   H9        1.0  0.04627629859494679  0.0315582717493683  0.3078756594113016  1.0000
  H   H10       1.0  0.046274854175862884  0.4684405621973724  0.1921239570980049  1.0000
  H   H11       1.0  0.9537239212456396  0.9684434006197903  0.6921227515037103  1.0000
  H   H12       1.0  0.9537268100838074  0.5315591079339441  0.8078742615250789  1.0000
  H   H13       1.0  0.8920284489350718  0.1479143194714041  0.30055180153728134  1.0000
  H   H14       1.0  0.8920255600969043  0.3520855155942542  0.1994491178054574  1.0000
  H   H15       1.0  0.10797032648643068  0.8520873528977546  0.6994490227526596  1.0000
  H   H16       1.0  0.10797610416275917  0.6479151556559799  0.8005510069947874  1.0000
  H   H17       1.0  0.10412672730542029  0.46512986192534095  0.6588682614316568  1.0000
  H   H18       1.0  0.10412239404816857  0.0348699731403173  0.8411326579110747  1.0000
  H   H19       1.0  0.8958706036969983  0.5348708093248931  0.3411324667123168  1.0000
  H   H20       1.0  0.8958706036969983  0.9651306981099239  0.15886807023289856  1.0000
  H   H21       1.0  0.009908714912334896  0.2274972669841375  0.5934907388043271  1.0000
  H   H22       1.0  0.0099029372359993  0.2724995647247539  0.9065098921005087  1.0000
  H   H23       1.0  0.9900958381855032  0.7725014020282542  0.4065097970477111  1.0000
  H   H24       1.0  0.9900943937664193  0.7275011065254802  0.09349264607465808  1.0000
  H   H25       1.0  0.09109662275379547  0.1593771311178216  0.4437437415381993  1.0000
  H   H26       1.0  0.0910937339156277  0.3406257073045964  0.056257466242435286  1.0000
  H   H27       1.0  0.9089093747631267  0.8406215378945703  0.5562573976575748  1.0000
  H   H28       1.0  0.9089093747631267  0.6593739628267201  0.9437437690993064  1.0000
  H   H29       1.0  0.6202162213960418  0.8634410425817831  0.3349849110847174  1.0000
  H   H30       1.0  0.6202162213960418  0.636559463734109  0.16501492637079448  1.0000
  H   H31       1.0  0.3797883317017892  0.1365596286684507  0.6650164204029849  1.0000
  H   H32       1.0  0.3797839984445374  0.3634402063972075  0.8349851022834827  1.0000
  H   H33       1.0  0.5825428828620074  0.901769881594447  0.44303476745294995  1.0000
  H   H34       1.0  0.5825428828620074  0.5982316258403698  0.05696516614852948  1.0000
  H   H35       1.0  0.4174515593022434  0.09823379301255387  0.556966249128912  1.0000
  H   H36       1.0  0.4174645590739914  0.4017690454098712  0.9430337519642507  1.0000
  C   C1        1.0  0.3393431529466539  0.5588576186740895  0.4227836681207933  1.0000
  C   C2        1.0  0.3393445973657378  0.9411438887607204  0.07721686882441497  1.0000
  C   C3        1.0  0.6606570668939324  0.4411440536950621  0.5772159494816833  1.0000
  C   C4        1.0  0.6606570668939324  0.0588547802516715  0.9227854770588166  1.0000
  C   C5        1.0  0.347793004584723  0.9593942866921026  0.3686276948723162  1.0000
  C   C6        1.0  0.3477843380702197  0.5406102240994741  0.13137192382333035  1.0000
  C   C7        1.0  0.6522317703802827  0.0406183979851846  0.6313681535859317  1.0000
  C   C8        1.0  0.652211548513115  0.459392449388602  0.8686253765501843  1.0000
  C   C9        1.0  0.134332419178115  0.42568177195890655  0.5946228739574407  1.0000
  C   C10       1.0  0.13433097475903108  0.0743190642256693  0.9053781415312585  1.0000
  C   C11       1.0  0.8656634674052197  0.5743188992913274  0.405377250842804  1.0000
  C   C12       1.0  0.8656678006624643  0.92568060590564  0.0946224904667474  1.0000
  C   C13       1.0  0.08349608953677998  0.2960709097217062  0.5589446967919398  1.0000
  C   C14       1.0  0.0834903118604515  0.2039309275817942  0.9410552081552623  1.0000
  C   C15       1.0  0.916508463561051  0.7039297615285349  0.44105542800830466  1.0000
  C   C16       1.0  0.9165070191419671  0.7960697436684399  0.058946726676168675  1.0000
  C   C17       1.0  0.25160913781908784  0.4657575634888644  0.47157885295862906  1.0000
  C   C18       1.0  0.2516105822381718  0.034244273814636  0.028421051988573295  1.0000
  C   C19       1.0  0.748385304345163  0.5342461111181364  0.5284203535920469  1.0000
  C   C20       1.0  0.748386748764247  0.9657553963166804  0.9715795800094327  1.0000
  C   C21       1.0  0.1253567989936784  0.2589864615279467  0.4761991238756876  1.0000
  C   C22       1.0  0.12535391015551056  0.24101537577555376  0.023800177727785893  1.0000
  C   C23       1.0  0.8746477541041527  0.7410142097222874  0.5238016042682858  1.0000
  C   C24       1.0  0.8746463096850687  0.7589852954746874  0.9762017571036522  1.0000
  C   C25       1.0  0.5143157474561733  0.8645082353516571  0.384161571728157  1.0000
  C   C26       1.0  0.5143157474561733  0.6354932720831528  0.11583836187332959  1.0000
  C   C27       1.0  0.48568158354624547  0.1354934370175016  0.6158386492180554  1.0000
  C   C28       1.0  0.4856873612225812  0.36450539692923906  0.8841603639475224  1.0000
  N   N1        1.0  0.3814927462202391  0.687049895400115  0.4512073571161963  1.0000
  N   N2        1.0  0.3814927462202391  0.8129506109157772  0.04879187699559398  1.0000
  N   N3        1.0  0.6185060292012636  0.3129507758501191  0.5487933710277771  1.0000
  N   N4        1.0  0.6185060292012636  0.1870490592155392  0.9512069449712257  1.0000
  N   N5        1.0  0.454901012878345  0.7278885395479406  0.38550115953523084  1.0000
  N   N6        1.0  0.4548995684592611  0.7721129678868763  0.1144987740662486  1.0000
  N   N7        1.0  0.5451020958004092  0.2721131328212181  0.6144990614109744  1.0000
  N   N8        1.0  0.5451006513813254  0.22788470000659797  0.8855010622961004  1.0000
  N   N9        1.0  0.2095014326989215  0.3431615415317069  0.4318182119380864  1.0000
  N   N10       1.0  0.2095014326989215  0.15684029577179356  0.0681816930091159  1.0000
  N   N11       1.0  0.7904987871416649  0.6568391297185343  0.5681819128621513  1.0000
  N   N12       1.0  0.790497342722581  0.8431583732405983  0.9318194461866582  1.0000
  N   N13       1.0  0.21887137929313377  0.5112524117386528  0.5511030186907249  1.0000
  N   N14       1.0  0.21886993487404985  0.9887490956961642  0.9488975182544905  1.0000
  N   N15       1.0  0.7811273961283618  0.48875126286834797  0.4488986012348732  1.0000
  N   N16       1.0  0.7811259517092848  0.011250574435152299  0.05110251039978659  1.0000
  N   N17       1.0  0.45934549039805717  0.6334539928409056  0.3192637816160158  1.0000
  N   N18       1.0  0.4593440459789732  0.8665475145939111  0.18073615198546375  1.0000
  N   N19       1.0  0.5406547294425295  0.3665486806471705  0.6807365354761572  1.0000
  N   N20       1.0  0.5406547294425295  0.1334501532995631  0.8192642877206138  1.0000
  N   N21       1.0  0.386211663365806  0.5253902131422166  0.3424579562915823  1.0000
  N   N22       1.0  0.3862131077848899  0.9746112942926003  0.15754258065362586  1.0000
  N   N23       1.0  0.6137871120556966  0.4746124603458597  0.6575429641443193  1.0000
  N   N24       1.0  0.6137842232175288  0.025386373600873896  0.8424578590524519  1.0000
  O   O1        1.0  0.17730966458650949  0.9165063521128188  0.3609092530368656  1.0000
  O   O2        1.0  0.177315442262838  0.5834901497273889  0.1390889931473254  1.0000
  O   O3        1.0  0.8226746666441613  0.0834833068292866  0.6390837807204477  1.0000
  O   O4        1.0  0.8226934440922449  0.4165065170471607  0.8609083336941339  1.0000
  O   O5        1.0  0.695519565891608  0.241489906144146  0.3474781215130065  1.0000
  O   O6        1.0  0.6955224547297758  0.2585099289215123  0.15252219448600354  1.0000
  O   O7        1.0  0.3044806539489784  0.7585117662250127  0.65252149608947  1.0000
  O   O8        1.0  0.30447920952989443  0.7414917434476465  0.8474786298039376  1.0000
  O   O9        1.0  0.0017968573397907995  0.0961484622999365  0.2723961997781856  1.0000
  O   O10       1.0  0.0017925240825392  0.4038513727657218  0.22760411622081728  1.0000
  O   O11       1.0  0.9982062513389636  0.9038522089503047  0.7276039250220518  1.0000
  O   O12       1.0  0.9982062513389636  0.5961492984845123  0.7723954052356987  1.0000
  O   O13       1.0  0.4057575424027888  0.0773384388916654  0.3651336758845359  1.0000
  O   O14       1.0  0.4057604312409566  0.42265939393615065  0.13486946454119667  1.0000
  O   O15       1.0  0.5942325665042105  0.9226502189315156  0.6348677085390546  1.0000
  O   O16       1.0  0.5942441218568815  0.5773352706005568  0.8651282733520631  1.0000
