data_image0
_chemical_formula_structural       CoH36C40N8Cl2
_chemical_formula_sum              "Co1 H36 C40 N8 Cl2"
_cell_length_a       7.742701144031075
_cell_length_b       9.09703060140408
_cell_length_c       12.554330756046772
_cell_angle_alpha    103.30157016990616
_cell_angle_beta     105.05255902007688
_cell_angle_gamma    91.40877290110323

_space_group_name_H-M_alt    "P 1"
_space_group_IT_number       1

loop_
  _space_group_symop_operation_xyz
  'x, y, z'

loop_
  _atom_site_type_symbol
  _atom_site_label
  _atom_site_symmetry_multiplicity
  _atom_site_fract_x
  _atom_site_fract_y
  _atom_site_fract_z
  _atom_site_occupancy
  Co  Co1       1.0  8.44099430000204e-06  0.49999379204429295  0.49999636956705734  1.0000
  H   H1        1.0  0.6921057872479891  0.33611117936715107  0.7782927226522176  1.0000
  H   H2        1.0  0.3078823819926769  0.6639206497539971  0.2217230801750958  1.0000
  H   H3        1.0  0.9809682207705565  0.3654848111391686  0.9289994363391686  1.0000
  H   H4        1.0  0.019035850998413706  0.6345383944093398  0.07100547373921984  1.0000
  H   H5        1.0  0.7829688676357663  0.010986932236185992  0.0540835243831239  1.0000
  H   H6        1.0  0.21702875269923538  0.989038576575858  0.9459191819666658  1.0000
  H   H7        1.0  0.49446127183909994  0.9795147274379803  0.9014470216988215  1.0000
  H   H8        1.0  0.5055461953995887  0.020483296831216094  0.09855063456346612  1.0000
  H   H9        1.0  0.3878812049977968  0.2330916272166164  0.6958430939191658  1.0000
  H   H10       1.0  0.6120938833691624  0.7669118182498024  0.30416174016166053  1.0000
  H   H11       1.0  0.1006611763046337  0.16680277025002244  0.6209919830217956  1.0000
  H   H12       1.0  0.899336357413958  0.8331898366887599  0.37900657970823914  1.0000
  H   H13       1.0  0.020329228110469406  0.18183779621549687  0.7415665190718528  1.0000
  H   H14       1.0  0.9796642499933628  0.818153822397484  0.2584336863636311  1.0000
  H   H15       1.0  0.16335791153642282  0.8097730653362446  0.6172373820677777  1.0000
  H   H16       1.0  0.8366470888526296  0.1902261893792954  0.3827616873577925  1.0000
  H   H17       1.0  0.7235100350096032  0.08861320149646452  0.6185332677618617  1.0000
  H   H18       1.0  0.2764754331470698  0.9113569841400064  0.3814633391990796  1.0000
  H   H19       1.0  0.5121727497042059  0.8467563917419342  0.5247299773341609  1.0000
  H   H20       1.0  0.4878188197038185  0.1532204312230476  0.4752661357163745  1.0000
  H   H21       1.0  0.6413957115177669  0.6036053850895017  0.4866649858308706  1.0000
  H   H22       1.0  0.3586056289905812  0.3963747057543614  0.5133330626797132  1.0000
  H   H23       1.0  0.06005180643736449  0.13804277754147168  0.1549863874627917  1.0000
  H   H24       1.0  0.9399516611286671  0.861965583934932  0.8450138190569021  1.0000
  H   H25       1.0  0.3376250440073747  0.21533360407199348  0.24809395007296328  1.0000
  H   H26       1.0  0.6623931383265287  0.7846530310693108  0.7519067740356888  1.0000
  H   H27       1.0  0.2911039739942397  0.4065313308882779  0.2884960996713772  1.0000
  H   H28       1.0  0.7089002902352279  0.5934509597398048  0.7115019140131339  1.0000
  H   H29       1.0  0.6210084883242574  0.37488918639306223  0.400232159713191  1.0000
  H   H30       1.0  0.37902432279469184  0.6251074612520995  0.5997722288985372  1.0000
  H   H31       1.0  0.4604347178533176  0.40027212167781556  0.050493492899711626  1.0000
  H   H32       1.0  0.539556902587961  0.5997243047929572  0.9495135334854936  1.0000
  H   H33       1.0  0.7785718473318184  0.5054187350632872  0.07881921768827746  1.0000
  H   H34       1.0  0.22141666653433836  0.49457830369405537  0.9211722981734809  1.0000
  H   H35       1.0  0.9999311395964413  0.5427458255795159  0.2695156450158862  1.0000
  H   H36       1.0  7.897221114921628e-05  0.45726540020893214  0.730474019183994  1.0000
  C   C1        1.0  0.5727845305119884  0.1581567675319775  0.8326112067348533  1.0000
  C   C2        1.0  0.42721385623452335  0.8418641878996311  0.16739093106787814  1.0000
  C   C3        1.0  0.7123264803429025  0.2646168096967756  0.8386627314055276  1.0000
  C   C4        1.0  0.2876650387407481  0.7354020617867647  0.16134046885466805  1.0000
  C   C5        1.0  0.8746672357854806  0.28002450057633155  0.921625659246871  1.0000
  C   C6        1.0  0.1253319834941138  0.7200022405906238  0.07838065619418441  1.0000
  C   C7        1.0  0.900789326420636  0.1905273719988827  0.0010173816902395098  1.0000
  C   C8        1.0  0.09922013591908303  0.8094968028875015  0.9989860803987937  1.0000
  C   C9        1.0  0.7633458590561659  0.08045391472962388  0.992267948298604  1.0000
  C   C10       1.0  0.23665612643361567  0.919564598797237  0.007731168461461437  1.0000
  C   C11       1.0  0.6020898963638359  0.0634471882587633  0.9083932315936778  1.0000
  C   C12       1.0  0.39790743450358695  0.936565773113607  0.09160595871883714  1.0000
  C   C13       1.0  0.3961169824353804  0.1567285334470512  0.7536983042572558  1.0000
  C   C14       1.0  0.6038686332639429  0.8432746129350476  0.24630405810312797  1.0000
  C   C15       1.0  0.0859420846319878  0.1056663234090962  0.685206234259411  1.0000
  C   C16       1.0  0.9140446322866537  0.8943140351743395  0.3147912841537918  1.0000
  C   C17       1.0  0.020270914402722405  0.8225792779652179  0.5995460188455723  1.0000
  C   C18       1.0  0.9797312890265317  0.1774096167380392  0.4004463031827327  1.0000
  C   C19       1.0  0.9588064383676526  0.9652193887224102  0.627986308213572  1.0000
  C   C20       1.0  0.041179501960009204  0.03476650965868091  0.37200794011325666  1.0000
  C   C21       1.0  0.7734044793174704  0.9773014820647954  0.5995720378882012  1.0000
  C   C22       1.0  0.2265779789240554  0.022676695722346103  0.40042532063497294  1.0000
  C   C23       1.0  0.6579957932674318  0.8464572394680515  0.5474171308041705  1.0000
  C   C24       1.0  0.3419988217141778  0.15352190102586147  0.4525821709796674  1.0000
  C   C25       1.0  0.7294160233474473  0.7077090361035231  0.5238479634857214  1.0000
  C   C26       1.0  0.2705832564359909  0.2922746701276465  0.4761551033790994  1.0000
  C   C27       1.0  0.0617729850255699  0.21202678063141178  0.09651337487316171  1.0000
  C   C28       1.0  0.9382335585771744  0.7879839278101102  0.9034908262696746  1.0000
  C   C29       1.0  0.3311805249705558  0.3232805447221452  0.22151756816905532  1.0000
  C   C30       1.0  0.6688324953339446  0.6767176096485982  0.778486508186532  1.0000
  C   C31       1.0  0.6499422413520576  0.4039743421915745  0.3266377384804571  1.0000
  C   C32       1.0  0.3500722154019655  0.5960258837704159  0.6733620788837342  1.0000
  C   C33       1.0  0.5162514287395582  0.380694230534182  0.22369436122496472  1.0000
  C   C34       1.0  0.4837587490537062  0.6193027987781079  0.7763083289927977  1.0000
  C   C35       1.0  0.5614277739785152  0.41727167504924967  0.13192981962638578  1.0000
  C   C36       1.0  0.43857143989454533  0.5827232389702104  0.8680709312310172  1.0000
  C   C37       1.0  0.7370220571833032  0.47580103329925544  0.14828631506926376  1.0000
  C   C38       1.0  0.2629669593922658  0.524208758951026  0.8517143580586789  1.0000
  C   C39       1.0  0.8621892367248449  0.4964037482101631  0.2536453927141267  1.0000
  C   C40       1.0  0.1378149110586762  0.5036102518206889  0.7463549619946691  1.0000
  N   N1        1.0  0.2568297860232889  0.07902030842816289  0.7554862163899116  1.0000
  N   N2        1.0  0.7431626718599134  0.9209736258051747  0.24451498185089807  1.0000
  N   N3        1.0  0.1942774385551473  0.3108792063959455  0.11570900658327328  1.0000
  N   N4        1.0  0.8057347341279596  0.6891224266294598  0.88429705928327  1.0000
  N   N5        1.0  0.9081026150956506  0.6948454183945001  0.5472031734281586  1.0000
  N   N6        1.0  0.0918999740993769  0.3051478340841882  0.4527850765242292  1.0000
  N   N7        1.0  0.8200293752890816  0.4620427284368701  0.3438707041677489  1.0000
  N   N8        1.0  0.17998415263366507  0.5379599014540163  0.6561325236713104  1.0000
  Cl  Cl1       1.0  0.760633384687708  0.3638957728335939  0.5786066444997076  1.0000
  Cl  Cl2       1.0  0.23937790962438754  0.6360907511940894  0.421387464799544  1.0000
