data_image0
_chemical_formula_structural       Zn4H36C56S4Cl4O16
_chemical_formula_sum              "Zn4 H36 C56 S4 Cl4 O16"
_cell_length_a       7.562191426334233
_cell_length_b       12.562248968295606
_cell_length_c       34.67249908422927
_cell_angle_alpha    89.84831328070622
_cell_angle_beta     89.67131445876682
_cell_angle_gamma    91.52676475698478

_space_group_name_H-M_alt    "P 1"
_space_group_IT_number       1

loop_
  _space_group_symop_operation_xyz
  'x, y, z'

loop_
  _atom_site_type_symbol
  _atom_site_label
  _atom_site_symmetry_multiplicity
  _atom_site_fract_x
  _atom_site_fract_y
  _atom_site_fract_z
  _atom_site_occupancy
  Zn  Zn1       1.0  0.6784883163680391  0.008619405654670204  0.499661484825296  1.0000
  Zn  Zn2       1.0  0.32330074195548514  0.0085212306684141  0.5000228532987023  1.0000
  Zn  Zn3       1.0  0.17411414146876325  0.9762951721426346  0.00039103196294120005  1.0000
  Zn  Zn4       1.0  0.5316291016978951  0.9866485140435515  0.9997967498596481  1.0000
  H   H1        1.0  0.7057404700263061  0.9756941390176409  0.8827948050100362  1.0000
  H   H2        1.0  0.7205620695307502  0.9674972758011222  0.8111929407150316  1.0000
  H   H3        1.0  0.836448595916188  0.08639755873289802  0.6913392680500721  1.0000
  H   H4        1.0  0.3514881161017484  0.899305165242218  0.691507515401419  1.0000
  H   H5        1.0  0.3232802716739584  0.9623594103827242  0.7472292459844994  1.0000
  H   H6        1.0  0.7154677597661703  0.029613600704863102  0.7518540120350465  1.0000
  H   H7        1.0  0.7063774096456397  0.9726644704465599  0.11627913782105283  1.0000
  H   H8        1.0  0.7219314866271277  0.9639523667191698  0.18784725643991612  1.0000
  H   H9        1.0  0.8374607519527045  0.0870519545734609  0.30753356486855676  1.0000
  H   H10       1.0  0.3537183522141375  0.8987544516817251  0.30865624699346483  1.0000
  H   H11       1.0  0.32558753715030514  0.9611537355520807  0.25276397287250774  1.0000
  H   H12       1.0  0.7166702486701056  0.031316453928496905  0.2473441417663267  1.0000
  H   H13       1.0  0.010983810759867704  0.08393740549717421  0.8631208727181418  1.0000
  H   H14       1.0  0.1179089540897778  0.08805342843751869  0.9083511449614505  1.0000
  H   H15       1.0  0.022271552963154303  0.9675864372154095  0.8922537356369135  1.0000
  H   H16       1.0  0.9907756218984575  0.0035092975738920014  0.8169345443175473  1.0000
  H   H17       1.0  0.09953344766571348  0.9371536448913388  0.7794044605732608  1.0000
  H   H18       1.0  0.1054214955588932  0.0780805074906468  0.7807603087098942  1.0000
  H   H19       1.0  0.2290367669232296  0.8345405857063994  0.6379716890635692  1.0000
  H   H20       1.0  0.34831748807204826  0.831298916078005  0.5935809813013293  1.0000
  H   H21       1.0  0.20831297189622694  0.9376907323197441  0.6031128019524488  1.0000
  H   H22       1.0  0.9684856554510547  0.14657386650093676  0.6374285927961196  1.0000
  H   H23       1.0  0.8433757842146645  0.16398370449417846  0.594565050113566  1.0000
  H   H24       1.0  0.9691691438934172  0.04947845900210981  0.6000856389190332  1.0000
  H   H25       1.0  0.026000903907856796  0.9691070762985275  0.1084411975838222  1.0000
  H   H26       1.0  0.12090526401997438  0.08973486444246251  0.0918487835327113  1.0000
  H   H27       1.0  0.012070273085711798  0.08567371551722397  0.13708273649903904  1.0000
  H   H28       1.0  0.1287138030135964  0.07926902561820272  0.22392729136270625  1.0000
  H   H29       1.0  0.08948811251412539  0.940517685850672  0.2186720169069005  1.0000
  H   H30       1.0  0.9967253415822908  0.029597846541932402  0.1856440177119865  1.0000
  H   H31       1.0  0.20919604046475365  0.9367811515831264  0.39724044514530027  1.0000
  H   H32       1.0  0.3498772094343109  0.8308562576421678  0.4067947200140125  1.0000
  H   H33       1.0  0.23118759354868254  0.8335241118718171  0.36262027066858593  1.0000
  H   H34       1.0  0.9698078906724987  0.05050224890887021  0.3984772336610973  1.0000
  H   H35       1.0  0.8423367968986994  0.16421425046378596  0.40434187760043727  1.0000
  H   H36       1.0  0.9677776617653392  0.1482005612750541  0.3611699469080847  1.0000
  C   C1        1.0  0.4014361977120727  0.8072058508622248  0.5000567070792882  1.0000
  C   C2        1.0  0.5821795290208129  0.0036849402334268996  0.572467648456936  1.0000
  C   C3        1.0  0.4262734019514838  0.20968392994979723  0.4999176742462764  1.0000
  C   C4        1.0  0.5823868939832478  0.0036835624067706003  0.427053270209889  1.0000
  C   C5        1.0  0.28861985349100644  0.7783987622443646  0.0001523145181394996  1.0000
  C   C6        1.0  0.4265064998272052  0.9923012165017014  0.9275202198091463  1.0000
  C   C7        1.0  0.2564632900638911  0.18031074410176734  0.000191430036935  1.0000
  C   C8        1.0  0.42760765868943196  0.9917846689221576  0.0723959869275248  1.0000
  C   C9        1.0  0.4257333924901658  0.9990642239854141  0.8846689604428873  1.0000
  C   C10       1.0  0.5875121853450977  0.9850489981986571  0.8654791455143993  1.0000
  C   C11       1.0  0.5950268249491657  0.9809252138860172  0.8256930162914173  1.0000
  C   C12       1.0  0.4404183927393461  0.9885946972663148  0.8035707355588144  1.0000
  C   C13       1.0  0.2758566110193712  0.002560016006008  0.8226556771321327  1.0000
  C   C14       1.0  0.2682836953160645  0.012452537556257  0.8632260490248669  1.0000
  C   C15       1.0  0.44774545134134763  0.9820182545447198  0.7616338121220351  1.0000
  C   C16       1.0  0.5909417842744275  0.0020703695147120003  0.7388606959582518  1.0000
  C   C17       1.0  0.7289761681397663  0.046085582559136584  0.6757314273076176  1.0000
  C   C18       1.0  0.5909717699907873  0.9962988457980799  0.6968678539119608  1.0000
  C   C19       1.0  0.4560042552668052  0.9435115957135094  0.6760493234326574  1.0000
  C   C20       1.0  0.45138661548340764  0.9440986075477512  0.6359097081231724  1.0000
  C   C21       1.0  0.5899065986172046  0.9983579036751992  0.6152904494592164  1.0000
  C   C22       1.0  0.7324990913566651  0.048033816615429686  0.6354260238672254  1.0000
  C   C23       1.0  0.42728008741426043  0.9991676730525612  0.1152360741490313  1.0000
  C   C24       1.0  0.5888474962530524  0.9836900230814933  0.1339361297064201  1.0000
  C   C25       1.0  0.5968751185376037  0.9796046695893779  0.1737284260552343  1.0000
  C   C26       1.0  0.44298926051519766  0.9898906837968227  0.1962379000811012  1.0000
  C   C27       1.0  0.2787850756907417  0.006829715880101599  0.177700609955231  1.0000
  C   C28       1.0  0.27041888709763384  0.0148195598652023  0.1370781952008286  1.0000
  C   C29       1.0  0.44988650464627267  0.9822739734373583  0.23817704310289403  1.0000
  C   C30       1.0  0.5926907876440807  0.0026424547947953994  0.2606496868566239  1.0000
  C   C31       1.0  0.7301123215982697  0.04642394037675499  0.3234326908191107  1.0000
  C   C32       1.0  0.592680529143749  0.9962968083959752  0.3026564901942663  1.0000
  C   C33       1.0  0.45787895451824306  0.9431003711928911  0.3238314682498498  1.0000
  C   C34       1.0  0.4527491572823265  0.9436689994102562  0.363980985580028  1.0000
  C   C35       1.0  0.5906272731028109  0.9983120101444671  0.38422595826286  1.0000
  C   C36       1.0  0.7331214322358408  0.04836202237803631  0.3637276111437231  1.0000
  C   C37       1.0  0.5584625170586717  0.40088139802182354  0.5000345137685045  1.0000
  C   C38       1.0  0.2525410647951674  0.6170098504706231  0.5000766602549477  1.0000
  C   C39       1.0  0.4190827968327965  0.3263511597357223  0.5000217009547115  1.0000
  C   C40       1.0  0.3937540616438042  0.6903513793432193  0.5000664005333633  1.0000
  C   C41       1.0  0.3120235323054601  0.5107989128508663  0.5000700321936549  1.0000
  C   C42       1.0  0.4972408210583481  0.5062838762859486  0.5000579910061447  1.0000
  C   C43       1.0  0.11115487123201719  0.3667459822470747  0.00019100148974619992  1.0000
  C   C44       1.0  0.4208582467844265  0.5908792180522227  0.9999956124348728  1.0000
  C   C45       1.0  0.2510030043299025  0.29699882638755076  0.00011796513840779995  1.0000
  C   C46       1.0  0.28230745870254736  0.6615141747004003  0.00011715443383049995  1.0000
  C   C47       1.0  0.35796758051031213  0.4838103742490603  9.890743328399938e-06  1.0000
  C   C48       1.0  0.17267033341906307  0.4744039367732498  0.00012955394722519983  1.0000
  C   C49       1.0  0.09594477394293222  0.0396674331910489  0.882578254198613  1.0000
  C   C50       1.0  0.1094841555520958  0.006041983117164301  0.7988558474431285  1.0000
  C   C51       1.0  0.30151785669971065  0.8836347771126896  0.6166041596458457  1.0000
  C   C52       1.0  0.886290993793608  0.1052826774275246  0.615869362294781  1.0000
  C   C53       1.0  0.09856149306309449  0.04154927128404749  0.1178119646046056  1.0000
  C   C54       1.0  0.1150252743220435  0.015090524869485498  0.2025582639020485  1.0000
  C   C55       1.0  0.30302903051114777  0.8829333923785895  0.3837168819505905  1.0000
  C   C56       1.0  0.8861078407032822  0.10611294182184138  0.3829138530236945  1.0000
  S   S1        1.0  0.21340830273451417  0.3857302480105459  0.5000664640567294  1.0000
  S   S2        1.0  0.5983313301193289  0.6300992259469281  0.5000387785373022  1.0000
  S   S3        1.0  0.45679944585807414  0.3625787122511853  0.9999529370628651  1.0000
  S   S4        1.0  0.07573581917208119  0.5966596605239258  0.00024084554326720005  1.0000
  Cl  Cl1       1.0  0.7781711982368408  0.3742605509199707  0.5000388747642717  1.0000
  Cl  Cl2       1.0  0.03447626482836338  0.647594777161501  0.5000811680861335  1.0000
  Cl  Cl3       1.0  0.8921038662085151  0.33128522332472704  0.0003098918246848999  1.0000
  Cl  Cl4       1.0  0.641117346430356  0.6231319651964142  0.9998920544342552  1.0000
  O   O1        1.0  0.5557515617268368  0.8501194515252949  0.49993530829829075  1.0000
  O   O2        1.0  0.2556861309983276  0.8585975896633542  0.5001742221634515  1.0000
  O   O3        1.0  0.4323182569529109  0.0101817729977043  0.5562767103687137  1.0000
  O   O4        1.0  0.7303612874193063  0.0020682939573361996  0.5534993157912353  1.0000
  O   O5        1.0  0.27446833986353175  0.15888266745071183  0.5000662425259534  1.0000
  O   O6        1.0  0.5758240195440008  0.16661838906047421  0.49969056160896497  1.0000
  O   O7        1.0  0.7303909662301037  0.0020359545263062  0.4457191245061836  1.0000
  O   O8        1.0  0.43234304957775993  0.0102436960458974  0.4435204029230846  1.0000
  O   O9        1.0  0.13589196794492858  0.8231075752146283  0.0004027455181585997  1.0000
  O   O10       1.0  0.43806478549445416  0.8264934407112178  0.9999474436525589  1.0000
  O   O11       1.0  0.5778180832268303  0.9977272281695091  0.9449371573251  1.0000
  O   O12       1.0  0.280177336685135  0.9780697299400106  0.9452705120345967  1.0000
  O   O13       1.0  0.4100750503051173  0.1414157357190859  0.9999938123460694  1.0000
  O   O14       1.0  0.10952444904165047  0.1252159652040632  0.00045420848995549994  1.0000
  O   O15       1.0  0.28112196530388905  0.9771676812441327  0.055126346888165804  1.0000
  O   O16       1.0  0.5786965124281238  0.9972824085963979  0.0545046891847818  1.0000
