data_image0
_chemical_formula_structural       Cd4H20C32N20O16
_chemical_formula_sum              "Cd4 H20 C32 N20 O16"
_cell_length_a       7.95845030923429
_cell_length_b       10.63093577302016
_cell_length_c       11.767781702391042
_cell_angle_alpha    90.0001007308936
_cell_angle_beta     105.3654318813615
_cell_angle_gamma    89.99978128532108

_space_group_name_H-M_alt    "P 1"
_space_group_IT_number       1

loop_
  _space_group_symop_operation_xyz
  'x, y, z'

loop_
  _atom_site_type_symbol
  _atom_site_label
  _atom_site_symmetry_multiplicity
  _atom_site_fract_x
  _atom_site_fract_y
  _atom_site_fract_z
  _atom_site_occupancy
  Cd  Cd1       1.0  0.7452687975498545  0.7508154618018705  0.21959195749519003  1.0000
  Cd  Cd2       1.0  0.25473169612720875  0.2508141417304018  0.28040751948677917  1.0000
  Cd  Cd3       1.0  0.2547337576968615  0.24918542080709472  0.7804078558531627  1.0000
  Cd  Cd4       1.0  0.7452682529166381  0.749183918928935  0.7195918275171067  1.0000
  H   H1        1.0  0.8958499232922816  0.22928186079506932  0.4198251125747347  1.0000
  H   H2        1.0  0.10415197876647395  0.7292800382783398  0.08017713157889259  1.0000
  H   H3        1.0  0.10415133307891007  0.770718081171182  0.5801812665811212  1.0000
  H   H4        1.0  0.8958492744321729  0.2707208443339156  0.9198241483426273  1.0000
  H   H5        1.0  0.6326012306128985  0.08592329110923198  0.4444434146486244  1.0000
  H   H6        1.0  0.36739875397042  0.585918787142326  0.05555570957255898  1.0000
  H   H7        1.0  0.3673961127360811  0.9140804134599988  0.5555563158862995  1.0000
  H   H8        1.0  0.6326011945405198  0.4140811548181206  0.9444427875595522  1.0000
  H   H9        1.0  0.6788577931950709  0.9205788192494991  0.4458769072023471  1.0000
  H   H10       1.0  0.32114058203941903  0.4205740470639654  0.054125859217158685  1.0000
  H   H11       1.0  0.32113694605776993  0.07942488532631127  0.5541257564789176  1.0000
  H   H12       1.0  0.6788593664692542  0.5794268355474442  0.9458726379153004  1.0000
  H   H13       1.0  0.15239131164330638  0.9516801466780436  0.2736051387953323  1.0000
  H   H14       1.0  0.8476030018621399  0.4516798492928372  0.2263927013045971  1.0000
  H   H15       1.0  0.8476021218650657  0.0483226172442954  0.7263930423516314  1.0000
  H   H16       1.0  0.15239433938690178  0.5483182113672953  0.7736036297384956  1.0000
  H   H17       1.0  0.21301997111983437  0.9508980614494434  0.9138230646232727  1.0000
  H   H18       1.0  0.7869823712889498  0.4508986050597771  0.5861769982113713  1.0000
  H   H19       1.0  0.7869812815549578  0.04910093986005391  0.0861773654251223  1.0000
  H   H20       1.0  0.21301757669586857  0.5491003962488746  0.41382064904795607  1.0000
  C   C1        1.0  0.18581392611901745  0.10173776032662118  0.040410718081886884  1.0000
  C   C2        1.0  0.8141846807809753  0.6017384099019765  0.4595907340562205  1.0000
  C   C3        1.0  0.8141834177719288  0.8982603003376467  0.9595898623234403  1.0000
  C   C4        1.0  0.18582048067540308  0.39826247270372755  0.5404095456355833  1.0000
  C   C5        1.0  0.9279422508390025  0.1421784398102446  0.3824497697451007  1.0000
  C   C6        1.0  0.07205876701427626  0.6421767817379375  0.1175513281927323  1.0000
  C   C7        1.0  0.0720590044754346  0.8578215021543516  0.6175549096658628  1.0000
  C   C8        1.0  0.9279411825534253  0.35782316022415733  0.8824488686842784  1.0000
  C   C9        1.0  0.6670921291608422  0.007711827793656299  0.3942415829329703  1.0000
  C   C10       1.0  0.33290693051762316  0.5077056387895594  0.10575980101042859  1.0000
  C   C11       1.0  0.3329065183474639  0.9922928174265522  0.6057600805189125  1.0000
  C   C12       1.0  0.6670930179910498  0.4922952438218502  0.8942386961220308  1.0000
  C   C13       1.0  0.41803622450108685  0.9217584333273265  0.10173766554463977  1.0000
  C   C14       1.0  0.5819660532998082  0.4217582888561182  0.3982641015023346  1.0000
  C   C15       1.0  0.5819663312785436  0.07824056798053651  0.8982629976754736  1.0000
  C   C16       1.0  0.4180338952111311  0.5782416531043282  0.6017343956297836  1.0000
  C   C17       1.0  0.39980349212081  0.8374440840005236  0.9998166885558106  1.0000
  C   C18       1.0  0.6002085183277825  0.3374478159257563  0.5001849241996651  1.0000
  C   C19       1.0  0.6002055791852355  0.1625539766481978  0.0001851405225891515  1.0000
  C   C20       1.0  0.39978882292805207  0.6625474227814792  0.4998114068424042  1.0000
  C   C21       1.0  0.05897273751519799  0.9987834137303225  0.3110915097432922  1.0000
  C   C22       1.0  0.9410252590203636  0.49878183578973523  0.18890791390539613  1.0000
  C   C23       1.0  0.9410246068973362  0.0012174688876598  0.6889099205355008  1.0000
  C   C24       1.0  0.058974690549597086  0.5012171655213962  0.8110922829712734  1.0000
  C   C25       1.0  0.5348701121648815  0.9929572503417531  0.2781884994106106  1.0000
  C   C26       1.0  0.46512400152681  0.4929552150189521  0.2218076708799756  1.0000
  C   C27       1.0  0.4651285342911889  0.007045513574872998  0.7218114642956975  1.0000
  C   C28       1.0  0.5348759469841294  0.5070447269414939  0.7781908262521426  1.0000
  C   C29       1.0  0.32870850545818797  0.030381732873685497  0.12021325092760547  1.0000
  C   C30       1.0  0.6712917470868689  0.5303835761065584  0.37978668288686623  1.0000
  C   C31       1.0  0.6712914430572777  0.9696163277848268  0.8797852462038306  1.0000
  C   C32       1.0  0.32870820195244477  0.469616365854712  0.6202126641176946  1.0000
  N   N1        1.0  0.9202022031442278  0.9419856946029341  0.32821264871296296  1.0000
  N   N2        1.0  0.07979346068004388  0.44198372236239436  0.1717862673996322  1.0000
  N   N3        1.0  0.07979253399734886  0.058017069318602  0.6717866154781689  1.0000
  N   N4        1.0  0.9202051841999506  0.5580152789478987  0.8282111466879696  1.0000
  N   N5        1.0  0.8382728925475644  0.03392750612068339  0.37419371592943657  1.0000
  N   N6        1.0  0.16172603982548844  0.5339265485379129  0.1258059872838615  1.0000
  N   N7        1.0  0.16172705807463217  0.9660733764940376  0.6258081806928073  1.0000
  N   N8        1.0  0.83827260558062  0.4660733934241674  0.8741922766765312  1.0000
  N   N9        1.0  0.40394304745723275  0.07367049159502409  0.23199641882747804  1.0000
  N   N10       1.0  0.5960556930135467  0.5736695103063881  0.268002463336927  1.0000
  N   N11       1.0  0.5960542948417783  0.9263303910196609  0.7680016119615304  1.0000
  N   N12       1.0  0.403945558597691  0.426332312954358  0.7319962669675988  1.0000
  N   N13       1.0  0.5460526054722405  0.8996643392490997  0.20317145010075413  1.0000
  N   N14       1.0  0.45394977978351375  0.3996606005724033  0.2968320006660861  1.0000
  N   N15       1.0  0.45394864877863467  0.10033842466674513  0.7968315295663401  1.0000
  N   N16       1.0  0.5460488650942137  0.6003393413888531  0.703165413421857  1.0000
  N   N17       1.0  0.06960509037291018  0.12243536463704172  0.3436473580577442  1.0000
  N   N18       1.0  0.9303960230740171  0.6224350919802006  0.1563545754343919  1.0000
  N   N19       1.0  0.9303974691031197  0.8775645773275754  0.6563592542698373  1.0000
  N   N20       1.0  0.06960523012688918  0.37756484998108425  0.8436467044867868  1.0000
  O   O1        1.0  0.27701636961048587  0.863737241364511  0.903363550153017  1.0000
  O   O2        1.0  0.7229889981881427  0.3637361068948479  0.5966360659387178  1.0000
  O   O3        1.0  0.7229887913175047  0.13626364124036167  0.09663587966633712  1.0000
  O   O4        1.0  0.27700964669185163  0.6362628944154382  0.40336134814889135  1.0000
  O   O5        1.0  0.12184061766435407  0.19439859661715528  0.08174340053677298  1.0000
  O   O6        1.0  0.8781614502417624  0.6944018048916121  0.41825541882983686  1.0000
  O   O7        1.0  0.8781606334298286  0.8055985233879283  0.9182544798936049  1.0000
  O   O8        1.0  0.12183850038496044  0.3055971964211679  0.5817464777917252  1.0000
  O   O9        1.0  0.13666013522271203  0.0679269987824469  0.9315649696584174  1.0000
  O   O10       1.0  0.8633401425135999  0.5679286279313587  0.5684349657844692  1.0000
  O   O11       1.0  0.8633359050395482  0.9320691805806971  0.06843452770205256  1.0000
  O   O12       1.0  0.13666632364633807  0.43206661076938974  0.4315680966943489  1.0000
  O   O13       1.0  0.49720286669109715  0.7438745457880245  0.0069073351640937435  1.0000
  O   O14       1.0  0.5028015697282197  0.2438710494871827  0.4930928362983663  1.0000
  O   O15       1.0  0.5028022947652814  0.2561263368176725  0.99309294452771  1.0000
  O   O16       1.0  0.49719968030014156  0.7561298331201127  0.5069033443884833  1.0000
