data_image0
_chemical_formula_structural       Co8H152C184N16O48
_chemical_formula_sum              "Co8 H152 C184 N16 O48"
_cell_length_a       13.562794053267249
_cell_length_b       16.778103333946177
_cell_length_c       25.397926545048147
_cell_angle_alpha    90.0002009207456
_cell_angle_beta     90.0000396073081
_cell_angle_gamma    105.84400271009385

_space_group_name_H-M_alt    "P 1"
_space_group_IT_number       1

loop_
  _space_group_symop_operation_xyz
  'x, y, z'

loop_
  _atom_site_type_symbol
  _atom_site_label
  _atom_site_symmetry_multiplicity
  _atom_site_fract_x
  _atom_site_fract_y
  _atom_site_fract_z
  _atom_site_occupancy
  Co  Co1       1.0  0.8935635299024012  0.9081228469799426  0.718295287322789  1.0000
  Co  Co2       1.0  0.7497371530845953  0.7394738362051854  0.753428641767485  1.0000
  Co  Co3       1.0  0.10643910861291064  0.5918778173182204  0.2182952989160256  1.0000
  Co  Co4       1.0  0.2502679132186644  0.7605295187917135  0.25342831038622643  1.0000
  Co  Co5       1.0  0.10643845766512781  0.0918769469532279  0.2817057995770824  1.0000
  Co  Co6       1.0  0.2502604229503972  0.2605216194444892  0.24657087019483007  1.0000
  Co  Co7       1.0  0.8935600401743428  0.4081201168989992  0.781705787981167  1.0000
  Co  Co8       1.0  0.7497297607048025  0.2394684147139259  0.7465708078460551  1.0000
  H   H1        1.0  0.0872489138997992  0.3145808705895305  0.7193846969722842  1.0000
  H   H2        1.0  0.5732034283281635  0.8333455855221814  0.7940383329955054  1.0000
  H   H3        1.0  0.0753576314615216  0.002693377898666  0.7796628749610264  1.0000
  H   H4        1.0  0.17357049295858928  0.1506192183805055  0.7907466467483175  1.0000
  H   H5        1.0  0.9743890531913095  0.21121714308640796  0.6733077486935741  1.0000
  H   H6        1.0  0.8863363625023053  0.06170108605839889  0.6664432189716294  1.0000
  H   H7        1.0  0.14053458648115938  0.41917819012196117  0.778002999218053  1.0000
  H   H8        1.0  0.24301139577546135  0.4356785064729961  0.7331021276147639  1.0000
  H   H9        1.0  0.3675237948611354  0.45204167960862657  0.8086788112349694  1.0000
  H   H10       1.0  0.2650670067996401  0.4295896725651502  0.8536182617503273  1.0000
  H   H11       1.0  0.21001634035031458  0.5528912825589385  0.8190848673508455  1.0000
  H   H12       1.0  0.3166849234961546  0.5763568790430469  0.7768814689020117  1.0000
  H   H13       1.0  0.4334903286062399  0.5963253076847294  0.8565025799524264  1.0000
  H   H14       1.0  0.32478485054779327  0.5725805995403164  0.8977436944282005  1.0000
  H   H15       1.0  0.2743084030990417  0.6967788837269282  0.8619267325568386  1.0000
  H   H16       1.0  0.39508506311235436  0.7234478258823313  0.8928513572381149  1.0000
  H   H17       1.0  0.4742671598168684  0.718010091177227  0.8005824159095667  1.0000
  H   H18       1.0  0.35192976029697576  0.7147297058347843  0.7739841555521352  1.0000
  H   H19       1.0  0.42925585800238514  0.9959641599065635  0.7925722343876273  1.0000
  H   H20       1.0  0.5239197924258433  0.142697354210739  0.7716475044498453  1.0000
  H   H21       1.0  0.8013967983987911  0.08562983774351098  0.7636460480753371  1.0000
  H   H22       1.0  0.720359575892573  0.937659920905304  0.7842699670999805  1.0000
  H   H23       1.0  0.04304280811154372  0.852153414197083  0.8964824477994995  1.0000
  H   H24       1.0  0.020421384525761314  0.861406176994464  0.9934348570510564  1.0000
  H   H25       1.0  0.7303737733708431  0.9138974895790283  0.9679349342577837  1.0000
  H   H26       1.0  0.7510022615791385  0.8999111547265883  0.8707088747552447  1.0000
  H   H27       1.0  0.022509706181168078  0.971426060480283  0.09477540539571548  1.0000
  H   H28       1.0  0.1146697112816994  0.8983625445210989  0.1556968458315495  1.0000
  H   H29       1.0  0.8992486510546199  0.6654309094809958  0.1179144998628274  1.0000
  H   H30       1.0  0.8076732776196991  0.7384395731206651  0.0567418578612404  1.0000
  H   H31       1.0  0.8276259976300365  0.6367381949162407  0.90951765636175  1.0000
  H   H32       1.0  0.79300800481888  0.5840517998520695  0.0019001910220879  1.0000
  H   H33       1.0  0.5205554902832219  0.6689580470305784  0.0053083923275494  1.0000
  H   H34       1.0  0.5546846708845835  0.7191595835495832  0.9128014350841909  1.0000
  H   H35       1.0  0.6455223528589185  0.7254856007176115  0.1129893182555151  1.0000
  H   H36       1.0  0.5019508735482744  0.7455114991468578  0.1687316610241112  1.0000
  H   H37       1.0  0.31946448608729133  0.50089330135161  0.1279433681509019  1.0000
  H   H38       1.0  0.4631056689066709  0.4805645240600852  0.0722340986089307  1.0000
  H   H39       1.0  0.9127496820394538  0.18541891500066754  0.2193848260335614  1.0000
  H   H40       1.0  0.4267936752349968  0.6666536742281081  0.29403824140521806  1.0000
  H   H41       1.0  0.9246414860309287  0.497305532300082  0.2796641271977549  1.0000
  H   H42       1.0  0.8264289814059608  0.34937851987681506  0.2907471255587808  1.0000
  H   H43       1.0  0.02560991710201686  0.28878174554453306  0.17330543249918406  1.0000
  H   H44       1.0  0.11366279364451508  0.4382983807503037  0.16644246366472257  1.0000
  H   H45       1.0  0.859464943112897  0.08082194917304258  0.2780032594220572  1.0000
  H   H46       1.0  0.7569883032823695  0.06432012340443549  0.2331015246589345  1.0000
  H   H47       1.0  0.6324752109295062  0.04795678594127391  0.3086785186111952  1.0000
  H   H48       1.0  0.7349323582548166  0.07040968343169847  0.3536176649168468  1.0000
  H   H49       1.0  0.789985480465937  0.94710874983911  0.3190839851652001  1.0000
  H   H50       1.0  0.6833160186147892  0.9236428986006615  0.2768808870359223  1.0000
  H   H51       1.0  0.5665101426053879  0.9036749495625854  0.3565019091118558  1.0000
  H   H52       1.0  0.675216287318058  0.9274192871081863  0.39774272465821525  1.0000
  H   H53       1.0  0.7256916686099119  0.8032201671117034  0.36192588615590887  1.0000
  H   H54       1.0  0.6049138460863828  0.7765520302178999  0.3928507985711107  1.0000
  H   H55       1.0  0.5257314405122457  0.7819892087250365  0.3005818410395378  1.0000
  H   H56       1.0  0.6480685421649001  0.7852688141806253  0.2739836328730334  1.0000
  H   H57       1.0  0.5707434529445335  0.5040350920659336  0.2925726046268196  1.0000
  H   H58       1.0  0.4760782410296328  0.3573027460620465  0.2716459053899598  1.0000
  H   H59       1.0  0.19860468659463493  0.41436959651052524  0.2636452680784487  1.0000
  H   H60       1.0  0.2796377038004039  0.5623398995128  0.2842695793822045  1.0000
  H   H61       1.0  0.9569572683325518  0.647847703249873  0.39648211188020355  1.0000
  H   H62       1.0  0.9795776525460056  0.6385936658720439  0.4934345078587867  1.0000
  H   H63       1.0  0.2696273775779829  0.5861065367916893  0.4679338106773656  1.0000
  H   H64       1.0  0.24899877273672644  0.600092905118423  0.3707081699102233  1.0000
  H   H65       1.0  0.9774912528214654  0.5285744780856376  0.5947753294247278  1.0000
  H   H66       1.0  0.8853323979179633  0.6016389811902271  0.6556984810878389  1.0000
  H   H67       1.0  0.10075427792614287  0.8345710083781981  0.6179144221933868  1.0000
  H   H68       1.0  0.1923279717227403  0.7615619752785464  0.5567400688797051  1.0000
  H   H69       1.0  0.17237433128150312  0.8632636206637584  0.4095187166547021  1.0000
  H   H70       1.0  0.20699200374590992  0.9159506563698869  0.5019015224524992  1.0000
  H   H71       1.0  0.47944411202800546  0.831043190626012  0.5053080506744791  1.0000
  H   H72       1.0  0.44531525135624145  0.7808410127138572  0.41280043451588  1.0000
  H   H73       1.0  0.354480031037653  0.7745169066580148  0.6129911620571562  1.0000
  H   H74       1.0  0.49805222554314804  0.754490725039652  0.6687319356358047  1.0000
  H   H75       1.0  0.6805380588050198  0.9991074378561109  0.6279430967547555  1.0000
  H   H76       1.0  0.5368958018277395  0.0194356150214361  0.5722342346233091  1.0000
  H   H77       1.0  0.9127522252941348  0.6854207812907305  0.2806148149978824  1.0000
  H   H78       1.0  0.4267964578886776  0.16665234904667153  0.20596236016888977  1.0000
  H   H79       1.0  0.9246403491802653  0.9973076530154327  0.22033584954198202  1.0000
  H   H80       1.0  0.8264292823149046  0.8493805744882649  0.2092524714865007  1.0000
  H   H81       1.0  0.025615453379351956  0.7887857493030166  0.3266894008810723  1.0000
  H   H82       1.0  0.1136646657482814  0.9383024241217794  0.3335547180689531  1.0000
  H   H83       1.0  0.8594646601952289  0.5808222219524095  0.2219980876820387  1.0000
  H   H84       1.0  0.7569890059895457  0.564323145056818  0.2668981718211256  1.0000
  H   H85       1.0  0.6324765090160511  0.5479574940664095  0.1913222756638788  1.0000
  H   H86       1.0  0.7349327684771507  0.5704101203095605  0.1463828251491393  1.0000
  H   H87       1.0  0.7899849097876269  0.4471085110225985  0.1809166132818234  1.0000
  H   H88       1.0  0.6833163266411262  0.4236429145373037  0.2231196179977246  1.0000
  H   H89       1.0  0.5665103929306455  0.40367510509528876  0.1434985069479353  1.0000
  H   H90       1.0  0.6752173458495817  0.4274198139453489  0.1022573924724313  1.0000
  H   H91       1.0  0.7256909545167431  0.30321967004041284  0.1380735668752564  1.0000
  H   H92       1.0  0.6049134461318103  0.2765525858356597  0.1071485484630585  1.0000
  H   H93       1.0  0.5257307229370981  0.28198846188209353  0.1994170960564006  1.0000
  H   H94       1.0  0.6480678026877554  0.2852700859790787  0.22601614388107552  1.0000
  H   H95       1.0  0.570743708441924  0.0040350134108991  0.20742727757937024  1.0000
  H   H96       1.0  0.47608177748134034  0.8573012006162627  0.2283531887155874  1.0000
  H   H97       1.0  0.19860571776914773  0.914369336989992  0.23635503882391617  1.0000
  H   H98       1.0  0.2796407279846207  0.062339252769732  0.21573111979886048  1.0000
  H   H99       1.0  0.9569592903973572  0.14784452143261717  0.1035190328311657  1.0000
  H   H100      1.0  0.9795803942112682  0.1385929973850324  0.0065658361151293  1.0000
  H   H101      1.0  0.269629897886368  0.08610292461109739  0.0320657589101856  1.0000
  H   H102      1.0  0.24900099201904172  0.10008802035973471  0.1292922121441364  1.0000
  H   H103      1.0  0.9774905976940502  0.028573113191192996  0.9052245003043424  1.0000
  H   H104      1.0  0.885333751142376  0.10163725011060619  0.8443018786710184  1.0000
  H   H105      1.0  0.10075333651093392  0.33456888444861477  0.8820854058382608  1.0000
  H   H106      1.0  0.1923257602261828  0.26156021940002455  0.9432588353051656  1.0000
  H   H107      1.0  0.172371147691706  0.3632603577867002  0.09048067440529188  1.0000
  H   H108      1.0  0.20699218811430597  0.4159492321216901  0.9980989272142579  1.0000
  H   H109      1.0  0.47944396522301247  0.3310429845962943  0.9946926945733024  1.0000
  H   H110      1.0  0.44531268327095563  0.2808395887129649  0.0871992580811849  1.0000
  H   H111      1.0  0.3544788972750723  0.27451419285680606  0.8870097999795731  1.0000
  H   H112      1.0  0.49805111401661856  0.2544882947815664  0.8312678509440445  1.0000
  H   H113      1.0  0.6805365552201437  0.4991058726762462  0.8720577187480741  1.0000
  H   H114      1.0  0.5368938975396134  0.5194346492609441  0.9277665945568502  1.0000
  H   H115      1.0  0.0872493558057671  0.8145808775188428  0.7806154733999123  1.0000
  H   H116      1.0  0.5732050428396747  0.3333473570435643  0.7059620580296411  1.0000
  H   H117      1.0  0.07535787158419542  0.5026930214660723  0.7203357785014148  1.0000
  H   H118      1.0  0.17357069597840544  0.6506187951347969  0.7092519926731454  1.0000
  H   H119      1.0  0.9743896493383415  0.7112174277658028  0.82669171707024  1.0000
  H   H120      1.0  0.8863371904588249  0.5617020316709612  0.8335566545708558  1.0000
  H   H121      1.0  0.14053462333338732  0.9191772241479795  0.7219974337437235  1.0000
  H   H122      1.0  0.2430097883014498  0.9356790492073798  0.7668979873077859  1.0000
  H   H123      1.0  0.3675228806556276  0.9520423866729144  0.6913217808213901  1.0000
  H   H124      1.0  0.26506594216016316  0.9295901087349847  0.6463826345164918  1.0000
  H   H125      1.0  0.21001355737929117  0.052891042680393185  0.6809163142682806  1.0000
  H   H126      1.0  0.3166822818001904  0.0763568935660217  0.7231194123974164  1.0000
  H   H127      1.0  0.43348868640999416  0.0963242234044301  0.6434983903208645  1.0000
  H   H128      1.0  0.3247825416973241  0.072579885858822  0.602257574774498  1.0000
  H   H129      1.0  0.274308315494082  0.19678024531074806  0.6380736258126022  1.0000
  H   H130      1.0  0.3950855115267657  0.22344652354469466  0.6071479259292687  1.0000
  H   H131      1.0  0.47426854359175497  0.21801120369741506  0.6994176709289733  1.0000
  H   H132      1.0  0.3519309133386983  0.21473221744150092  0.7260158790961028  1.0000
  H   H133      1.0  0.4292574774202151  0.4959659402630194  0.7074273010755121  1.0000
  H   H134      1.0  0.5239231069915178  0.6426995253659626  0.7283520316492442  1.0000
  H   H135      1.0  0.8013956172812442  0.5856295771621374  0.7363550313545417  1.0000
  H   H136      1.0  0.7203608054450754  0.4376605122075645  0.7157311137848268  1.0000
  H   H137      1.0  0.04304197834252221  0.3521527088221247  0.6035181875540303  1.0000
  H   H138      1.0  0.0204213852992225  0.3614061266474592  0.506565791574694  1.0000
  H   H139      1.0  0.7303744990461991  0.4138951154413988  0.532065701292936  1.0000
  H   H140      1.0  0.7509999453379449  0.3999081261532495  0.6292921295246359  1.0000
  H   H141      1.0  0.022508731283188872  0.47142593433800056  0.4052245762767086  1.0000
  H   H142      1.0  0.1146690610485095  0.3983614319414314  0.3443022120797323  1.0000
  H   H143      1.0  0.8992451775781162  0.16543002324511488  0.3820854835086749  1.0000
  H   H144      1.0  0.807672221212421  0.23843905669877324  0.4432602305554241  1.0000
  H   H145      1.0  0.827626696971059  0.1367398895199798  0.5904804015846707  1.0000
  H   H146      1.0  0.7930069231572858  0.08405099445190697  0.49809798951726236  1.0000
  H   H147      1.0  0.5205541883869741  0.16895660154067113  0.4946922487588594  1.0000
  H   H148      1.0  0.5546852613481619  0.21915878050891988  0.5871990774520057  1.0000
  H   H149      1.0  0.6455185891485441  0.22548164675769294  0.3870095311077364  1.0000
  H   H150      1.0  0.5019473409024826  0.2455084482801837  0.3312683637970509  1.0000
  H   H151      1.0  0.31946024160929903  0.0008923543093857  0.3720568089456577  1.0000
  H   H152      1.0  0.4631020809268874  0.9805629380390712  0.42776567107559055  1.0000
  C   C1        1.0  0.0571992107099675  0.0510558126877356  0.7561255733986698  1.0000
  C   C2        1.0  0.1117563195122599  0.1330491383361476  0.7622718496655736  1.0000
  C   C3        1.0  0.08329266672458857  0.19388487627606565  0.7324021540345385  1.0000
  C   C4        1.0  0.0017924337241055138  0.1669355150003113  0.6963897192772207  1.0000
  C   C5        1.0  0.951707582778752  0.08371681406751459  0.6926902809598802  1.0000
  C   C6        1.0  0.20608942781146314  0.31860547793397137  0.7706015026541948  1.0000
  C   C7        1.0  0.21765301553235622  0.41082024960499547  0.7725383842320993  1.0000
  C   C8        1.0  0.2894810275763858  0.4577819932207986  0.8149714433586154  1.0000
  C   C9        1.0  0.28957196673332664  0.5488087365677357  0.815494426519102  1.0000
  C   C10       1.0  0.353666243817031  0.6000335738177185  0.8594106811348468  1.0000
  C   C11       1.0  0.3530852379226488  0.6912476852354459  0.8584173988825513  1.0000
  C   C12       1.0  0.4027966607815756  0.734927858005932  0.8080783100535386  1.0000
  C   C13       1.0  0.4236548585743733  0.8281140421900305  0.8100250377768107  1.0000
  C   C14       1.0  0.5669078297445935  0.9537213986344567  0.7893699804456276  1.0000
  C   C15       1.0  0.5115270646795693  0.0134457853358398  0.7862375193469759  1.0000
  C   C16       1.0  0.5643815024770261  0.09495507045599538  0.7748366930432198  1.0000
  C   C17       1.0  0.7191726112778409  0.0633267727212186  0.7703878961097317  1.0000
  C   C18       1.0  0.6735569062240288  0.9810270764289583  0.7817146822808709  1.0000
  C   C19       1.0  0.9167132587142388  0.8719303243510693  0.8203185384709286  1.0000
  C   C20       1.0  0.8983735361020492  0.8748027958810524  0.877473991590115  1.0000
  C   C21       1.0  0.9738274764243046  0.8640877832421764  0.912453619991112  1.0000
  C   C22       1.0  0.961725246995023  0.8698690816418093  0.9664525207388621  1.0000
  C   C23       1.0  0.8737617687532122  0.8884075345042531  0.9859844356584232  1.0000
  C   C24       1.0  0.7980961087597649  0.8999884424686185  0.9516406869051934  1.0000
  C   C25       1.0  0.8101033141046727  0.8922824596702483  0.8977185618238508  1.0000
  C   C26       1.0  0.910741895762378  0.8582693834994259  0.0730311409221116  1.0000
  C   C27       1.0  0.9961005857436122  0.9046719956103217  0.10051258763089518  1.0000
  C   C28       1.0  0.04694812532663667  0.86373674924387  0.1342714222006904  1.0000
  C   C29       1.0  0.012618330834335757  0.7774820128404584  0.14041276190135932  1.0000
  C   C30       1.0  0.9258341359871952  0.7323017497940469  0.1126326552018782  1.0000
  C   C31       1.0  0.8745853687496776  0.772542784940647  0.0789539591285973  1.0000
  C   C32       1.0  0.06718341606944025  0.7333623189458719  0.1759234933868754  1.0000
  C   C33       1.0  0.7090483183870759  0.7069104772173065  0.8492655537319324  1.0000
  C   C34       1.0  0.692249233303663  0.6801596007852524  0.9049771540465342  1.0000
  C   C35       1.0  0.7602004038905578  0.6430622016451081  0.9306185865439716  1.0000
  C   C36       1.0  0.7416880910703653  0.6140569236200902  0.9818786394346475  1.0000
  C   C37       1.0  0.654712053260745  0.6227937370121805  0.0085968205189246  1.0000
  C   C38       1.0  0.5875598774204177  0.6618024494618168  0.9842434268331531  1.0000
  C   C39       1.0  0.6068260586474851  0.6897915654202009  0.9326278320639787  1.0000
  C   C40       1.0  0.5597005895061925  0.6030889532950069  0.08859346808435478  1.0000
  C   C41       1.0  0.5730208812677232  0.677630419941245  0.11558355568726598  1.0000
  C   C42       1.0  0.4934917578925848  0.6881832444487229  0.1469313880486709  1.0000
  C   C43       1.0  0.4012938519524667  0.6251606393343038  0.1508702022127224  1.0000
  C   C44       1.0  0.3904435472475213  0.5501247930526248  0.12410021119211478  1.0000
  C   C45       1.0  0.4699453272516152  0.5386464939240483  0.0929567251398709  1.0000
  C   C46       1.0  0.3156205004913559  0.6385674419401396  0.1830496007179292  1.0000
  C   C47       1.0  0.9427974068707741  0.4489423350166959  0.2561267198103181  1.0000
  C   C48       1.0  0.888242322103636  0.36694842792342547  0.2622727855753126  1.0000
  C   C49       1.0  0.9167079762498958  0.3061143692867318  0.232401383945799  1.0000
  C   C50       1.0  0.9982056675779346  0.3330628928673747  0.1963886477981092  1.0000
  C   C51       1.0  0.04829177217115438  0.41628095265498627  0.19268984438573966  1.0000
  C   C52       1.0  0.7939120804660647  0.18139399824899263  0.2706011853344279  1.0000
  C   C53       1.0  0.7823460781079135  0.0891786176418776  0.2725378483073513  1.0000
  C   C54       1.0  0.7105185278792234  0.04221589106151669  0.3149711658180792  1.0000
  C   C55       1.0  0.7104288958044834  0.951190654282925  0.3154939185763723  1.0000
  C   C56       1.0  0.6463338194697881  0.8999654618547266  0.3594100307498351  1.0000
  C   C57       1.0  0.6469150308693157  0.808751964002525  0.35841693037788497  1.0000
  C   C58       1.0  0.5972019646399643  0.7650714870815988  0.3080777218866046  1.0000
  C   C59       1.0  0.5763428271046819  0.6718846947287744  0.3100250128267206  1.0000
  C   C60       1.0  0.43309020444959867  0.5462784528770755  0.2893688238202756  1.0000
  C   C61       1.0  0.4884742740576654  0.4865575017099103  0.2862370127705134  1.0000
  C   C62       1.0  0.4356193804366483  0.4050469087610508  0.2748363714420776  1.0000
  C   C63       1.0  0.2808268928211248  0.4366733206634379  0.2703860167199466  1.0000
  C   C64       1.0  0.3264405737442003  0.5189733481369243  0.2817138170553477  1.0000
  C   C65       1.0  0.08328781575349357  0.6280740512990377  0.32031980697846757  1.0000
  C   C66       1.0  0.10162573928249691  0.6251982066324189  0.3774744726301265  1.0000
  C   C67       1.0  0.02617191605362725  0.6359134301275801  0.412453704723454  1.0000
  C   C68       1.0  0.03827349092311752  0.6301299790213761  0.4664518089703265  1.0000
  C   C69       1.0  0.1262376610373792  0.6115935025549106  0.485983712835484  1.0000
  C   C70       1.0  0.20190488975374876  0.600013007820742  0.4516387835232294  1.0000
  C   C71       1.0  0.18989623787496163  0.607719284424185  0.3977170657166411  1.0000
  C   C72       1.0  0.08925899045007675  0.6417310239893368  0.5730302169979282  1.0000
  C   C73       1.0  0.0039013387265925234  0.5953291974488408  0.6005138871286846  1.0000
  C   C74       1.0  0.9530535923792198  0.6362658860637467  0.6342719814311479  1.0000
  C   C75       1.0  0.9873858285472606  0.7225212800928841  0.6404115655089626  1.0000
  C   C76       1.0  0.07417045900203338  0.767700756482604  0.6126320186469272  1.0000
  C   C77       1.0  0.12541763863975322  0.7274595176146832  0.5789532476851562  1.0000
  C   C78       1.0  0.9328271662336292  0.7666467661348905  0.6759219859668875  1.0000
  C   C79       1.0  0.29094823261632297  0.793089115086282  0.3492641316751843  1.0000
  C   C80       1.0  0.3077489790578056  0.8198403280600883  0.4049777689682088  1.0000
  C   C81       1.0  0.23980031542807723  0.8569385023817091  0.43062044416069517  1.0000
  C   C82       1.0  0.25831206241014115  0.8859440890489408  0.4818801774971746  1.0000
  C   C83       1.0  0.34529071861203414  0.8772081414357941  0.5085981122561734  1.0000
  C   C84       1.0  0.4124397553743863  0.8381991966593036  0.4842441225723064  1.0000
  C   C85       1.0  0.3931735123044291  0.8102079112556382  0.4326280619770558  1.0000
  C   C86       1.0  0.44030108623380215  0.8969115483609612  0.5885940527768128  1.0000
  C   C87       1.0  0.426982359682249  0.8223702451174829  0.6155843559582763  1.0000
  C   C88       1.0  0.5065120056537182  0.8118188486799908  0.6469321927580296  1.0000
  C   C89       1.0  0.5987142384161073  0.874843337952633  0.6508688246356512  1.0000
  C   C90       1.0  0.6095591936088027  0.9498765425393998  0.624099405748396  1.0000
  C   C91       1.0  0.5300550970640073  0.9613546528810629  0.5929574923522409  1.0000
  C   C92       1.0  0.6843875866574649  0.8614385876303174  0.6830486169157411  1.0000
  C   C93       1.0  0.9428004536215014  0.9489458384833255  0.24387275737243638  1.0000
  C   C94       1.0  0.8882450285088836  0.8669531330918687  0.2377260873736304  1.0000
  C   C95       1.0  0.9167106847581151  0.8061167766591097  0.2675961767372428  1.0000
  C   C96       1.0  0.9982111265858009  0.8330667574826122  0.303607036563605  1.0000
  C   C97       1.0  0.04829555987344487  0.9162842193139791  0.3073076560782084  1.0000
  C   C98       1.0  0.7939112937234396  0.681394934842487  0.22939840304738368  1.0000
  C   C99       1.0  0.7823462311433715  0.5891801624681888  0.2274623089350598  1.0000
  C   C100      1.0  0.7105192763008006  0.5422171804542374  0.18502964354022566  1.0000
  C   C101      1.0  0.710429074574769  0.4511904374613067  0.18450705411280674  1.0000
  C   C102      1.0  0.6463342688893476  0.39996621940862537  0.1405900120318293  1.0000
  C   C103      1.0  0.6469135910927335  0.3087514877315698  0.1415829005501692  1.0000
  C   C104      1.0  0.5972004845421492  0.2650706947005616  0.1919212019122938  1.0000
  C   C105      1.0  0.5763435527813172  0.1718838916719889  0.18997526165438933  1.0000
  C   C106      1.0  0.4330922653007788  0.046277155484517586  0.21062992525367008  1.0000
  C   C107      1.0  0.4884741854563969  0.9865540082421447  0.2137627800869026  1.0000
  C   C108      1.0  0.43561932999924846  0.9050434840169927  0.2251636063891453  1.0000
  C   C109      1.0  0.2808291674611639  0.9366724016618377  0.22961397825523733  1.0000
  C   C110      1.0  0.32644286905342307  0.018972716446931805  0.2182867983515209  1.0000
  C   C111      1.0  0.08328725399213971  0.12806946887526752  0.1796821546957474  1.0000
  C   C112      1.0  0.1016300372666876  0.12519514045310837  0.1225270953078876  1.0000
  C   C113      1.0  0.026173258162842206  0.13590829337366023  0.0875466794383541  1.0000
  C   C114      1.0  0.03827537665338808  0.13012885328225104  0.033548959891526  1.0000
  C   C115      1.0  0.1262394813834078  0.11159225907491079  0.0140162575083806  1.0000
  C   C116      1.0  0.2019074646083183  0.10000949386435558  0.04836000625988391  1.0000
  C   C117      1.0  0.18989952183184042  0.10771547630753275  0.1022813438752266  1.0000
  C   C118      1.0  0.0892567244238123  0.14172916991627457  0.9269695522427811  1.0000
  C   C119      1.0  0.0039023480833507017  0.095328418226984  0.8994881055369461  1.0000
  C   C120      1.0  0.9530538622382564  0.1362630446845543  0.8657280897674653  1.0000
  C   C121      1.0  0.987382919302945  0.22251778073989206  0.8595883249983771  1.0000
  C   C122      1.0  0.074165848119442  0.26769866263315123  0.8873684316983484  1.0000
  C   C123      1.0  0.1254153527878685  0.22745762784056464  0.9210475215046898  1.0000
  C   C124      1.0  0.9328185714967745  0.26663747498492535  0.8240768060471453  1.0000
  C   C125      1.0  0.29094682347377443  0.2930886939796551  0.1507327770354649  1.0000
  C   C126      1.0  0.3077484406178286  0.3198383327168273  0.095020782986964  1.0000
  C   C127      1.0  0.2397981053509639  0.3569382100681366  0.0693797442254862  1.0000
  C   C128      1.0  0.2583095828517799  0.3859410098831759  0.0181196913317763  1.0000
  C   C129      1.0  0.3452883485036011  0.3772079145164469  0.9914030851840323  1.0000
  C   C130      1.0  0.41244073317312063  0.3381998216181188  0.0157560851376317  1.0000
  C   C131      1.0  0.3931710866762401  0.3102069872862926  0.0673716799018536  1.0000
  C   C132      1.0  0.44029918576861593  0.39691083957613665  0.9114064376163284  1.0000
  C   C133      1.0  0.42697942260683414  0.3223687537290444  0.8844159562798666  1.0000
  C   C134      1.0  0.506508754813133  0.3118165487764344  0.8530689113850798  1.0000
  C   C135      1.0  0.5987073981841603  0.3748391542448599  0.8491304909540816  1.0000
  C   C136      1.0  0.6095562280286159  0.4498749998208922  0.8759004819744263  1.0000
  C   C137      1.0  0.5300547677937502  0.4613520601949331  0.9070431805594268  1.0000
  C   C138      1.0  0.6843794836139665  0.36143297048468526  0.8169506987164397  1.0000
  C   C139      1.0  0.057201630973793376  0.5510574575016208  0.7438731858902301  1.0000
  C   C140      1.0  0.11175724434067294  0.633050745394037  0.7377267263916779  1.0000
  C   C141      1.0  0.08329442897336758  0.6938866637443084  0.7675973405580194  1.0000
  C   C142      1.0  0.001795262784185165  0.666938139456839  0.8036096829725068  1.0000
  C   C143      1.0  0.9517089493630876  0.5837194601202853  0.8073096675829063  1.0000
  C   C144      1.0  0.20609106218876855  0.8186070351372478  0.7293983266353834  1.0000
  C   C145      1.0  0.21765295973599316  0.9108211748752524  0.7274616636602643  1.0000
  C   C146      1.0  0.2894795637059104  0.957783281552679  0.6850291336144992  1.0000
  C   C147      1.0  0.28956940461049635  0.04880913788375809  0.6845063808569662  1.0000
  C   C148      1.0  0.3536650095455869  0.10003371111228891  0.6405902686828782  1.0000
  C   C149      1.0  0.3530856906649333  0.19124844877274674  0.641582581590761  1.0000
  C   C150      1.0  0.4027989657234626  0.23492954524498083  0.6919213963498763  1.0000
  C   C151      1.0  0.42365694817013366  0.3281150981423692  0.6899748928739626  1.0000
  C   C152      1.0  0.5669088333956225  0.45372133964242767  0.7106314756132049  1.0000
  C   C153      1.0  0.5115278113976842  0.5134447700780456  0.7137632866663993  1.0000
  C   C154      1.0  0.5643812301555684  0.5949553623165115  0.7251623530628493  1.0000
  C   C155      1.0  0.7191728824536837  0.5633264722077057  0.7296138889807366  1.0000
  C   C156      1.0  0.6735583531603169  0.4810283026872425  0.7182864823802717  1.0000
  C   C157      1.0  0.9167106934913251  0.37192636042014027  0.6796804924556311  1.0000
  C   C158      1.0  0.8983720325320802  0.37480220473393894  0.6225258268038374  1.0000
  C   C159      1.0  0.9738294319701523  0.36408884130518254  0.5875458072474657  1.0000
  C   C160      1.0  0.9617268129520938  0.3698691946501  0.5335480967297316  1.0000
  C   C161      1.0  0.8737627407276278  0.38840814897490367  0.5140165866003983  1.0000
  C   C162      1.0  0.7980960406096783  0.39998802450583787  0.5483603347132515  1.0000
  C   C163      1.0  0.8101022713678815  0.39228112729143305  0.6022820525186745  1.0000
  C   C164      1.0  0.9107436236050148  0.35827062859776493  0.4269696887054338  1.0000
  C   C165      1.0  0.9960986453787226  0.4046712149759841  0.3994864123056843  1.0000
  C   C166      1.0  0.04694639172609531  0.36373452636107834  0.365728318003221  1.0000
  C   C167      1.0  0.012613737897709086  0.27747789322577177  0.3595883401909603  1.0000
  C   C168      1.0  0.9258299427636272  0.23230089504839668  0.38736867452188756  1.0000
  C   C169      1.0  0.8745829719550995  0.27254275346762574  0.4210470517514864  1.0000
  C   C170      1.0  0.06717240021331608  0.23335240718731848  0.3240791009318187  1.0000
  C   C171      1.0  0.709051222887936  0.20691191653703098  0.6507357740268773  1.0000
  C   C172      1.0  0.692251213878009  0.18016070391841765  0.5950229241998457  1.0000
  C   C173      1.0  0.7602004061061647  0.14306191039356966  0.5693790678079509  1.0000
  C   C174      1.0  0.7416885481833972  0.11405818203099469  0.5181193344736101  1.0000
  C   C175      1.0  0.6547092654932809  0.12279227098903077  0.49140218717819545  1.0000
  C   C176      1.0  0.5875589627015997  0.16180183461474232  0.5157569643284106  1.0000
  C   C177      1.0  0.6068258453120164  0.18979064251288952  0.5673726311879649  1.0000
  C   C178      1.0  0.5596977427828946  0.1030876246084276  0.41140703412175833  1.0000
  C   C179      1.0  0.573016997932875  0.1776283086486714  0.3844155497408863  1.0000
  C   C180      1.0  0.49348703219216355  0.188180943840706  0.3530685004083765  1.0000
  C   C181      1.0  0.4012843817700826  0.1251552154630673  0.3491318685292342  1.0000
  C   C182      1.0  0.39044111026706924  0.0501226311332559  0.3759008936845945  1.0000
  C   C183      1.0  0.46994246592336  0.0386451389375466  0.40704438201267823  1.0000
  C   C184      1.0  0.31561124235923177  0.13856058533906426  0.3169524699828372  1.0000
  N   N1        1.0  0.9777149921391342  0.0252493062043015  0.7222772786537349  1.0000
  N   N2        1.0  0.12592257816555733  0.27776244398001637  0.7381507600614369  1.0000
  N   N3        1.0  0.5242665870189073  0.8697664368568566  0.797865450486185  1.0000
  N   N4        1.0  0.6664042346304908  0.12072600815490377  0.7668699495051926  1.0000
  N   N5        1.0  0.022279828442570693  0.47474801720099435  0.2222773622690966  1.0000
  N   N6        1.0  0.8740758717612492  0.22223683517631798  0.2381497794348917  1.0000
  N   N7        1.0  0.47573073818589506  0.6302334655168096  0.2978656857810549  1.0000
  N   N8        1.0  0.33359862507530375  0.3792753045442296  0.2668695308233993  1.0000
  N   N9        1.0  0.022286244941959472  0.9747548235295582  0.2777210521205404  1.0000
  N   N10       1.0  0.8740792984573105  0.7222392082506984  0.2618479644430067  1.0000
  N   N11       1.0  0.47573371685565036  0.1302327368134257  0.20213406148094043  1.0000
  N   N12       1.0  0.33359975639661604  0.8792731672818732  0.2331303499284729  1.0000
  N   N13       1.0  0.9777179433706848  0.5252523941629903  0.7777221496990094  1.0000
  N   N14       1.0  0.12592432117127572  0.7777641967962552  0.7618489450685217  1.0000
  N   N15       1.0  0.5242673533992389  0.36976570709737905  0.7021346136515306  1.0000
  N   N16       1.0  0.666401359028697  0.6207251078782221  0.7331299811451119  1.0000
  O   O1        1.0  0.26002234812153807  0.2831515905958852  0.7953007316106095  1.0000
  O   O2        1.0  0.35797812074041957  0.8639421419438804  0.8207743701478805  1.0000
  O   O3        1.0  0.8401351137100331  0.8716365166545896  0.7884379689492321  1.0000
  O   O4        1.0  0.0037494713451522665  0.8736764144192078  0.8026287411946456  1.0000
  O   O5        1.0  0.8587441075178859  0.8980906896595258  0.0389472930409127  1.0000
  O   O6        1.0  0.037905294424355425  0.6538044020774763  0.1749398507157167  1.0000
  O   O7        1.0  0.13909993597251719  0.775831174601656  0.2048345773383673  1.0000
  O   O8        1.0  0.6445825705282928  0.7358513563906257  0.824589939261692  1.0000
  O   O9        1.0  0.789932472537643  0.6997039864908601  0.8252462765081248  1.0000
  O   O10       1.0  0.6405227630678139  0.5903612340963846  0.05860952429506481  1.0000
  O   O11       1.0  0.2276046518427606  0.5861518393464917  0.17817629129795878  1.0000
  O   O12       1.0  0.3355833274877895  0.7017476200642107  0.21348720184690254  1.0000
  O   O13       1.0  0.7399782965758276  0.2168474145679085  0.2953000833376791  1.0000
  O   O14       1.0  0.6420181260613447  0.6360566590661633  0.32077428582517337  1.0000
  O   O15       1.0  0.15987236692364357  0.6283738644718396  0.2884428096403724  1.0000
  O   O16       1.0  0.9962508195279938  0.6263235180830121  0.3026303382133761  1.0000
  O   O17       1.0  0.14125297744777754  0.6019095106071931  0.5389462954765278  1.0000
  O   O18       1.0  0.9620984388934628  0.8462040543631841  0.6749440511855695  1.0000
  O   O19       1.0  0.8609084329261518  0.7241756058322367  0.7048305825834121  1.0000
  O   O20       1.0  0.35541357809974267  0.7641493259142604  0.32458650474012524  1.0000
  O   O21       1.0  0.2100679919256692  0.8002985601873788  0.3252412981490167  1.0000
  O   O22       1.0  0.3594790211310013  0.9096397063686226  0.5586101091368718  1.0000
  O   O23       1.0  0.7724060620002292  0.9138510648592161  0.67817861128038  1.0000
  O   O24       1.0  0.6644158035562808  0.798257969195127  0.7134852764161295  1.0000
  O   O25       1.0  0.739977107382721  0.7168494410274208  0.20469917409145924  1.0000
  O   O26       1.0  0.6420212368753653  0.13605641182346767  0.1792259292842076  1.0000
  O   O27       1.0  0.1598648703972643  0.12836389577379487  0.2115635116839272  1.0000
  O   O28       1.0  0.9962517787901531  0.1263233791575828  0.1973711645063005  1.0000
  O   O29       1.0  0.14125545892773772  0.10190848366030988  0.9610530063919356  1.0000
  O   O30       1.0  0.9620966931405446  0.346195391850955  0.825059661252439  1.0000
  O   O31       1.0  0.8609018427631908  0.22416799977546734  0.7951653283619606  1.0000
  O   O32       1.0  0.3554126822726076  0.2641459565004922  0.1754079977706411  1.0000
  O   O33       1.0  0.2100632958134057  0.3002970433647717  0.17475244799447856  1.0000
  O   O34       1.0  0.35947680337649496  0.4096379392210778  0.9413899876719327  1.0000
  O   O35       1.0  0.7723950124933195  0.4138498118328684  0.8218247956036535  1.0000
  O   O36       1.0  0.6644173940497495  0.29825279271699395  0.7865142787863846  1.0000
  O   O37       1.0  0.2600229535581562  0.7831523790065091  0.7046990348974163  1.0000
  O   O38       1.0  0.35798038318347386  0.36394375265301443  0.6792260136089254  1.0000
  O   O39       1.0  0.8401264620917388  0.37162530849516884  0.711557489792348  1.0000
  O   O40       1.0  0.003747591825714423  0.3736744157754543  0.6973687800190405  1.0000
  O   O41       1.0  0.8587466868856665  0.3980921405674209  0.4610532164933687  1.0000
  O   O42       1.0  0.03790281124315702  0.15379573921597972  0.32505664198123435  1.0000
  O   O43       1.0  0.13909228861072617  0.2758248069477887  0.2951705043169497  1.0000
  O   O44       1.0  0.6445870324931277  0.2358529451644884  0.6754126134977342  1.0000
  O   O45       1.0  0.7899322010088383  0.1997024717887541  0.67475860755318  1.0000
  O   O46       1.0  0.6405181241946919  0.0903588463414309  0.4413905840277508  1.0000
  O   O47       1.0  0.22759265607575682  0.0861499664148297  0.3218224756203298  1.0000
  O   O48       1.0  0.3355845003209126  0.20174120447990157  0.2865158104827188  1.0000
