data_image0
_chemical_formula_structural       Ba2H20C16N4O14
_chemical_formula_sum              "Ba2 H20 C16 N4 O14"
_cell_length_a       4.5924625523836
_cell_length_b       7.0548514385806556
_cell_length_c       17.942558250833937
_cell_angle_alpha    88.69642025248858
_cell_angle_beta     85.85062265802691
_cell_angle_gamma    70.80083100464621

_space_group_name_H-M_alt    "P 1"
_space_group_IT_number       1

loop_
  _space_group_symop_operation_xyz
  'x, y, z'

loop_
  _atom_site_type_symbol
  _atom_site_label
  _atom_site_symmetry_multiplicity
  _atom_site_fract_x
  _atom_site_fract_y
  _atom_site_fract_z
  _atom_site_occupancy
  Ba  Ba1       1.0  0.42200789204745354  0.1586276602295413  0.2501358966756868  1.0000
  Ba  Ba2       1.0  0.5779942695836265  0.8413711759785799  0.7498637700219888  1.0000
  H   H1        1.0  0.8437371351568289  0.8541899973884314  0.4536206669268593  1.0000
  H   H2        1.0  0.28169386448962563  0.8660718673018336  0.04098203321009921  1.0000
  H   H3        1.0  0.1562516714900894  0.1458223562392078  0.5463796726862356  1.0000
  H   H4        1.0  0.7183186229575115  0.1339194559745067  0.9590175192491371  1.0000
  H   H5        1.0  0.8936565540112869  0.660726936552166  0.3876722653020792  1.0000
  H   H6        1.0  0.45006847483821844  0.6759919259829629  0.10605788918557121  1.0000
  H   H7        1.0  0.10632862650630408  0.3392839223226716  0.6123287067626606  1.0000
  H   H8        1.0  0.5499462873470903  0.3239948937490452  0.8939411048828134  1.0000
  H   H9        1.0  0.16017976870709555  0.76933199106702  0.5613347422528676  1.0000
  H   H10       1.0  0.07496775896586176  0.7603344093484664  0.9337117894637643  1.0000
  H   H11       1.0  0.8398097809214067  0.23067886233132376  0.43866615460662217  1.0000
  H   H12       1.0  0.9250322066614131  0.2396644303120112  0.0662884723690524  1.0000
  H   H13       1.0  0.413349635363126  0.8374184694265736  0.49500441617483665  1.0000
  H   H14       1.0  0.7493098671162459  0.8370762653223452  0.9988895077235539  1.0000
  H   H15       1.0  0.5866436305774129  0.1625893779184793  0.5049953274447745  1.0000
  H   H16       1.0  0.25068587542047993  0.1629135803448065  0.0011114603355934997  1.0000
  H   H17       1.0  0.6519348488044515  0.5621669806517674  0.2890558170898601  1.0000
  H   H18       1.0  0.7882513753163067  0.5588672532533678  0.2091874204498083  1.0000
  H   H19       1.0  0.34807031909802777  0.437825852496843  0.7109444059958818  1.0000
  H   H20       1.0  0.21175722690173165  0.4411360769743097  0.7908137692932443  1.0000
  C   C1        1.0  0.139044251302721  0.865608036277429  0.35594866148810667  1.0000
  C   C2        1.0  0.9950372235076868  0.8691945023395534  0.1419968531648337  1.0000
  C   C3        1.0  0.860930040782641  0.1344028341463144  0.644050825992224  1.0000
  C   C4        1.0  0.004981715974764705  0.130801314242234  0.8580036648072635  1.0000
  C   C5        1.0  0.013580833202659886  0.7470425299205703  0.41570531721130527  1.0000
  C   C6        1.0  0.23501052172449738  0.7561703871418289  0.0800233351414192  1.0000
  C   C7        1.0  0.9864094708557827  0.25296682253436137  0.5842955793620703  1.0000
  C   C8        1.0  0.7650056820346834  0.24381793008122798  0.9199750640779456  1.0000
  C   C9        1.0  0.3518552063483752  0.7090370848366094  0.5185301346790254  1.0000
  C   C10       1.0  0.9416340231171604  0.7057429848055604  0.9776484919895196  1.0000
  C   C11       1.0  0.6481343547284838  0.2909737678476176  0.48147020464795537  1.0000
  C   C12       1.0  0.05836893733316372  0.2942498525095161  0.022352883763865305  1.0000
  C   C13       1.0  0.37833969598451483  0.41922058876219387  0.4402978826446002  1.0000
  C   C14       1.0  0.19811467191559032  0.4270007111825008  0.0612122906684291  1.0000
  C   C15       1.0  0.6216411039738148  0.5807902763032544  0.5597037221578987  1.0000
  C   C16       1.0  0.8018919490091108  0.572993618743034  0.9387867800357768  1.0000
  N   N1        1.0  0.2515932544503769  0.6136071684983692  0.45915269976715223  1.0000
  N   N2        1.0  0.1347576962864282  0.6178444078044478  0.0384392199805816  1.0000
  N   N3        1.0  0.7483956194825507  0.3864006857514112  0.5408482341227341  1.0000
  N   N4        1.0  0.8652467959204699  0.38214542619559916  0.9615610401355568  1.0000
  O   O1        1.0  0.9481916388623188  0.028800807062125997  0.3345655978498669  1.0000
  O   O2        1.0  0.025109867829250686  0.029379254108810895  0.16559990446440762  1.0000
  O   O3        1.0  0.051799634336532646  0.971198040694901  0.6654325842634066  1.0000
  O   O4        1.0  0.9749106821441345  0.9706090590659712  0.8343995346147252  1.0000
  O   O5        1.0  0.7696635614613784  0.46521864721947276  0.2496899960488363  1.0000
  O   O6        1.0  0.23034078472516495  0.5347801862504014  0.7503096330462142  1.0000
  O   O7        1.0  0.4212399486378118  0.7962633490796946  0.3325044893970599  1.0000
  O   O8        1.0  0.783168540236325  0.7992939938199513  0.1648100894916382  1.0000
  O   O9        1.0  0.5787555920408991  0.20373999472102605  0.6674946958317066  1.0000
  O   O10       1.0  0.21685483423893  0.20069282281429682  0.8351948870238601  1.0000
  O   O11       1.0  0.282352527242196  0.3405547673348367  0.3898469568737326  1.0000
  O   O12       1.0  0.3684126221939081  0.3551946144306015  0.11325241359051567  1.0000
  O   O13       1.0  0.717641448738981  0.6594560770164434  0.6101510771179548  1.0000
  O   O14       1.0  0.6315969606128959  0.6447982103850622  0.8867455041599257  1.0000
