data_image0
_chemical_formula_structural       Zn2H22C36N2O12
_chemical_formula_sum              "Zn2 H22 C36 N2 O12"
_cell_length_a       10.999669343212789
_cell_length_b       13.960084191823025
_cell_length_c       15.377971295420652
_cell_angle_alpha    89.7513039775031
_cell_angle_beta     88.36459548206555
_cell_angle_gamma    90.17879378519696

_space_group_name_H-M_alt    "P 1"
_space_group_IT_number       1

loop_
  _space_group_symop_operation_xyz
  'x, y, z'

loop_
  _atom_site_type_symbol
  _atom_site_label
  _atom_site_symmetry_multiplicity
  _atom_site_fract_x
  _atom_site_fract_y
  _atom_site_fract_z
  _atom_site_occupancy
  Zn  Zn1       1.0  0.4872100476162799  0.6016288643656368  0.4966666560886708  1.0000
  Zn  Zn2       1.0  0.4903072040830593  0.3970810791731409  0.4976623161342673  1.0000
  H   H1        1.0  0.8647704478270696  0.4355335958465004  0.610161492598003  1.0000
  H   H2        1.0  0.09141749296237833  0.438923500498646  0.6188621419794058  1.0000
  H   H3        1.0  0.3938171113313443  0.9325707860594149  0.6202786270116647  1.0000
  H   H4        1.0  0.634814055937788  0.9291816220845632  0.3912263022099509  1.0000
  H   H5        1.0  0.7814503780118045  0.5538909405598104  0.3234733239801955  1.0000
  H   H6        1.0  0.2326559832071879  0.5675001327323628  0.3446315199861019  1.0000
  H   H7        1.0  0.9086195139547184  0.6071876032124094  0.1983306892340906  1.0000
  H   H8        1.0  0.1353040090541739  0.6150966291538251  0.2090456099411497  1.0000
  H   H9        1.0  0.4453770988506136  0.6529346087164711  0.05546265932363779  1.0000
  H   H10       1.0  0.3372972459338115  0.594981228534053  0.9412110673727269  1.0000
  H   H11       1.0  0.5396859961731195  0.35794931312830863  0.22159103701539348  1.0000
  H   H12       1.0  0.6334518329499446  0.39585916722671755  0.7738570446844406  1.0000
  H   H13       1.0  0.5409802275688732  0.3527170527105525  0.05949434989960171  1.0000
  H   H14       1.0  0.6432540588038832  0.4025690483164794  0.9351551570322341  1.0000
  H   H15       1.0  0.68815060277646  0.0719804904819838  0.4498279047643264  1.0000
  H   H16       1.0  0.3146371653770785  0.061334104047752185  0.5446254903287341  1.0000
  H   H17       1.0  0.6710935843372781  0.2505438937777456  0.44772004747192534  1.0000
  H   H18       1.0  0.3134085721449154  0.2406291593104939  0.5380186720549174  1.0000
  H   H19       1.0  0.428098265861493  0.6817627857995844  0.6445149314117273  1.0000
  H   H20       1.0  0.6779852052009473  0.6800209188943356  0.420384002619727  1.0000
  H   H21       1.0  0.4424547414392066  0.6611202509309849  0.2844618627825993  1.0000
  H   H22       1.0  0.2673762779831605  0.6387712244212623  0.808778329255361  1.0000
  C   C1        1.0  0.48990788727861195  0.5058122356043597  0.3255538201961343  1.0000
  C   C2        1.0  0.48690477400921855  0.4930716689577396  0.6690634585957298  1.0000
  C   C3        1.0  0.4914505232943256  0.5061142142161826  0.2294621013154696  1.0000
  C   C4        1.0  0.4856340261531145  0.49497995323820015  0.7662103602869479  1.0000
  C   C5        1.0  0.519864974115265  0.4218378154602788  0.18361910317131697  1.0000
  C   C6        1.0  0.5696525377878386  0.4401430062947613  0.811341973833656  1.0000
  C   C7        1.0  0.5213633073862878  0.419374418242306  0.09359547249465548  1.0000
  C   C8        1.0  0.5740893956930293  0.44303865674347515  0.9016134865077489  1.0000
  C   C9        1.0  0.49288068640417043  0.5025254767135864  0.04577761278262929  1.0000
  C   C10       1.0  0.4913550171708393  0.4998599999235579  0.949782224029711  1.0000
  C   C11       1.0  0.6026425535557179  0.1060104137078781  0.4690229189012456  1.0000
  C   C12       1.0  0.3960810872702965  0.1002786456320237  0.5231256055426883  1.0000
  C   C13       1.0  0.5942981346380591  0.20517250696943987  0.46766197357203504  1.0000
  C   C14       1.0  0.39426542721545843  0.19965162994239452  0.5195021644534705  1.0000
  C   C15       1.0  0.5022812094009055  0.05098929745532389  0.4978478168698572  1.0000
  C   C16       1.0  0.4459964870655355  0.8960298914374717  0.5693941317860904  1.0000
  C   C17       1.0  0.5825265993606267  0.8944863803873986  0.4435705672737313  1.0000
  C   C18       1.0  0.4562874910225716  0.7963067010757785  0.5736705035278505  1.0000
  C   C19       1.0  0.5889136612801948  0.7949281009657482  0.45205901397854115  1.0000
  C   C20       1.0  0.5089654494058138  0.945409405618804  0.502773594179672  1.0000
  C   C21       1.0  0.7278069501173051  0.49480649969080304  0.4850519938197805  1.0000
  C   C22       1.0  0.2538530591833279  0.5017663653855422  0.498425672926821  1.0000
  C   C23       1.0  0.8798883196697033  0.5574360422303073  0.32915139997647447  1.0000
  C   C24       1.0  0.1339973057923913  0.5642631458355893  0.3404561918505706  1.0000
  C   C25       1.0  0.9513053218088813  0.5869854371662839  0.2588463178466327  1.0000
  C   C26       1.0  0.0792883616023872  0.5910834173699158  0.2646597978247129  1.0000
  C   C27       1.0  0.06340450463181209  0.5323171044074897  0.4138143321873571  1.0000
  C   C28       1.0  0.9331045246730127  0.529982484669908  0.4086181974788801  1.0000
  C   C29       1.0  0.8634853973251353  0.49599831661883087  0.482265445679772  1.0000
  C   C30       1.0  0.1181185776088896  0.49974345522316094  0.4915147924233239  1.0000
  C   C31       1.0  0.9203603308842503  0.4625531126602169  0.5555500811477783  1.0000
  C   C32       1.0  0.04781261064958639  0.46450137261359714  0.5603803428263348  1.0000
  C   C33       1.0  0.4646286753858106  0.5868630061713133  0.09045832541212918  1.0000
  C   C34       1.0  0.40537817092464934  0.5533621486240604  0.9047947125812354  1.0000
  C   C35       1.0  0.46359716890651725  0.5901487879479179  0.18158332757835177  1.0000
  C   C36       1.0  0.40260964841877467  0.5516551204275544  0.8141651408651072  1.0000
  N   N1        1.0  0.49198656699506665  0.2513255940177359  0.4927466203921894  1.0000
  N   N2        1.0  0.5213685949022775  0.7461618897764382  0.5129644965550781  1.0000
  O   O1        1.0  0.46646803396043157  0.5867850501299684  0.363736035371211  1.0000
  O   O2        1.0  0.49643294869002824  0.5740696919570214  0.62910943825392  1.0000
  O   O3        1.0  0.5108309919669125  0.4284936234042363  0.3658849597528615  1.0000
  O   O4        1.0  0.48281821369923955  0.41237464334121654  0.632501468635347  1.0000
  O   O5        1.0  0.6711175491463378  0.5731029936145404  0.4693730990770105  1.0000
  O   O6        1.0  0.3035686140662008  0.5832305920901109  0.5074228281971996  1.0000
  O   O7        1.0  0.675788974956994  0.4168480020346052  0.5063896613125748  1.0000
  O   O8        1.0  0.3076132932265168  0.42114856007978574  0.4944299152733365  1.0000
  O   O9        1.0  0.4006501124063461  0.7501442812084064  0.639578817837247  1.0000
  O   O10       1.0  0.6637820808244327  0.7467771670912738  0.3983814314505095  1.0000
  O   O11       1.0  0.43569480850364056  0.6741241202443077  0.2203271512389762  1.0000
  O   O12       1.0  0.31756253202013335  0.6010900860868914  0.7686529542312355  1.0000
