data_image0
_chemical_formula_structural       Ag4H16C24N4O8
_chemical_formula_sum              "Ag4 H16 C24 N4 O8"
_cell_length_a       3.603455604170277
_cell_length_b       13.75484469817435
_cell_length_c       14.265611424489226
_cell_angle_alpha    90.00708768751787
_cell_angle_beta     90.65444070921518
_cell_angle_gamma    90.0092925799574

_space_group_name_H-M_alt    "P 1"
_space_group_IT_number       1

loop_
  _space_group_symop_operation_xyz
  'x, y, z'

loop_
  _atom_site_type_symbol
  _atom_site_label
  _atom_site_symmetry_multiplicity
  _atom_site_fract_x
  _atom_site_fract_y
  _atom_site_fract_z
  _atom_site_occupancy
  Ag  Ag1       1.0  0.524685091928454  0.5667348847423027  0.07198903400824719  1.0000
  Ag  Ag2       1.0  0.4754422995782406  0.06675907936027409  0.42806653263949085  1.0000
  Ag  Ag3       1.0  0.47543655518928324  0.4331899763888316  0.9280510724753697  1.0000
  Ag  Ag4       1.0  0.5245823269920251  0.9332537480522446  0.5719662103819232  1.0000
  H   H1        1.0  0.8479544025671046  0.4105925911158009  0.285065102446211  1.0000
  H   H2        1.0  0.15216624041200077  0.9106517734175908  0.21488161628909097  1.0000
  H   H3        1.0  0.15209047804388123  0.5893707955262426  0.7149018194251724  1.0000
  H   H4        1.0  0.8479954642579559  0.08938504346743768  0.7850668155036901  1.0000
  H   H5        1.0  0.5736263103675157  0.2903462844110719  0.399886440984197  1.0000
  H   H6        1.0  0.42629529864866106  0.7903515589851934  0.1001051752343756  1.0000
  H   H7        1.0  0.42632898015212833  0.70967090324811  0.600142540849518  1.0000
  H   H8        1.0  0.5736385158985087  0.20963945197676986  0.8998662443704717  1.0000
  H   H9        1.0  0.6619004326704359  0.06548623238724358  0.2099113467425724  1.0000
  H   H10       1.0  0.3377353968344466  0.5655104164005847  0.29011350871176933  1.0000
  H   H11       1.0  0.33793259763540123  0.934514231711553  0.7901283976222757  1.0000
  H   H12       1.0  0.662089958166888  0.4345125818750403  0.7098757373462589  1.0000
  H   H13       1.0  0.9367746614256305  0.17685882939736788  0.0873315280060538  1.0000
  H   H14       1.0  0.0630243981295777  0.6769255071156265  0.41266824554780607  1.0000
  H   H15       1.0  0.0632171543304381  0.8230921983345707  0.9126611334362521  1.0000
  H   H16       1.0  0.9370840522317322  0.32312512441593094  0.5873213484908177  1.0000
  C   C1        1.0  0.09469373528795441  0.3701484925329054  0.11000419911709257  1.0000
  C   C2        1.0  0.9052255828366713  0.8702240018876278  0.3900076490381394  1.0000
  C   C3        1.0  0.9053533199260714  0.6298105349979153  0.8900096968683825  1.0000
  C   C4        1.0  0.09482746640607329  0.1298164495805665  0.6099733275477703  1.0000
  C   C5        1.0  0.9145818146299476  0.3016898321910091  0.1782118945639866  1.0000
  C   C6        1.0  0.0853872330567427  0.8018007119980621  0.3218296537366072  1.0000
  C   C7        1.0  0.08546524481617013  0.6982524739148418  0.8218012994285927  1.0000
  C   C8        1.0  0.9146741375907795  0.1982557340746779  0.6781520555979128  1.0000
  C   C9        1.0  0.8090633225007906  0.3343955692328108  0.26679178779146884  1.0000
  C   C10       1.0  0.19090531061088709  0.834428316587576  0.2332074729934916  1.0000
  C   C11       1.0  0.19095333603398507  0.6655852674653958  0.7332121832113926  1.0000
  C   C12       1.0  0.8091036232424144  0.16559032189739037  0.7667502063902416  1.0000
  C   C13       1.0  0.6580033323018242  0.26852173352136777  0.32968606801880174  1.0000
  C   C14       1.0  0.3419393825391666  0.7685049511440026  0.1702938534586309  1.0000
  C   C15       1.0  0.34193277282192724  0.73149545250223  0.6703239161081029  1.0000
  C   C16       1.0  0.6579807095485111  0.23149260189862278  0.8296655989483666  1.0000
  C   C17       1.0  0.7050194204526576  0.14284262851945329  0.22313431755151913  1.0000
  C   C18       1.0  0.2949210910995816  0.6429082288534642  0.2768877721003946  1.0000
  C   C19       1.0  0.2949690000890826  0.8571309397148282  0.7769074020084401  1.0000
  C   C20       1.0  0.7049735326814428  0.3571256768726696  0.7231108437469729  1.0000
  C   C21       1.0  0.8578852395599766  0.20377980336530038  0.15607482523192565  1.0000
  C   C22       1.0  0.1420369168863402  0.7038830090445738  0.3439546220041407  1.0000
  C   C23       1.0  0.1421063362676094  0.796177041677154  0.8439367624090579  1.0000
  C   C24       1.0  0.8579299223825532  0.29616689248464917  0.656040056032225  1.0000
  N   N1        1.0  0.6074995596597859  0.17418883944007746  0.3086481460796833  1.0000
  N   N2        1.0  0.3924232922244144  0.6741879485987778  0.1913181085438111  1.0000
  N   N3        1.0  0.3924337290655516  0.8258094442615586  0.6913646304371639  1.0000
  N   N4        1.0  0.6073690328709417  0.32582123422480436  0.8086492837891228  1.0000
  O   O1        1.0  0.1262328764491869  0.4581453678987726  0.13700920456494708  1.0000
  O   O2        1.0  0.8737289267015953  0.9582080268794257  0.3629202878319333  1.0000
  O   O3        1.0  0.8737338802335161  0.5418020245544068  0.8629896728626463  1.0000
  O   O4        1.0  0.12616878004225643  0.04183823671070999  0.6370545065108429  1.0000
  O   O5        1.0  0.2049724221441593  0.3342774510631655  0.033284950307376  1.0000
  O   O6        1.0  0.7951065837821788  0.8343130678425151  0.4667595679431357  1.0000
  O   O7        1.0  0.795190732000087  0.6656583169082279  0.9667651242533425  1.0000
  O   O8        1.0  0.20518731611463886  0.16576156206014045  0.5332699690562634  1.0000
