data_image0
_chemical_formula_structural       Zn2H52C28N8O20
_chemical_formula_sum              "Zn2 H52 C28 N8 O20"
_cell_length_a       7.346615761755584
_cell_length_b       11.593218646221812
_cell_length_c       13.060753175891595
_cell_angle_alpha    89.99987651050135
_cell_angle_beta     102.67633928829464
_cell_angle_gamma    89.99935630209967

_space_group_name_H-M_alt    "P 1"
_space_group_IT_number       1

loop_
  _space_group_symop_operation_xyz
  'x, y, z'

loop_
  _atom_site_type_symbol
  _atom_site_label
  _atom_site_symmetry_multiplicity
  _atom_site_fract_x
  _atom_site_fract_y
  _atom_site_fract_z
  _atom_site_occupancy
  Zn  Zn1       1.0  1.6714097129013266e-06  0.9999986689147706  0.4999995574512043  1.0000
  Zn  Zn2       1.0  0.9999992058519922  0.5000043712630956  1.7354522511893515e-06  1.0000
  H   H1        1.0  0.6248907842574027  0.9398959172327395  0.41837271197002207  1.0000
  H   H2        1.0  0.3751150966096404  0.439896267898547  0.08162665693993179  1.0000
  H   H3        1.0  0.37510800674501604  0.06010210376998511  0.5816270941326351  1.0000
  H   H4        1.0  0.6248794506422826  0.560105203409954  0.9183748899063033  1.0000
  H   H5        1.0  0.6635013993472471  0.05786714472311872  0.48021863846386736  1.0000
  H   H6        1.0  0.33650630342084037  0.5578723410997172  0.019786262957133302  1.0000
  H   H7        1.0  0.33650998611456373  0.9421282885155408  0.5197812875585512  1.0000
  H   H8        1.0  0.6634896193416323  0.44212913020283656  0.9802162299723065  1.0000
  H   H9        1.0  0.11108473572868859  0.23102522907135642  0.6987397080428367  1.0000
  H   H10       1.0  0.8889077863803508  0.7310198473106198  0.8012603300451459  1.0000
  H   H11       1.0  0.8889210499774194  0.7689762421995211  0.3012602494674397  1.0000
  H   H12       1.0  0.1110798638134796  0.26897903630707287  0.19873724955757413  1.0000
  H   H13       1.0  0.7104848116748315  0.373727134678717  0.7868633180501161  1.0000
  H   H14       1.0  0.2895021506157677  0.8737278956854767  0.7131341983782704  1.0000
  H   H15       1.0  0.28952651523697176  0.6262639856913453  0.21313889748221024  1.0000
  H   H16       1.0  0.7104882310598553  0.12627185049273493  0.2868660365557503  1.0000
  H   H17       1.0  0.65229139250868  0.13054723706851956  0.7937376920131385  1.0000
  H   H18       1.0  0.3477002194866897  0.6305458801420869  0.7062662392907413  1.0000
  H   H19       1.0  0.3477128614742994  0.8694507839087962  0.2062674247559357  1.0000
  H   H20       1.0  0.6522874306816745  0.36945559119528343  0.2937313403062731  1.0000
  H   H21       1.0  0.8224296376651451  0.20254033690857656  0.8912618764646254  1.0000
  H   H22       1.0  0.1775620304987768  0.7025378159518927  0.6087388675186034  1.0000
  H   H23       1.0  0.17758445968821956  0.7974619969023565  0.10874146804258089  1.0000
  H   H24       1.0  0.8224227514211436  0.29746796825853755  0.39126139890328204  1.0000
  H   H25       1.0  0.887413145847546  0.0803083835414142  0.8260046997358613  1.0000
  H   H26       1.0  0.1125766843905041  0.5803104792379588  0.6739983241719543  1.0000
  H   H27       1.0  0.1125911667193975  0.9196905000115977  0.17399812753091481  1.0000
  H   H28       1.0  0.8874053465252983  0.41969357983789746  0.32600005008732313  1.0000
  H   H29       1.0  0.6435369136243594  0.9434674906342196  0.6548522752445152  1.0000
  H   H30       1.0  0.3564473980659102  0.4434759811676516  0.845140171614389  1.0000
  H   H31       1.0  0.35644258124516165  0.056522767290978514  0.34513581204399907  1.0000
  H   H32       1.0  0.6435543196500787  0.5565306655628675  0.15485465813445387  1.0000
  H   H33       1.0  0.6163470275986142  0.8138469015551806  0.7239372269280295  1.0000
  H   H34       1.0  0.383639932966858  0.3138596756591099  0.7760519758634032  1.0000
  H   H35       1.0  0.38363806700962744  0.18613904348425336  0.2760508288688115  1.0000
  H   H36       1.0  0.6163674820740256  0.6861495587755757  0.2239390065445619  1.0000
  H   H37       1.0  0.5874668544500922  0.8134883358881666  0.5844007571840564  1.0000
  H   H38       1.0  0.41253697088482266  0.3134979926264805  0.9155860631920093  1.0000
  H   H39       1.0  0.41253511735327203  0.18649933424211446  0.4155841514382529  1.0000
  H   H40       1.0  0.5874704636783862  0.68651210438226  0.0844041560472562  1.0000
  H   H41       1.0  0.4779713796728871  0.5182074668917096  0.5943904030906992  1.0000
  H   H42       1.0  0.5220281017787441  0.018202576546755708  0.9056117027670751  1.0000
  H   H43       1.0  0.5220311862640302  0.48179486694447615  0.40562597825445584  1.0000
  H   H44       1.0  0.4779665626326164  0.9818014824863613  0.09438526507265269  1.0000
  H   H45       1.0  0.6936080325390392  0.5896493261562128  0.6034576494331887  1.0000
  H   H46       1.0  0.30639560331496807  0.08965201006283512  0.8965456360994748  1.0000
  H   H47       1.0  0.3063943186013276  0.41034869480477465  0.3965671267562811  1.0000
  H   H48       1.0  0.6936031875940784  0.9103554992453694  0.1034541699822569  1.0000
  H   H49       1.0  0.6216742124499108  0.5475765699571157  0.7207100799621813  1.0000
  H   H50       1.0  0.3783261054513788  0.047578160420435715  0.7792913160793588  1.0000
  H   H51       1.0  0.3783310460514712  0.4524119626931126  0.2793104830802307  1.0000
  H   H52       1.0  0.621668558959975  0.9524258986126811  0.22070565176036894  1.0000
  C   C1        1.0  0.8073999608080483  0.16128813502545822  0.6265915182738624  1.0000
  C   C2        1.0  0.1926259416522882  0.6612909267118283  0.873416087161459  1.0000
  C   C3        1.0  0.19263781326328913  0.8387064355378512  0.3734164621629504  1.0000
  C   C4        1.0  0.8073686446697578  0.33870968202509033  0.1265839333530749  1.0000
  C   C5        1.0  0.8431956693201528  0.2342771101571374  0.7293647072446277  1.0000
  C   C6        1.0  0.15679684723982487  0.7342855695185193  0.7706330269678929  1.0000
  C   C7        1.0  0.15680874097727576  0.7657140102409697  0.2706343042052737  1.0000
  C   C8        1.0  0.8431922564944401  0.2657228024020172  0.22936244602990288  1.0000
  C   C9        1.0  0.7982997482764843  0.15731234537783223  0.8159136504556344  1.0000
  C   C10       1.0  0.2017053458749416  0.6573155164459835  0.684089702436978  1.0000
  C   C11       1.0  0.20171711966274583  0.8426865381291507  0.18409082305878852  1.0000
  C   C12       1.0  0.7982808701479839  0.34269026776097183  0.3159092205677112  1.0000
  C   C13       1.0  0.8717128106229808  0.8279094654022432  0.6666511589462373  1.0000
  C   C14       1.0  0.12828745253511897  0.3279169988936205  0.8333543111579117  1.0000
  C   C15       1.0  0.128292955586268  0.17208855557490216  0.3333495617384443  1.0000
  C   C16       1.0  0.8717183331200572  0.6720896478166125  0.1666456463409531  1.0000
  C   C17       1.0  0.6678889792766187  0.8501525045858004  0.6581273115900572  1.0000
  C   C18       1.0  0.33211263172835703  0.3501611738220022  0.8418629799745929  1.0000
  C   C19       1.0  0.3321114802665194  0.1498386158375524  0.3418619931090277  1.0000
  C   C20       1.0  0.6678947637986852  0.6498463354654123  0.15812876560397626  1.0000
  C   C21       1.0  0.7193982887813347  0.4092290710161564  0.6340870598022762  1.0000
  C   C22       1.0  0.28059502802280883  0.9092347123880203  0.8659081619257734  1.0000
  C   C23       1.0  0.2806019168272229  0.5907654996893684  0.3659121660575977  1.0000
  C   C24       1.0  0.71939831947045  0.0907693466535164  0.134085570330349  1.0000
  C   C25       1.0  0.6227267668529278  0.5230752685367507  0.6397736332652713  1.0000
  C   C26       1.0  0.37726982864325015  0.0230766769197359  0.8602280852731852  1.0000
  C   C27       1.0  0.37727434550959765  0.4769210272894994  0.3602448546771981  1.0000
  C   C28       1.0  0.6227276844432907  0.976927382105629  0.139766958898953  1.0000
  N   N1        1.0  0.042002223489817  0.26418531220277697  0.7517492359319249  1.0000
  N   N2        1.0  0.9580009038649989  0.7641864697371332  0.7482483033647538  1.0000
  N   N3        1.0  0.9580036208257282  0.7358144339241196  0.24824843208175904  1.0000
  N   N4        1.0  0.0419979066088203  0.2358175892789944  0.2517507395577923  1.0000
  N   N5        1.0  0.7291193027535456  0.3376871147926863  0.7184554375684157  1.0000
  N   N6        1.0  0.27087394902821427  0.837691296835729  0.7815429694960158  1.0000
  N   N7        1.0  0.27088355623900645  0.66230573075039  0.2815494962956748  1.0000
  N   N8        1.0  0.729122032326707  0.16231017446929744  0.2184572339330231  1.0000
  O   O1        1.0  0.9554605739929513  0.12395116141362196  0.6021825154596314  1.0000
  O   O2        1.0  0.044543918578781885  0.6239428602639664  0.8978154595354937  1.0000
  O   O3        1.0  0.044543797123999695  0.8760520350079944  0.3978180222972298  1.0000
  O   O4        1.0  0.9554451461872304  0.3760560233494346  0.1021815398168258  1.0000
  O   O5        1.0  0.6416263942746525  0.1351019085985783  0.5823629964698895  1.0000
  O   O6        1.0  0.35838314622790085  0.6351206835583341  0.91764787161231  1.0000
  O   O7        1.0  0.3583833814256466  0.8648814486109728  0.41764514149755166  1.0000
  O   O8        1.0  0.641611420571813  0.36487906260453684  0.08235291207092386  1.0000
  O   O9        1.0  0.959174896862649  0.8656476761411797  0.6010416836192789  1.0000
  O   O10       1.0  0.04083030140277091  0.36564790734920644  0.898960535863651  1.0000
  O   O11       1.0  0.04083083023402882  0.1343555202736724  0.39896056338758956  1.0000
  O   O12       1.0  0.9591755428278786  0.6343604645099463  0.1010371321310046  1.0000
  O   O13       1.0  0.7819911903687853  0.3808709839782695  0.557029662617083  1.0000
  O   O14       1.0  0.21800258692960028  0.8808777472778078  0.9429695000342945  1.0000
  O   O15       1.0  0.2179879137825225  0.6191296248091405  0.44297368798459047  1.0000
  O   O16       1.0  0.7819933162426267  0.11912976203650064  0.057033756048625185  1.0000
  O   O17       1.0  0.7024671811518104  0.009367169033929201  0.42389044341033616  1.0000
  O   O18       1.0  0.29754010075829734  0.509367331865164  0.07611372587927427  1.0000
  O   O19       1.0  0.29753439991636554  0.9906325771050176  0.576109728521331  1.0000
  O   O20       1.0  0.7024586120869075  0.49063413942716505  0.9238891328829766  1.0000
