data_image0
_chemical_formula_structural       Ni4H72C32I8O16
_chemical_formula_sum              "Ni4 H72 C32 I8 O16"
_cell_length_a       6.88715441
_cell_length_b       13.546412125
_cell_length_c       14.4478
_cell_angle_alpha    90.0
_cell_angle_beta     90.0
_cell_angle_gamma    90.0

_space_group_name_H-M_alt    "P 1"
_space_group_IT_number       1

loop_
  _space_group_symop_operation_xyz
  'x, y, z'

loop_
  _atom_site_type_symbol
  _atom_site_label
  _atom_site_symmetry_multiplicity
  _atom_site_fract_x
  _atom_site_fract_y
  _atom_site_fract_z
  _atom_site_occupancy
  Ni  Ni1       1.0  0.9999979076990113  0.2498735435453909  0.24999999999999994  1.0000
  Ni  Ni2       1.0  0.5000018578064669  0.2501260089191319  0.750000692146898  1.0000
  Ni  Ni3       1.0  1.4519784841e-06  0.7501285141950476  0.7499993078531018  1.0000
  Ni  Ni4       1.0  0.4999975018710216  0.7498745724156066  0.24999999999999994  1.0000
  H   H1        1.0  0.03771949698452909  0.3395268029319638  0.015548387989866796  1.0000
  H   H2        1.0  0.4622765529080084  0.1604705349240234  0.515550464430568  1.0000
  H   H3        1.0  0.5377271627049254  0.1604668439097878  0.9844509198632279  1.0000
  H   H4        1.0  0.9622798626929592  0.3395312321490423  0.4844495355694319  1.0000
  H   H5        1.0  0.9622842186284044  0.6604693491856963  0.9844523041570312  1.0000
  H   H6        1.0  0.537719902812519  0.8395315228164151  0.4844509198632351  1.0000
  H   H7        1.0  0.4622794568649695  0.8395307846135651  0.015548387989866796  1.0000
  H   H8        1.0  0.0377224009414974  0.6604671345771536  0.515550464430568  1.0000
  H   H9        1.0  0.25840861029860207  0.3332720102076507  0.0797990005398717  1.0000
  H   H10       1.0  0.24158889157241958  0.1667260658511793  0.5797996926867768  1.0000
  H   H11       1.0  0.7584162760189981  0.1667231130397937  0.9202009994601283  1.0000
  H   H12       1.0  0.741586393443441  0.3332757012218863  0.4202009994601283  1.0000
  H   H13       1.0  0.7415936533358474  0.6667241419100094  0.9202037680477275  1.0000
  H   H14       1.0  0.7584119200835528  0.833275991889252  0.4202030759008294  1.0000
  H   H15       1.0  0.24158743959393544  0.8332752536864092  0.0797962319522725  1.0000
  H   H16       1.0  0.2584158701910084  0.6667234037071665  0.5797976162460685  1.0000
  H   H17       1.0  0.16277114367760953  0.4517646402257257  0.04909328755935149  1.0000
  H   H18       1.0  0.3372234542364509  0.04823269763026161  0.5490960561469578  1.0000
  H   H19       1.0  0.6627759054410374  0.048230483021718805  0.9509025595592391  1.0000
  H   H20       1.0  0.8372253120429178  0.4517675930371112  0.4509046359999472  1.0000
  H   H21       1.0  0.8372311199568401  0.5482315118919346  0.9509053281468454  1.0000
  H   H22       1.0  0.6627730014840764  0.9517686219073271  0.4509046359999472  1.0000
  H   H23       1.0  0.3372249062149279  0.9517678837044842  0.049093979706249485  1.0000
  H   H24       1.0  0.16277114367760953  0.5482307736890917  0.5490967482938558  1.0000
  H   H25       1.0  0.8052745255641794  0.4588380999075811  0.21544802668918084  1.0000
  H   H26       1.0  0.6947208840058536  0.0411621907597919  0.7154494109829841  1.0000
  H   H27       1.0  0.3052741197361968  0.0411636671654847  0.7845512811639137  1.0000
  H   H28       1.0  0.19472338213483195  0.4588388381104238  0.2845492047232128  1.0000
  H   H29       1.0  0.19472628609179304  0.5411624814271647  0.7845512811639137  1.0000
  H   H30       1.0  0.3052770236931579  0.9588369141692539  0.2845498968701108  1.0000
  H   H31       1.0  0.6947223359843306  0.958837652372104  0.21544941098298404  1.0000
  H   H32       1.0  0.8052817854565857  0.5411617432243148  0.7154528717174953  1.0000
  H   H33       1.0  0.8239411609184443  0.47317178459163506  0.0926625506997638  1.0000
  H   H34       1.0  0.6760513446946206  0.0268240768586523  0.592664627140465  1.0000
  H   H35       1.0  0.3239451110259068  0.026825553264345107  0.9073367571533381  1.0000
  H   H36       1.0  0.17605239084511473  0.4731754756058706  0.4073346807126369  1.0000
  H   H37       1.0  0.1760611027160053  0.5268287967431107  0.9073367571533381  1.0000
  H   H38       1.0  0.3239465630043838  0.9731742898675436  0.4073346807126369  1.0000
  H   H39       1.0  0.6760527966731047  0.9731757662732434  0.0926632428466618  1.0000
  H   H40       1.0  0.8239484208108506  0.5268243675260251  0.5926673957280713  1.0000
  H   H41       1.0  0.7111993877889518  0.2977275431150376  0.0724131009565454  1.0000
  H   H42       1.0  0.7888018296950035  0.202266841929557  0.5724131009565454  1.0000
  H   H43       1.0  0.21120333789641418  0.20227127114664264  0.9275896676310607  1.0000
  H   H44       1.0  0.2887956159530916  0.2977312341292731  0.4275875911903525  1.0000
  H   H45       1.0  0.2887999718885368  0.7022737764225512  0.9275848226027461  1.0000
  H   H46       1.0  0.21120333789641418  0.7977293101881033  0.4275875911903525  1.0000
  H   H47       1.0  0.7887989257380423  0.7977300483909531  0.0724117166627423  1.0000
  H   H48       1.0  0.711203743724397  0.7022671325969299  0.5724137931034504  1.0000
  H   H49       1.0  0.5382048636252391  0.3714282389736496  0.13475754094049108  1.0000
  H   H50       1.0  0.9617919979232779  0.1285676224766448  0.6347603095280974  1.0000
  H   H51       1.0  0.038211717689655686  0.1285713134908804  0.865243151206414  1.0000
  H   H52       1.0  0.46178868813832696  0.3714311917850353  0.3652403826188078  1.0000
  H   H53       1.0  0.4617959480307333  0.6285738187667889  0.8652396904719024  1.0000
  H   H54       1.0  0.038210265711178686  0.8714292678438653  0.3652424590595089  1.0000
  H   H55       1.0  0.9617890939663167  0.8714300060467082  0.13475823308738907  1.0000
  H   H56       1.0  0.5382121235176455  0.6285686513468605  0.6347623859687985  1.0000
  H   H57       1.0  0.656930240075738  0.12233571404058811  0.211295837428537  1.0000
  H   H58       1.0  0.8430695254297332  0.3776638384239348  0.7112909924002293  1.0000
  H   H59       1.0  0.15692693029079405  0.37766531482962773  0.7887083154528725  1.0000
  H   H60       1.0  0.34306766762326646  0.1223349758377452  0.28870831545287245  1.0000
  H   H61       1.0  0.3430705715802276  0.8776670819026933  0.7887007018369585  1.0000
  H   H62       1.0  0.15692693029079405  0.6223352665051181  0.2887096997466756  1.0000
  H   H63       1.0  0.8430709774082173  0.6223352665051181  0.2112909924002295  1.0000
  H   H64       1.0  0.6569331440327062  0.8776656054970007  0.711288915959521  1.0000
  H   H65       1.0  0.4888550190063156  0.19294407817228892  0.1442323398718131  1.0000
  H   H66       1.0  0.0111497427571123  0.3070525214808485  0.6442302634311119  1.0000
  H   H67       1.0  0.988848164941899  0.3070532596836983  0.8557690444219901  1.0000
  H   H68       1.0  0.5111414367142117  0.19294629278082454  0.3557711208626912  1.0000
  H   H69       1.0  0.511147244628134  0.8070579795681497  0.8557662758343838  1.0000
  H   H70       1.0  0.9888467129634149  0.6929465834481974  0.35577042871579306  1.0000
  H   H71       1.0  0.0111511947355893  0.6929458452453545  0.14423026343111184  1.0000
  H   H72       1.0  0.48885937494176085  0.8070535503510641  0.6442254184028042  1.0000
  C   C1        1.0  0.12536527404501638  0.3758153784945507  0.0693295865114436  1.0000
  C   C2        1.0  0.37463077584752097  0.1241841739699794  0.5693309708052467  1.0000
  C   C3        1.0  0.6253700358084443  0.12418122115858672  0.9306697213416582  1.0000
  C   C4        1.0  0.874631181675511  0.3758183313059362  0.43066833704785507  1.0000
  C   C5        1.0  0.874631181675511  0.6241837264345023  0.930669029194753  1.0000
  C   C6        1.0  0.6253671318514832  0.8758186219733091  0.4306704134885564  1.0000
  C   C7        1.0  0.37463222782600514  0.8758186219733091  0.0693302786583416  1.0000
  C   C8        1.0  0.1253667260235005  0.6241807736231095  0.5693316629521447  1.0000
  C   C9        1.0  0.8321259636169529  0.4201068111236168  0.1499688533894457  1.0000
  C   C10       1.0  0.6678679939745962  0.0798912649352133  0.6499750827115562  1.0000
  C   C11       1.0  0.3321313657028924  0.079894217746606  0.8500283780229478  1.0000
  C   C12       1.0  0.16786758814661337  0.4201075493264597  0.350026993729152  1.0000
  C   C13       1.0  0.16787339606053558  0.5798952466168217  0.8500276858760498  1.0000
  C   C14       1.0  0.33213281768137637  0.9201071017909828  0.3500290701698532  1.0000
  C   C15       1.0  0.6678679939745962  0.9201063635881399  0.149973006270848  1.0000
  C   C16       1.0  0.8321332235093593  0.579892293805436  0.6499750827115562  1.0000
  C   C17       1.0  0.6847937071299057  0.3393511106543272  0.1367114716427409  1.0000
  C   C18       1.0  0.8152060583755656  0.1606462272016529  0.6367107794958429  1.0000
  C   C19       1.0  0.18479620525888404  0.1606477036073457  0.8632892205041569  1.0000
  C   C20       1.0  0.3151998446336535  0.3393540634657129  0.3632885283572591  1.0000
  C   C21       1.0  0.3152027485906217  0.6606509470861113  0.8632864519165577  1.0000
  C   C22       1.0  0.1847947532804071  0.8393528777273929  0.3632885283572591  1.0000
  C   C23       1.0  0.8152031544186045  0.8393528777273929  0.1367107794958429  1.0000
  C   C24       1.0  0.684798063065351  0.660645779666176  0.636712855936544  1.0000
  C   C25       1.0  0.5693367342405793  0.1900658252710556  0.20983333102617505  1.0000
  C   C26       1.0  0.9306630312648991  0.3099315125849245  0.7098319467323719  1.0000
  C   C27       1.0  0.06933632841259649  0.3099329889906173  0.7901666689738248  1.0000
  C   C28       1.0  0.430659721479948  0.19006656347390566  0.2901694375614312  1.0000
  C   C29       1.0  0.4306640774153933  0.8099347560636829  0.7901604396517143  1.0000
  C   C30       1.0  0.06933487643411239  0.6900668541412787  0.2901673611207229  1.0000
  C   C31       1.0  0.930661579286415  0.6900668541412787  0.2098340231730802  1.0000
  C   C32       1.0  0.5693410901760245  0.809934017860833  0.7098305624385688  1.0000
  I   I1        1.0  0.059493366288556594  0.1174458583807478  0.1177798695995236  1.0000
  I   I2        1.0  0.4405026836039808  0.3825544322866251  0.6177826381871299  1.0000
  I   I3        1.0  0.5594995800304685  0.3825507412723895  0.8822222068411774  1.0000
  I   I4        1.0  0.9405074453674087  0.1174465965835978  0.3822208225473744  1.0000
  I   I5        1.0  0.9405016374534865  0.8825554611568409  0.8822173618128701  1.0000
  I   I6        1.0  0.55948651222414  0.6174513164680491  0.3822242832818857  1.0000
  I   I7        1.0  0.4405012316255038  0.6174454108452709  0.1177826381871299  1.0000
  I   I8        1.0  0.059493366288556594  0.8825525083454551  0.6177771010119173  1.0000
  O   O1        1.0  0.02484915972720359  0.3782905726412054  0.1564390426224094  1.0000
  O   O2        1.0  0.475148342143818  0.12170824162047472  0.6564411190631105  1.0000
  O   O3        1.0  0.5248510175336705  0.12170824162047472  0.8435588809368892  1.0000
  O   O4        1.0  0.9751429400578784  0.37829500185828385  0.3435574966430862  1.0000
  O   O5        1.0  0.9751516519287688  0.6217085322878405  0.8435609573775906  1.0000
  O   O6        1.0  0.5248539214906316  0.878292339714271  0.3435588809368894  1.0000
  O   O7        1.0  0.4751439862083798  0.8782930779171139  0.1564390426224094  1.0000
  O   O8        1.0  0.024856419619609892  0.6217077940849977  0.6564418112100086  1.0000
  O   O9        1.0  0.7008656569382765  0.27354697065219824  0.2154867869156547  1.0000
  O   O10       1.0  0.7991312046102336  0.22645258181232467  0.7154860947687567  1.0000
  O   O11       1.0  0.20086815506725486  0.22645405821801753  0.7845152895250465  1.0000
  O   O12       1.0  0.2991293468037668  0.2735462324493554  0.2845139052312432  1.0000
  O   O13       1.0  0.299135154717696  0.7264550870882334  0.7845111366436441  1.0000
  O   O14       1.0  0.2008652511102937  0.7735465231167282  0.2845145973781484  1.0000
  O   O15       1.0  0.7991297526317567  0.7735457849138783  0.2154847104749535  1.0000
  O   O16       1.0  0.7008714648521988  0.7264543488853905  0.7154854026218513  1.0000
