data_image0
_chemical_formula_structural       Cu4B4H40C36N24
_chemical_formula_sum              "Cu4 B4 H40 C36 N24"
_cell_length_a       8.986870822430397
_cell_length_b       9.21564389899785
_cell_length_c       15.696810752062262
_cell_angle_alpha    103.54512211519923
_cell_angle_beta     90.93182409446577
_cell_angle_gamma    116.04828120207425

_space_group_name_H-M_alt    "P 1"
_space_group_IT_number       1

loop_
  _space_group_symop_operation_xyz
  'x, y, z'

loop_
  _atom_site_type_symbol
  _atom_site_label
  _atom_site_symmetry_multiplicity
  _atom_site_fract_x
  _atom_site_fract_y
  _atom_site_fract_z
  _atom_site_occupancy
  Cu  Cu1       1.0  0.30222068631720594  0.9430977824200467  0.9817856915091667  1.0000
  Cu  Cu2       1.0  0.697780034385275  0.05690042350529719  0.0182133583851751  1.0000
  Cu  Cu3       1.0  0.8703752088592938  0.7588138958819998  0.42719452948836795  1.0000
  Cu  Cu4       1.0  0.1296255347374853  0.24118682316051826  0.5728035964838014  1.0000
  B   B1        1.0  0.4197198916627586  0.8745413799090541  0.6375427579064805  1.0000
  B   B2        1.0  0.5802791726644756  0.1254580778003103  0.3624551736344799  1.0000
  B   B3        1.0  0.3178714481350157  0.5333643159465707  0.18634237320245012  1.0000
  B   B4        1.0  0.6821281595479578  0.46663637631670707  0.813657647594262  1.0000
  H   H1        1.0  0.4881918177946929  0.6117636716656776  0.358936923057911  1.0000
  H   H2        1.0  0.5118111549816078  0.3882395496992288  0.6410628504868257  1.0000
  H   H3        1.0  0.42652370849450705  0.0579565491530829  0.811363899651255  1.0000
  H   H4        1.0  0.5734770285480337  0.9420441634541133  0.18863486243529343  1.0000
  H   H5        1.0  0.1605537629618966  0.9442088668051342  0.5831738953026646  1.0000
  H   H6        1.0  0.8394430328603806  0.055788049969869684  0.416826205352038  1.0000
  H   H7        1.0  0.05041456097554695  0.518975561176383  0.37109658104365917  1.0000
  H   H8        1.0  0.9495867227453872  0.48102389860884637  0.6289026497632833  1.0000
  H   H9        1.0  0.5964667987929816  0.8871549642730797  0.4880653772890824  1.0000
  H   H10       1.0  0.40352834397670995  0.11284071691009248  0.5119319844768739  1.0000
  H   H11       1.0  0.06467026045164202  0.07875389271992363  0.9278923577205873  1.0000
  H   H12       1.0  0.9353275959562382  0.9212404862345168  0.07211186094682633  1.0000
  H   H13       1.0  0.35649069359377  0.6484691882152589  0.025315152210687607  1.0000
  H   H14       1.0  0.6435055555501208  0.351528981381712  0.9746844797236208  1.0000
  H   H15       1.0  0.05686012820628149  0.3589738578676601  0.03607715431498801  1.0000
  H   H16       1.0  0.9431366250589832  0.6410205264841763  0.9639257786050522  1.0000
  H   H17       1.0  0.47005133366019447  0.3097237274967383  0.1326660305598892  1.0000
  H   H18       1.0  0.52995106298917  0.6902782271376111  0.867334834301019  1.0000
  H   H19       1.0  0.24172641323007585  0.5464339239145984  0.6750525549619939  1.0000
  H   H20       1.0  0.758272074970222  0.4535642670642162  0.3249464678951384  1.0000
  H   H21       1.0  0.6288909755960719  0.6708033394923519  0.10907942513166094  1.0000
  H   H22       1.0  0.3711064192474397  0.32919735713038994  0.8909186602846902  1.0000
  H   H23       1.0  0.17044025316659636  0.9628389570446104  0.17130934650170815  1.0000
  H   H24       1.0  0.8295643857707731  0.037165512782792114  0.8286918937030023  1.0000
  H   H25       1.0  0.318938211647918  0.5744407872316515  0.4861342569647392  1.0000
  H   H26       1.0  0.681062512286147  0.42555991250488034  0.5138657773505813  1.0000
  H   H27       1.0  0.617860690622699  0.755875975480876  0.7262322232710261  1.0000
  H   H28       1.0  0.38214340495893145  0.24412725979262012  0.2737669276779259  1.0000
  H   H29       1.0  0.18278526251601349  0.7520480285179406  0.2697688542136589  1.0000
  H   H30       1.0  0.8172143483985437  0.2479551575565253  0.7302321510040316  1.0000
  H   H31       1.0  0.8632815367668912  0.7215106561093024  0.6306900280770265  1.0000
  H   H32       1.0  0.1367231186016085  0.2784913392128913  0.3693083193635474  1.0000
  H   H33       1.0  0.17482302946064723  0.5731580365381106  0.8481074295786685  1.0000
  H   H34       1.0  0.8251738055959877  0.4268439000359336  0.15189145934606782  1.0000
  H   H35       1.0  0.9131241774847255  0.8041283757456412  0.23025070678670553  1.0000
  H   H36       1.0  0.08687546296943792  0.19587234869428022  0.7697461334380834  1.0000
  H   H37       1.0  0.465200122529943  0.0244139582549892  0.6537680064741098  1.0000
  H   H38       1.0  0.5348000449398994  0.9755854940569789  0.34623121081422426  1.0000
  H   H39       1.0  0.2369807333995766  0.49253691248578946  0.24533755040467045  1.0000
  H   H40       1.0  0.7630188546206824  0.5074637604714952  0.7546643787351998  1.0000
  C   C1        1.0  0.5673901830688096  0.6473887178312839  0.30860868694706783  1.0000
  C   C2        1.0  0.4326116604389938  0.3526095020026431  0.6913897403514967  1.0000
  C   C3        1.0  0.3678953099975929  0.92305336860251  0.7994355133105915  1.0000
  C   C4        1.0  0.6321070965286709  0.0769461050913094  0.2005630949005663  1.0000
  C   C5        1.0  0.16502632171879136  0.8352045557194998  0.5406411381478122  1.0000
  C   C6        1.0  0.8349727229457289  0.1647948826838785  0.4593587017363063  1.0000
  C   C7        1.0  0.11342078193266056  0.6164875312493266  0.43204666160625044  1.0000
  C   C8        1.0  0.8865804952340429  0.3835119221005742  0.5679532053150781  1.0000
  C   C9        1.0  0.6371320741138222  0.8460336432837394  0.539172554883784  1.0000
  C   C10       1.0  0.3628658576222677  0.15396330027051872  0.4608256509463615  1.0000
  C   C11       1.0  0.1485196014552415  0.168839407479318  0.9864663121365425  1.0000
  C   C12       1.0  0.8514771289157326  0.8311524637553377  0.013537544705670326  1.0000
  C   C13       1.0  0.30603568647970303  0.7051011920593098  0.07780279987730411  1.0000
  C   C14       1.0  0.6939667330639596  0.29490327569222796  0.9221971410614245  1.0000
  C   C15       1.0  0.1442429923471238  0.30818426417364714  0.03966504164962709  1.0000
  C   C16       1.0  0.8557520882028414  0.6918088652803717  0.9603370607248181  1.0000
  C   C17       1.0  0.3584256415365559  0.2834935986718746  0.09135085754812171  1.0000
  C   C18       1.0  0.6415761855401243  0.7165070956672537  0.9086504625145724  1.0000
  C   C19       1.0  0.270278398020956  0.6564697747133507  0.7292744916838956  1.0000
  C   C20       1.0  0.7297217760031246  0.34352968403394607  0.2707240894900522  1.0000
  C   C21       1.0  0.6420243891930186  0.67814188779721  0.1788965741344128  1.0000
  C   C22       1.0  0.35797467836579955  0.32186006372334924  0.8211023418275261  1.0000
  C   C23       1.0  0.2090087285302076  0.8646125626340221  0.15494371340609803  1.0000
  C   C24       1.0  0.7909886400963516  0.13538810824739764  0.8450569164677972  1.0000
  C   C25       1.0  0.24753087434850587  0.6438796100697672  0.4883444631209102  1.0000
  C   C26       1.0  0.7524715157466204  0.3561223381292606  0.5116570378543841  1.0000
  C   C27       1.0  0.6505234645881262  0.7779284335859202  0.6627848650381125  1.0000
  C   C28       1.0  0.34947895172395255  0.2220735403544225  0.3372140914796375  1.0000
  C   C29       1.0  0.21457255808486767  0.7613263979353633  0.20426387482623912  1.0000
  C   C30       1.0  0.7854304015829572  0.23867681055887863  0.7957371709472697  1.0000
  C   C31       1.0  0.7716928198713334  0.761345692609069  0.6147494420947411  1.0000
  C   C32       1.0  0.22830958988651423  0.23865627489594488  0.3852501505373951  1.0000
  C   C33       1.0  0.23843243080967375  0.671034533947946  0.8154898104365245  1.0000
  C   C34       1.0  0.7615627315316548  0.32896614772827354  0.18450824794262394  1.0000
  C   C35       1.0  0.7827907550215303  0.7457187963484343  0.23963300786100214  1.0000
  C   C36       1.0  0.21721000491530876  0.2542844293759359  0.7603648303033665  1.0000
  N   N1        1.0  0.5056371791985513  0.6153622303537889  0.22328822012000424  1.0000
  N   N2        1.0  0.4943629915028752  0.3846397157693744  0.7767119815893153  1.0000
  N   N3        1.0  0.06189993703089409  0.7373441935709336  0.4655904098485948  1.0000
  N   N4        1.0  0.9380979815967196  0.26265273711266696  0.5344090682103229  1.0000
  N   N5        1.0  0.3528374218342592  0.8176445571459754  0.7198297532547571  1.0000
  N   N6        1.0  0.6471633086540437  0.18235614902588543  0.2801696449461772  1.0000
  N   N7        1.0  0.2668117088973362  0.8284251324528783  0.07546477663253633  1.0000
  N   N8        1.0  0.733187898694567  0.1715805409974536  0.924537849120519  1.0000
  N   N9        1.0  0.5651032086469672  0.831550241153032  0.6139955917878696  1.0000
  N   N10       1.0  0.43489696537712075  0.16844921759426515  0.3860029893860784  1.0000
  N   N11       1.0  0.2789143288417791  0.3815199414221908  0.10583000984346572  1.0000
  N   N12       1.0  0.721084686374205  0.618476977428678  0.8941713900772116  1.0000
  N   N13       1.0  0.28052871726463025  0.7842461467432997  0.5566862358473089  1.0000
  N   N14       1.0  0.7194703273998898  0.2157532916600857  0.4433136040368098  1.0000
  N   N15       1.0  0.7350539345891891  0.7256942061267823  0.3213983089846906  1.0000
  N   N16       1.0  0.26494904806401115  0.2743065342975939  0.6785992079102954  1.0000
  N   N17       1.0  0.7619789274178714  0.8041156825851985  0.5366703453892613  1.0000
  N   N18       1.0  0.23802069014199392  0.19588252873754186  0.4633274187577002  1.0000
  N   N19       1.0  0.2761017776039624  0.6599994720624521  0.15472917240727213  1.0000
  N   N20       1.0  0.7238983833116421  0.3399999738141873  0.8452706809954478  1.0000
  N   N21       1.0  0.30109550634427523  0.8398299363842057  0.8593917703683829  1.0000
  N   N22       1.0  0.6989041210014123  0.16017077518505127  0.14060634208517803  1.0000
  N   N23       1.0  0.2829292311759701  0.15319033372865934  0.019619241012009108  1.0000
  N   N24       1.0  0.7170692176988993  0.846807818638183  0.9803835985314393  1.0000
