data_image0
_chemical_formula_structural       Zn8H78C72N6O26
_chemical_formula_sum              "Zn8 H78 C72 N6 O26"
_cell_length_a       19.29180298649834
_cell_length_b       19.501768677185353
_cell_length_c       19.562430858394748
_cell_angle_alpha    90.35492138569775
_cell_angle_beta     119.41497280338393
_cell_angle_gamma    119.35270866555145

_space_group_name_H-M_alt    "P 1"
_space_group_IT_number       1

loop_
  _space_group_symop_operation_xyz
  'x, y, z'

loop_
  _atom_site_type_symbol
  _atom_site_label
  _atom_site_symmetry_multiplicity
  _atom_site_fract_x
  _atom_site_fract_y
  _atom_site_fract_z
  _atom_site_occupancy
  Zn  Zn1       1.0  0.9132595251362972  0.0463121512324349  0.9531186742298842  1.0000
  Zn  Zn2       1.0  0.0754765860581372  0.041412294609784794  0.11466042223030118  1.0000
  Zn  Zn3       1.0  0.08115627814455449  0.04662141692760709  0.9548351374500541  1.0000
  Zn  Zn4       1.0  0.9160987914217175  0.8826035311251417  0.9519011582835828  1.0000
  Zn  Zn5       1.0  0.08170968131263122  0.4633069995950904  0.5367697959470732  1.0000
  Zn  Zn6       1.0  0.9245033880488408  0.465651051451637  0.3725155998198915  1.0000
  Zn  Zn7       1.0  0.08005022735330405  0.6254502551093848  0.5386786762969108  1.0000
  Zn  Zn8       1.0  0.9108617352415537  0.4567286608040888  0.5307988270807159  1.0000
  H   H1        1.0  0.9175626332962068  0.1742224293558436  0.1448626029886313  1.0000
  H   H2        1.0  0.9545668400090507  0.12088146640458317  0.21236459353251289  1.0000
  H   H3        1.0  0.13093283992490967  0.24739300773457268  0.2453150329511827  1.0000
  H   H4        1.0  0.07496879986749153  0.3000471634241464  0.22911922970035187  1.0000
  H   H5        1.0  0.07686501030656244  0.29381769450195344  0.4136967327976321  1.0000
  H   H6        1.0  0.9671210609898109  0.2231933029217004  0.3165086224712538  1.0000
  H   H7        1.0  0.1176417558705509  0.398227735938164  0.33681462909112975  1.0000
  H   H8        1.0  0.9925728072487487  0.33583153272127214  0.2547445474931538  1.0000
  H   H9        1.0  0.19943205184710422  0.20512037518735582  0.31816379029677216  1.0000
  H   H10       1.0  0.2488029122947992  0.12074773337004531  0.3923548749452124  1.0000
  H   H11       1.0  0.201627322418247  0.0675854400748293  0.48907772370048247  1.0000
  H   H12       1.0  0.10150610117982241  0.1016220333167723  0.507569193257815  1.0000
  H   H13       1.0  0.0500899698907133  0.1850737156470856  0.43299063283296846  1.0000
  H   H14       1.0  0.9931261540297667  0.24478276950843994  0.8408035144436566  1.0000
  H   H15       1.0  0.10980244278221821  0.2651943730567369  0.8856031712698423  1.0000
  H   H16       1.0  0.008456730978124893  0.13072258672682577  0.7512854578338092  1.0000
  H   H17       1.0  0.938812602171403  0.1711778446361336  0.7074317184173253  1.0000
  H   H18       1.0  0.12459338255606413  0.3541173389086936  0.7084924881215144  1.0000
  H   H19       1.0  0.09392649314955293  0.3606050480052971  0.7791514682291378  1.0000
  H   H20       1.0  0.943757294865904  0.23309112854672517  0.6047419595619914  1.0000
  H   H21       1.0  0.9214365838156979  0.27600876657299267  0.6660173847668247  1.0000
  H   H22       1.0  0.12573213217807927  0.13842026336325117  0.7887554636582692  1.0000
  H   H23       1.0  0.28584874342173094  0.1649615652995422  0.8645030968107577  1.0000
  H   H24       1.0  0.43275132682408207  0.30806066596944237  0.9141198258755735  1.0000
  H   H25       1.0  0.41273516265643206  0.4241904765430533  0.8861677596407772  1.0000
  H   H26       1.0  0.25321056950055987  0.39928176958641604  0.8114426642456891  1.0000
  H   H27       1.0  0.6030331652947468  0.8573632438608384  0.7557718135054756  1.0000
  H   H28       1.0  0.6298320012266743  0.7883887588340173  0.7332376839637433  1.0000
  H   H29       1.0  0.6273553040924255  0.752324187242152  0.8675394847876915  1.0000
  H   H30       1.0  0.5402015442641286  0.7750682230798276  0.8266009778622633  1.0000
  H   H31       1.0  0.3648367373933397  0.5931530521790903  0.645318174829228  1.0000
  H   H32       1.0  0.4263737404243102  0.6930635047100252  0.6372543132147968  1.0000
  H   H33       1.0  0.37682626566910926  0.666738137975166  0.7654067779978176  1.0000
  H   H34       1.0  0.39466215197938215  0.7496622190366151  0.7228971658228217  1.0000
  H   H35       1.0  0.6647541619278885  0.6793737940851444  0.8586094516208577  1.0000
  H   H36       1.0  0.7197914784082258  0.6001524272130253  0.832053129132518  1.0000
  H   H37       1.0  0.62873359533377  0.5030428064698212  0.6899817631008033  1.0000
  H   H38       1.0  0.4808672600724365  0.48997693444589174  0.5748758298436769  1.0000
  H   H39       1.0  0.4250627332762704  0.569539467373879  0.5996989719411373  1.0000
  H   H40       1.0  0.6105057019979228  0.27039225930457184  0.24077060235224929  1.0000
  H   H41       1.0  0.6331443941623575  0.2435450000730981  0.332654142771986  1.0000
  H   H42       1.0  0.6221923160740347  0.37441044155792014  0.3660668730445096  1.0000
  H   H43       1.0  0.5364050980748515  0.33107480385727667  0.258258228604724  1.0000
  H   H44       1.0  0.366715052784201  0.14504728108606457  0.2690069506997403  1.0000
  H   H45       1.0  0.4307770579561421  0.1420484669465623  0.22917287390611568  1.0000
  H   H46       1.0  0.36958083434991085  0.2626709854799215  0.20769705371456124  1.0000
  H   H47       1.0  0.3937805830450147  0.2267660063902355  0.14350448860309942  1.0000
  H   H48       1.0  0.6565172572455324  0.3666104585511718  0.4756453463244767  1.0000
  H   H49       1.0  0.7163698990676935  0.34134617446336796  0.6082610029196331  1.0000
  H   H50       1.0  0.6369635513978552  0.1972057680154933  0.6156365362348453  1.0000
  H   H51       1.0  0.496314713379796  0.07876809253726691  0.48400603339950987  1.0000
  H   H52       1.0  0.4363560975190808  0.10258978551867412  0.35028911149143477  1.0000
  H   H53       1.0  0.09350854175122694  0.7558427359446611  0.35523765117036993  1.0000
  H   H54       1.0  0.053097470786490006  0.6638313000163407  0.2876119342078169  1.0000
  H   H55       1.0  0.8776829738247117  0.6286048274771829  0.24720238084926657  1.0000
  H   H56       1.0  0.9411231086994292  0.7365827296804142  0.2671736811060085  1.0000
  H   H57       1.0  0.9456608032048166  0.7257262899434735  0.085953175978517  1.0000
  H   H58       1.0  0.052963295585378434  0.7661346489524161  0.18637883732213098  1.0000
  H   H59       1.0  0.8933109070235545  0.7874012251026059  0.15288782850110744  1.0000
  H   H60       1.0  0.017021819992209055  0.8515835207960337  0.237891246565681  1.0000
  H   H61       1.0  0.8147194123835675  0.5189539881742249  0.17607225781707567  1.0000
  H   H62       1.0  0.7683253274546047  0.3863733461118101  0.10375533905646254  1.0000
  H   H63       1.0  0.8225215669913766  0.3792118931600825  0.01249965951914331  1.0000
  H   H64       1.0  0.9277497186072808  0.5111796806374258  0.9985552681976414  1.0000
  H   H65       1.0  0.9765423515492273  0.6448897621592166  0.07172990945160503  1.0000
  H   H66       1.0  0.9590445684223211  0.6390423333223864  0.7145715436279757  1.0000
  H   H67       1.0  0.08187742259835327  0.701754681524463  0.7492228051042031  1.0000
  H   H68       1.0  0.9987494011952195  0.7532750441119801  0.6168656407090296  1.0000
  H   H69       1.0  0.9333820600878868  0.7388131404407757  0.6598410675444272  1.0000
  H   H70       1.0  0.133420137674662  0.9132349804255923  0.8454851904278654  1.0000
  H   H71       1.0  0.10054867489696305  0.8123955050865773  0.8522983537416592  1.0000
  H   H72       1.0  0.9528964084457527  0.8469117836758216  0.7333901186422834  1.0000
  H   H73       1.0  0.9287077386259667  0.7608843524561593  0.771338697659047  1.0000
  H   H74       1.0  0.11623913753376776  0.818214939955986  0.6227551888196814  1.0000
  H   H75       1.0  0.2734385555012435  0.882335103326106  0.6452335458756763  1.0000
  H   H76       1.0  0.42570257830221436  0.9692342282301211  0.7874568048408149  1.0000
  H   H77       1.0  0.4135337874235817  0.9875301436203613  0.9068539000475794  1.0000
  H   H78       1.0  0.2566361841697214  0.922265063010897  0.885999204921859  1.0000
  C   C1        1.0  0.9808007647044124  0.12121917724957139  0.12031678205931942  1.0000
  C   C2        1.0  0.9754589351444097  0.16481665820719377  0.179948857779273  1.0000
  C   C3        1.0  0.0740802340214088  0.24624749368373947  0.24607089689546768  1.0000
  C   C4        1.0  0.0431886398909285  0.2770308862591975  0.34660837107387715  1.0000
  C   C5        1.0  0.044759173793544035  0.3516604029807198  0.3211279425620148  1.0000
  C   C6        1.0  0.027184530671817662  0.39431716310875936  0.36995770115936466  1.0000
  C   C7        1.0  0.12192860581124881  0.2041977477837733  0.3701503659533429  1.0000
  C   C8        1.0  0.1772955713043913  0.18323738253769759  0.35948506011766307  1.0000
  C   C9        1.0  0.2052296978591031  0.13481506399181603  0.4016869455255189  1.0000
  C   C10       1.0  0.17900627762313087  0.10501239431865628  0.4557288958862315  1.0000
  C   C11       1.0  0.1234327488483871  0.12436329481398897  0.4661007855188187  1.0000
  C   C12       1.0  0.09446370322652338  0.172535304783942  0.4237116088005805  1.0000
  C   C13       1.0  0.010421587790510485  0.14890525326739376  0.8810444566660037  1.0000
  C   C14       1.0  0.031601046298085626  0.21730075080098743  0.8428342337421881  1.0000
  C   C15       1.0  0.010686501573893304  0.1877267828733267  0.7570330300517867  1.0000
  C   C16       1.0  0.073543410394052  0.31799447488918997  0.7247853575942074  1.0000
  C   C17       1.0  0.9731116906439751  0.2898944535120762  0.6502169251929004  1.0000
  C   C18       1.0  0.9791051412949233  0.3541849390821739  0.6058658781240069  1.0000
  C   C19       1.0  0.1747066828500436  0.2660142366111771  0.7911515734912413  1.0000
  C   C20       1.0  0.18760170864759124  0.20147234339067674  0.8091843081582437  1.0000
  C   C21       1.0  0.2791229833578725  0.21673031025258635  0.8527410301298558  1.0000
  C   C22       1.0  0.3612945060070345  0.2965449402898344  0.8805696912854301  1.0000
  C   C23       1.0  0.34980735083441067  0.36112243200415856  0.8645712811491107  1.0000
  C   C24       1.0  0.2583843130223471  0.34669151202159293  0.8212687391929308  1.0000
  C   C25       1.0  0.7393831735890899  0.8800484279515146  0.8502659808490947  1.0000
  C   C26       1.0  0.6332206309236952  0.8214882849941175  0.7819149359385165  1.0000
  C   C27       1.0  0.5761923904533292  0.7553391855265159  0.8105333813311404  1.0000
  C   C28       1.0  0.41539531630507304  0.6597183166126895  0.6805710934884671  1.0000
  C   C29       1.0  0.36634943312650137  0.6833579163852405  0.7089251249273615  1.0000
  C   C30       1.0  0.2579944242432575  0.6329195607274372  0.6445171543875574  1.0000
  C   C31       1.0  0.5382373131329673  0.6298155679130772  0.7320872191151722  1.0000
  C   C32       1.0  0.6229531384433287  0.6378577687993143  0.7960304299278036  1.0000
  C   C33       1.0  0.6546115519958418  0.5928117790284942  0.7807568474553078  1.0000
  C   C34       1.0  0.6040571584885868  0.5386691890106334  0.7014924118846935  1.0000
  C   C35       1.0  0.5213766399891  0.5312808312251747  0.6375132144609521  1.0000
  C   C36       1.0  0.4890516320448198  0.5764105155906875  0.6519181434142068  1.0000
  C   C37       1.0  0.7424624518272865  0.36393851402599603  0.35483455240891004  1.0000
  C   C38       1.0  0.6365041165918227  0.29353508732079087  0.3053820638646129  1.0000
  C   C39       1.0  0.5742062067845667  0.31706577061095953  0.3136273685092448  1.0000
  C   C40       1.0  0.4164148717201214  0.182731194785994  0.2518423152480196  1.0000
  C   C41       1.0  0.363970042821947  0.208839592302958  0.18075648107069497  1.0000
  C   C42       1.0  0.2566880805080416  0.1410688248051315  0.12338904441247683  1.0000
  C   C43       1.0  0.5394247234587654  0.2371292021981546  0.40132999776783146  1.0000
  C   C44       1.0  0.6199747651566057  0.3031192261244655  0.4761965206214993  1.0000
  C   C45       1.0  0.6541938115431023  0.28862087962873767  0.551848309820265  1.0000
  C   C46       1.0  0.6101313768609629  0.20816257203208718  0.5561407522642483  1.0000
  C   C47       1.0  0.5313938202836539  0.1423304534473857  0.48263716636255066  1.0000
  C   C48       1.0  0.4966834704579313  0.15601529591771168  0.40619920975679236  1.0000
  C   C49       1.0  0.019819193450921098  0.6416054094571352  0.3756190045976737  1.0000
  C   C50       1.0  0.03300638751561993  0.6907941086583307  0.31847211006737547  1.0000
  C   C51       1.0  0.9387398043086393  0.6814456724375332  0.25000603656508963  1.0000
  C   C52       1.0  0.9756545563411835  0.7431763127147305  0.15233717284888126  1.0000
  C   C53       1.0  0.9679361209929667  0.8143500069975218  0.17197117317998334  1.0000
  C   C54       1.0  0.985558135315394  0.8720370958308337  0.12185924611157638  1.0000
  C   C55       1.0  0.8974263154953801  0.593592433356818  0.12845697522571697  1.0000
  C   C56       1.0  0.8396525250695678  0.5185674060061132  0.1369578217772159  1.0000
  C   C57       1.0  0.8133662656155708  0.442888301466617  0.09576114860909977  1.0000
  C   C58       1.0  0.8437244269238066  0.4387265057393606  0.04494082770103366  1.0000
  C   C59       1.0  0.9019938813646532  0.5124127959839909  0.036989436269237855  1.0000
  C   C60       1.0  0.9293633356530934  0.5888683256624248  0.07842162668564619  1.0000
  C   C61       1.0  0.990097254732028  0.6199330907549979  0.6277653611098302  1.0000
  C   C62       1.0  0.007463362241878687  0.6764078249301945  0.6960941955736357  1.0000
  C   C63       1.0  0.0014054008069877156  0.7504069216862348  0.6738669623547223  1.0000
  C   C64       1.0  0.07959778776286451  0.8467286355685815  0.8101857026298518  1.0000
  C   C65       1.0  0.9822402243779892  0.8271050828757182  0.7873662869091477  1.0000
  C   C66       1.0  0.9926585797305378  0.8764241682909885  0.8561971876279625  1.0000
  C   C67       1.0  0.17209982632339665  0.8658796267773924  0.752051551094567  1.0000
  C   C68       1.0  0.1804332210396995  0.8554459791109965  0.6854738385157617  1.0000
  C   C69       1.0  0.27033738373139476  0.8920845114936853  0.6983940048722701  1.0000
  C   C70       1.0  0.35544898675146896  0.9404316633350617  0.7777351812258216  1.0000
  C   C71       1.0  0.348369329208275  0.95070471368647  0.8441190038612376  1.0000
  C   C72       1.0  0.25852366408133054  0.9137506136648381  0.8320807179681677  1.0000
  N   N1        1.0  0.09785201168313762  0.25658711569614207  0.33017554749282846  1.0000
  N   N2        1.0  0.0812234917727892  0.2489138133377935  0.7432768488081507  1.0000
  N   N3        1.0  0.5041563990114284  0.6724785126220638  0.7492027512759875  1.0000
  N   N4        1.0  0.503275733210188  0.25315438998209316  0.32555023374062847  1.0000
  N   N5        1.0  0.9201485969330251  0.6693423390914433  0.1676696253799434  1.0000
  N   N6        1.0  0.08094632352027974  0.8311186861535517  0.7380813331632792  1.0000
  O   O1        1.0  0.9961247854923344  0.004242252133423102  0.9932841737420687  1.0000
  O   O2        1.0  0.05489600560787979  0.11859812477930382  0.15265437100735815  1.0000
  O   O3        1.0  0.9118172690292498  0.08989066744077692  0.043543321339683354  1.0000
  O   O4        1.0  0.9697565130298644  0.4159030389359515  0.33028471937700504  1.0000
  O   O5        1.0  0.07355001601411712  0.4063565901042026  0.44780459385660976  1.0000
  O   O6        1.0  0.04339489388458869  0.10626070919790458  0.8796035974611626  1.0000
  O   O7        1.0  0.9628988365726415  0.13915760001361827  0.9122182126608891  1.0000
  O   O8        1.0  0.9169410519365969  0.37147554839577174  0.5830152240107653  1.0000
  O   O9        1.0  0.04615904085527941  0.3846623377232135  0.5939333304923977  1.0000
  O   O10       1.0  0.7808088493077037  0.8458646864752452  0.8916163920160898  1.0000
  O   O11       1.0  0.7796943860965582  0.9578769451981441  0.8613065425583314  1.0000
  O   O12       1.0  0.21692583297885906  0.6713288461995432  0.6250399078466627  1.0000
  O   O13       1.0  0.21684066413670425  0.554908597553009  0.615994719771777  1.0000
  O   O14       1.0  0.7797764037902155  0.4025556268969908  0.4292185737524434  1.0000
  O   O15       1.0  0.7867057429651042  0.3788324466554798  0.31942441565992413  1.0000
  O   O16       1.0  0.21832317239163498  0.12483451532865078  0.04549932451048018  1.0000
  O   O17       1.0  0.2134429127585022  0.1070339418485133  0.15834094939549456  1.0000
  O   O18       1.0  0.9465563098594174  0.5661788829484707  0.340500321660798  1.0000
  O   O19       1.0  0.08244058077534064  0.678216591157742  0.4537566052988493  1.0000
  O   O20       1.0  0.042721756633483106  0.9500275221447368  0.16076511854752332  1.0000
  O   O21       1.0  0.9400779861319037  0.8372212922482447  0.04431844144794885  1.0000
  O   O22       1.0  0.02834329714222854  0.655505931452005  0.5896483545385819  1.0000
  O   O23       1.0  0.9402339297636004  0.5416424723977755  0.6143493776203429  1.0000
  O   O24       1.0  0.9318207138447149  0.8371160122205196  0.8744538871645915  1.0000
  O   O25       1.0  0.060463481581336964  0.9537529665448544  0.8887794509755338  1.0000
  O   O26       1.0  0.9983954761503638  0.5032431522917235  0.4943751318943938  1.0000
