data_image0
_chemical_formula_structural       Al3H27C63N3O18F9
_chemical_formula_sum              "Al3 H27 C63 N3 O18 F9"
_cell_length_a       4.106360430213593
_cell_length_b       23.387650101956314
_cell_length_c       23.387527770547024
_cell_angle_alpha    119.99957498203794
_cell_angle_beta     90.00110159026367
_cell_angle_gamma    89.99920737466712

_space_group_name_H-M_alt    "P 1"
_space_group_IT_number       1

loop_
  _space_group_symop_operation_xyz
  'x, y, z'

loop_
  _atom_site_type_symbol
  _atom_site_label
  _atom_site_symmetry_multiplicity
  _atom_site_fract_x
  _atom_site_fract_y
  _atom_site_fract_z
  _atom_site_occupancy
  Al  Al1       1.0  0.9948880353658681  0.0005648723567829902  0.5002758930021045  1.0000
  Al  Al2       1.0  0.9948866972332765  0.3330495014350916  0.16694611250061805  1.0000
  Al  Al3       1.0  0.9949334462532491  0.6663694909424719  0.8327672934672422  1.0000
  H   H1        1.0  0.2059274385722532  0.8695818217294118  0.921316540839058  1.0000
  H   H2        1.0  0.20956895870705947  0.9755547756001237  0.9224904232639306  1.0000
  H   H3        1.0  0.7832948638097718  0.8858648783166384  0.7437959112632484  1.0000
  H   H4        1.0  0.7832148404634084  0.024588630778467152  0.947471952729579  1.0000
  H   H5        1.0  0.20589403877840343  0.21838601526908238  0.9637260817104121  1.0000
  H   H6        1.0  0.2095721369805759  0.11358596443565  0.8577575819589568  1.0000
  H   H7        1.0  0.7833364699880079  0.0895196245067139  0.8087358016644542  1.0000
  H   H8        1.0  0.20581457110431242  0.9120194019491094  0.6149435406398069  1.0000
  H   H9        1.0  0.2094779149698809  0.9108408334881373  0.7197404139094346  1.0000
  H   H10       1.0  0.78979753341892  0.42099326036224466  0.3688274078652185  1.0000
  H   H11       1.0  0.7911887621974287  0.42235210164085396  0.47491109619319627  1.0000
  H   H12       1.0  0.21800945328666188  0.24355694291907073  0.3863740685886655  1.0000
  H   H13       1.0  0.21810870701425958  0.4469660600778056  0.5238342124313604  1.0000
  H   H14       1.0  0.7897681402524199  0.4644903222497447  0.7188208653797618  1.0000
  H   H15       1.0  0.7911279992710973  0.3584084620514644  0.6140939784067498  1.0000
  H   H16       1.0  0.2180103801525846  0.30949343172231636  0.5897768732570157  1.0000
  H   H17       1.0  0.7897800584509085  0.11451094422153568  0.4123425677102972  1.0000
  H   H18       1.0  0.7911347959651706  0.21923374977876614  0.4109791426899037  1.0000
  H   H19       1.0  0.7898882807073094  0.4479491426055446  0.07922478665582844  1.0000
  H   H20       1.0  0.7903736327804509  0.5525990901589354  0.07776233384834103  1.0000
  H   H21       1.0  0.21749517952815012  0.6427774073271664  0.2565507835899227  1.0000
  H   H22       1.0  0.2176184393030312  0.5767648475142123  0.05288626639671901  1.0000
  H   H23       1.0  0.7898911397843094  0.7541153501166136  0.03539549066670841  1.0000
  H   H24       1.0  0.7902741739689602  0.7555867386990515  0.14151371635408355  1.0000
  H   H25       1.0  0.2175009565882462  0.7804398069529556  0.1905500445545132  1.0000
  H   H26       1.0  0.7898641691245984  0.7979394808620341  0.38538769135726625  1.0000
  H   H27       1.0  0.7903035104452555  0.6918259549606206  0.28074121254443457  1.0000
  C   C1        1.0  0.49421732503367377  0.9132812481321226  0.412250983265061  1.0000
  C   C2        1.0  0.49784202827462554  0.999898465165515  0.5872878835166946  1.0000
  C   C3        1.0  0.49415903475102135  0.08794005706472066  0.5009558180316418  1.0000
  C   C4        1.0  0.4978296844985692  0.24603978826038997  0.07927661760875539  1.0000
  C   C5        1.0  0.49421612061013315  0.42107468689810906  0.16768752126144199  1.0000
  C   C6        1.0  0.49417054083069434  0.3323752687869828  0.253645176879374  1.0000
  C   C7        1.0  0.49788652577747433  0.7540472032723217  0.8334303146277479  1.0000
  C   C8        1.0  0.4942928160092421  0.6656255819589559  0.920047412737077  1.0000
  C   C9        1.0  0.4942138258833423  0.5796792522808687  0.7453906070066552  1.0000
  C   C10       1.0  0.3368806298759282  0.8737178926296847  0.8830259921691238  1.0000
  C   C11       1.0  0.33533682314045876  0.9332656271087884  0.8832455222372888  1.0000
  C   C12       1.0  0.4954392292301222  0.9393706145518974  0.8334546085869475  1.0000
  C   C13       1.0  0.6558654633103274  0.88387778642889  0.7834504369663197  1.0000
  C   C14       1.0  0.6516450662956927  0.8250299028929291  0.7842097072084402  1.0000
  C   C15       1.0  0.49667615958956907  0.8181262925038483  0.8334113421135287  1.0000
  C   C16       1.0  0.6557890574593017  0.06622882874530231  0.9494570832817858  1.0000
  C   C17       1.0  0.6515482095357754  0.12583650078758524  0.008301213269930927  1.0000
  C   C18       1.0  0.49661601684342577  0.1819404785364611  0.015195088393404908  1.0000
  C   C19       1.0  0.3368435402609363  0.17596049751353585  0.9595973906552473  1.0000
  C   C20       1.0  0.3353084758837425  0.11663116305424383  0.9000533269470737  1.0000
  C   C21       1.0  0.49540829588725177  0.06073403799409488  0.893954838384829  1.0000
  C   C22       1.0  0.6558847354290833  0.049876375216442156  0.7671012941554451  1.0000
  C   C23       1.0  0.6516345336684638  0.049114072489331244  0.7074926961990897  1.0000
  C   C24       1.0  0.49664241533644576  0.9999155621024017  0.6513872293858541  1.0000
  C   C25       1.0  0.33679750752725107  0.9503061233143056  0.6573667588604054  1.0000
  C   C26       1.0  0.33528350396607465  0.9500895326267412  0.716698030001979  1.0000
  C   C27       1.0  0.49542878645829086  0.99987393438807  0.7725905235993623  1.0000
  C   C28       1.0  0.6607214442029061  0.3826517919301864  0.3732090335946907  1.0000
  C   C29       1.0  0.6648158065781969  0.3829963288461826  0.43282150475085507  1.0000
  C   C30       1.0  0.5062348215531286  0.3332683923661222  0.43927698492009176  1.0000
  C   C31       1.0  0.3444701500741162  0.28314475077416995  0.38407861539992894  1.0000
  C   C32       1.0  0.3463153545578592  0.2837487255427504  0.3251697865128379  1.0000
  C   C33       1.0  0.4997579516422874  0.33286072719458565  0.31792950218037674  1.0000
  C   C34       1.0  0.3445342281030292  0.4492529927845367  0.5657158145488027  1.0000
  C   C35       1.0  0.34639806556592845  0.5081596384481983  0.6252301932558808  1.0000
  C   C36       1.0  0.49979695314866035  0.5153972577811672  0.681587545720248  1.0000
  C   C37       1.0  0.6607247655692561  0.46011457224339125  0.6761000468855443  1.0000
  C   C38       1.0  0.6647980993805261  0.4005028113755031  0.6168290081343173  1.0000
  C   C39       1.0  0.5062389030354594  0.3940538047528078  0.5606450808196612  1.0000
  C   C40       1.0  0.3444576443811939  0.2676111543895274  0.5501883834462049  1.0000
  C   C41       1.0  0.34629609421041607  0.20809617163715186  0.5495829258155425  1.0000
  C   C42       1.0  0.49974055715298255  0.15174366014064591  0.5004717797508392  1.0000
  C   C43       1.0  0.6607050645276827  0.15722927190750366  0.4506811142787797  1.0000
  C   C44       1.0  0.6647817875393401  0.2164980549900193  0.45033385940466536  1.0000
  C   C45       1.0  0.5062038641953988  0.2726828946650243  0.5000633348779147  1.0000
  C   C46       1.0  0.6602556153790217  0.4905977358613924  0.11751334622278622  1.0000
  C   C47       1.0  0.6639865311941405  0.5498562718655151  0.11711733283528507  1.0000
  C   C48       1.0  0.505177257543167  0.6060300399200074  0.16680315019252853  1.0000
  C   C49       1.0  0.34394000709014694  0.6009313558847893  0.21696198417346588  1.0000
  C   C50       1.0  0.3464846800282473  0.541417561941273  0.2163878340815019  1.0000
  C   C51       1.0  0.49961499882817867  0.48501481969414334  0.16729014698903916  1.0000
  C   C52       1.0  0.3440377385452392  0.6163633834482313  0.05062968369977486  1.0000
  C   C53       1.0  0.34659836514875764  0.6169295847678098  0.9916936403950345  1.0000
  C   C54       1.0  0.4997170711546558  0.6660349325450879  0.9843864668551205  1.0000
  C   C55       1.0  0.660267117080778  0.715821089184594  0.039754707721847596  1.0000
  C   C56       1.0  0.6639645342199076  0.7162225160621888  0.09940777550626503  1.0000
  C   C57       1.0  0.5051814241515659  0.6665275689415608  0.10589525743049687  1.0000
  C   C58       1.0  0.3439435238269439  0.7826974355819871  0.2323993800470064  1.0000
  C   C59       1.0  0.34647948805140766  0.8416353388982003  0.2919124320234375  1.0000
  C   C60       1.0  0.4996251097937189  0.8489413619306846  0.3483159705073717  1.0000
  C   C61       1.0  0.6602290326536818  0.7935786591099045  0.3427366037044381  1.0000
  C   C62       1.0  0.6639492580702536  0.7339244654669342  0.28347892225778537  1.0000
  C   C63       1.0  0.505156279906032  0.7274380294147988  0.22730249388359888  1.0000
  N   N1        1.0  0.4952420540564831  0.9999910698483774  0.8333308624903637  1.0000
  N   N2        1.0  0.5088169651594043  0.33333738179320693  0.4999953504132577  1.0000
  N   N3        1.0  0.5072862595876869  0.6666675582731189  0.16666832944214607  1.0000
  O   O1        1.0  0.7286119011399916  0.07703031290009213  0.5295964223151088  1.0000
  O   O2        1.0  0.7287476569569052  0.9527644000316401  0.4230730849161901  1.0000
  O   O3        1.0  0.7336338373456712  0.9702607856166594  0.5479768629685894  1.0000
  O   O4        1.0  0.2564521322363333  0.049176991042223436  0.4716325327634365  1.0000
  O   O5        1.0  0.2614970399506262  0.028287478706495447  0.5767181911921782  1.0000
  O   O6        1.0  0.25655356759586573  0.9225729072753525  0.45095600101350913  1.0000
  O   O7        1.0  0.2564742307293315  0.3616945913178853  0.24419930904090853  1.0000
  O   O8        1.0  0.2614833593559922  0.25660904197703627  0.1182347596013642  1.0000
  O   O9        1.0  0.2565359985782791  0.3823701240458064  0.1382706718792123  1.0000
  O   O10       1.0  0.7286083015159689  0.3037315041347028  0.21409277221302864  1.0000
  O   O11       1.0  0.728746912385553  0.4102500232026145  0.19634309764103378  1.0000
  O   O12       1.0  0.7336141138921164  0.28535224713847634  0.08894649903659511  1.0000
  O   O13       1.0  0.25650623146984936  0.5891176511748242  0.7841549759282743  1.0000
  O   O14       1.0  0.2615190660490826  0.7150884249752777  0.805042445806123  1.0000
  O   O15       1.0  0.25661842766255916  0.6950387833712953  0.9107556591739298  1.0000
  O   O16       1.0  0.7286467502432076  0.6192297703588282  0.7563052552071812  1.0000
  O   O17       1.0  0.7288109441390845  0.636964517552144  0.8805636167658691  1.0000
  O   O18       1.0  0.7336519952259978  0.7443722128941557  0.8630706708014485  1.0000
  F   F1        1.0  0.808756861138363  0.7721396419020863  0.7348114856346656  1.0000
  F   F2        1.0  0.8086169750384896  0.1293257277248614  0.06119207012275749  1.0000
  F   F3        1.0  0.808781328350527  0.09850875942965599  0.7039966235414354  1.0000
  F   F4        1.0  0.18810625024151756  0.23429748743113518  0.2724844452221475  1.0000
  F   F5        1.0  0.1882269328470656  0.5608511716776476  0.6284592973460974  1.0000
  F   F6        1.0  0.18808087491142803  0.20486673489738644  0.599037230680139  1.0000
  F   F7        1.0  0.1889878639029945  0.5383145783459184  0.26603722246378686  1.0000
  F   F8        1.0  0.18919046074270088  0.5672733759766758  0.9389302161887018  1.0000
  F   F9        1.0  0.18899752094702646  0.8943880694733864  0.2950136380175295  1.0000
