data_image0
_chemical_formula_structural       Hg2H20C24N8Cl4O4
_chemical_formula_sum              "Hg2 H20 C24 N8 Cl4 O4"
_cell_length_a       4.645574059013055
_cell_length_b       7.24483125794671
_cell_length_c       21.363805898649435
_cell_angle_alpha    95.99562521677984
_cell_angle_beta     89.9999400363861
_cell_angle_gamma    90.00027085296648

_space_group_name_H-M_alt    "P 1"
_space_group_IT_number       1

loop_
  _space_group_symop_operation_xyz
  'x, y, z'

loop_
  _atom_site_type_symbol
  _atom_site_label
  _atom_site_symmetry_multiplicity
  _atom_site_fract_x
  _atom_site_fract_y
  _atom_site_fract_z
  _atom_site_occupancy
  Hg  Hg1       1.0  0.0828982996665815  0.7499978341648941  0.24999967301963014  1.0000
  Hg  Hg2       1.0  0.9171043460844645  0.25000422917183573  0.750000610910604  1.0000
  H   H1        1.0  0.7623676850319187  0.9181998823040299  0.023723564866784803  1.0000
  H   H2        1.0  0.7623653815505521  0.5818005846573938  0.4762757910649427  1.0000
  H   H3        1.0  0.23763496072306367  0.08180357037242199  0.9762772358668315  1.0000
  H   H4        1.0  0.2376308064320298  0.41819870144444576  0.5237239273915861  1.0000
  H   H5        1.0  0.7506830154080006  0.8696105781064744  0.1307671607954362  1.0000
  H   H6        1.0  0.750670809194638  0.6303856874885126  0.3692311143632665  1.0000
  H   H7        1.0  0.2493196303480687  0.1303928731158024  0.869233171805533  1.0000
  H   H8        1.0  0.24932537877177205  0.36960943641085453  0.6307689262136904  1.0000
  H   H9        1.0  0.727420103442455  0.3552266717490937  0.1979995147282168  1.0000
  H   H10       1.0  0.7274061654178325  0.14476952629784273  0.30199730391239404  1.0000
  H   H11       1.0  0.2725954578387261  0.6447781659237819  0.8020003984100157  1.0000
  H   H12       1.0  0.27258356479234896  0.8552255932293845  0.6980013322670544  1.0000
  H   H13       1.0  0.3550718985646242  0.237680113694239  0.1186875767840263  1.0000
  H   H14       1.0  0.35507137610336775  0.2623177588882156  0.3813117277824176  1.0000
  H   H15       1.0  0.6449328997735931  0.762323343347944  0.8813146283473828  1.0000
  H   H16       1.0  0.6449248118702471  0.7376787499883547  0.6186874251999939  1.0000
  H   H17       1.0  0.1763005615707414  0.4513663439969945  0.0415244239222474  1.0000
  H   H18       1.0  0.1763067059397372  0.04863099637111649  0.458474903652025  1.0000
  H   H19       1.0  0.8236956264125155  0.5486343358070939  0.9584772157355984  1.0000
  H   H20       1.0  0.8236959397933816  0.9513655125150676  0.5415242493299743  1.0000
  C   C1        1.0  0.6614965465717048  0.7295015427309578  0.12480950033855719  1.0000
  C   C2        1.0  0.6614853503640746  0.7704930680067149  0.37518826949519724  1.0000
  C   C3        1.0  0.33850609918938807  0.2705032963768729  0.8751908809331538  1.0000
  C   C4        1.0  0.3385108376023354  0.22950205589265238  0.6248117710817667  1.0000
  C   C5        1.0  0.6452067703399322  0.4421490911350075  0.1632861918420261  1.0000
  C   C6        1.0  0.6452006365486583  0.057848251504061886  0.3367111541824954  1.0000
  C   C7        1.0  0.35480233319071897  0.5578585237535378  0.836714286770743  1.0000
  C   C8        1.0  0.3547933988334364  0.9421468694837497  0.6632879501293161  1.0000
  C   C9        1.0  0.4396948979050849  0.3777859380969416  0.11869955206688591  1.0000
  C   C10       1.0  0.43968903248367036  0.1222080198456439  0.3812986593312501  1.0000
  C   C11       1.0  0.5603055952623138  0.6222175160304814  0.8813017167995127  1.0000
  C   C12       1.0  0.5603071554798974  0.8777857132598255  0.6187003963096913  1.0000
  C   C13       1.0  0.3411457215858391  0.4964089838142697  0.07614913206843002  1.0000
  C   C14       1.0  0.3411409311931309  0.0035874579621619994  0.42384965748723863  1.0000
  C   C15       1.0  0.658856924175936  0.5035972489958026  0.9238531704045913  1.0000
  C   C16       1.0  0.6588552567833332  0.9964104417083064  0.5761504804311955  1.0000
  C   C17       1.0  0.4576895645396916  0.67522674917371  0.07828397770637711  1.0000
  C   C18       1.0  0.45768285809609205  0.8247672548121869  0.4217138183574747  1.0000
  C   C19       1.0  0.5423109286237704  0.3247753156139908  0.9217167743566392  1.0000
  C   C20       1.0  0.542311177289939  0.17522925551535448  0.5782858027577191  1.0000
  C   C21       1.0  0.349955351605395  0.8068392685476339  0.034934618255988405  1.0000
  C   C22       1.0  0.3499539254129759  0.6931585827272781  0.4650647420832854  1.0000
  C   C23       1.0  0.6500451415641778  0.19316418267143823  0.9650657143451228  1.0000
  C   C24       1.0  0.6500422625545285  0.30683653971791347  0.5349348303610314  1.0000
  N   N1        1.0  0.7507767054465334  0.6155794337005035  0.1662431675535316  1.0000
  N   N2        1.0  0.7507686993488322  0.8844140505918714  0.3337531377207981  1.0000
  N   N3        1.0  0.24922809290323764  0.384425402502181  0.8337562774527498  1.0000
  N   N4        1.0  0.24923179378882315  0.11557968106583157  0.666245449787219  1.0000
  N   N5        1.0  0.5418933933446726  0.9360614014167579  0.01980535830999491  1.0000
  N   N6        1.0  0.5418909392372697  0.5639384120736963  0.48019496226254427  1.0000
  N   N7        1.0  0.4581070998238063  0.06394205125648968  0.9801954424237564  1.0000
  N   N8        1.0  0.4581074013195802  0.4360581011685979  0.519805595117667  1.0000
  Cl  Cl1       1.0  0.17913787645354523  0.027115948375673295  0.2021665509688333  1.0000
  Cl  Cl2       1.0  0.17912854095808942  0.4728800125308794  0.29783272757052975  1.0000
  Cl  Cl3       1.0  0.820860464128444  0.9728875042943698  0.7978342497650602  1.0000
  Cl  Cl4       1.0  0.8208719522025236  0.5271206614629235  0.7021670395564641  1.0000
  O   O1        1.0  0.0973880989558467  0.8010452339821581  0.014427015197057403  1.0000
  O   O2        1.0  0.09738661983632112  0.6989532561627879  0.48557336258419775  1.0000
  O   O3        1.0  0.9026123942115446  0.1989582201452649  0.9855742536693414  1.0000
  O   O4        1.0  0.9026117207305829  0.30104603285060694  0.5144272921374835  1.0000
