data_image0
_chemical_formula_structural       H44Pb2C32S4N8O12
_chemical_formula_sum              "H44 Pb2 C32 S4 N8 O12"
_cell_length_a       8.501962260893988
_cell_length_b       10.790665592958835
_cell_length_c       11.90728574812798
_cell_angle_alpha    71.22460011623306
_cell_angle_beta     86.21025014887404
_cell_angle_gamma    84.1637798427437

_space_group_name_H-M_alt    "P 1"
_space_group_IT_number       1

loop_
  _space_group_symop_operation_xyz
  'x, y, z'

loop_
  _atom_site_type_symbol
  _atom_site_label
  _atom_site_symmetry_multiplicity
  _atom_site_fract_x
  _atom_site_fract_y
  _atom_site_fract_z
  _atom_site_occupancy
  H   H1        1.0  0.6033097346425648  0.5855287899806711  0.33626339797240945  1.0000
  H   H2        1.0  0.396695395130557  0.41447054295873903  0.6637342491239977  1.0000
  H   H3        1.0  0.6611242009566637  0.4228494900554551  0.3363626092015863  1.0000
  H   H4        1.0  0.33887222067778566  0.5771537483899749  0.6636267735965404  1.0000
  H   H5        1.0  0.09754478558572538  0.873165755528987  0.4893317605969898  1.0000
  H   H6        1.0  0.902463208454108  0.12683949845278158  0.5106640437341666  1.0000
  H   H7        1.0  0.8425951831936443  0.6468668336413897  0.40640678171448025  1.0000
  H   H8        1.0  0.1574066929838267  0.353140352981363  0.5935862408320602  1.0000
  H   H9        1.0  0.8502991160362682  0.8206223242464289  0.3704991038031905  1.0000
  H   H10       1.0  0.149713929587918  0.1793800057392971  0.6294998190623247  1.0000
  H   H11       1.0  0.8438825278428369  0.7199192884670254  0.5209742645199924  1.0000
  H   H12       1.0  0.15611358054696467  0.2800868487899351  0.47902353674697906  1.0000
  H   H13       1.0  0.3555680253574208  0.9496382064224989  0.4957292355267029  1.0000
  H   H14       1.0  0.6444341421955144  0.05035615714940891  0.5042758638199984  1.0000
  H   H15       1.0  0.5178837581800835  0.8951228943900134  0.41539430713167746  1.0000
  H   H16       1.0  0.48211172032933547  0.1048783441024383  0.5846007359132912  1.0000
  H   H17       1.0  0.4822941183188048  0.8077153938492287  0.5674927621548633  1.0000
  H   H18       1.0  0.5177237480911714  0.19228599430671517  0.4325053602398087  1.0000
  H   H19       1.0  0.8504878244033307  0.11900413771472527  0.263046563952102  1.0000
  H   H20       1.0  0.14952056484146675  0.8810080059552022  0.7369463975986078  1.0000
  H   H21       1.0  0.8510831582548234  0.2649100470373399  0.3032654006847793  1.0000
  H   H22       1.0  0.1489114377672323  0.735099028167518  0.6967316273105337  1.0000
  H   H23       1.0  0.32663467930274953  0.7854935886137752  0.0927860711769881  1.0000
  H   H24       1.0  0.6733484145829393  0.2145026082766677  0.9072168980733863  1.0000
  H   H25       1.0  0.8862059743978958  0.8324204924052977  0.15525921349531305  1.0000
  H   H26       1.0  0.1137759688252871  0.16757563415406904  0.8447555889802062  1.0000
  H   H27       1.0  0.03844618281850389  0.7180342549173275  0.12630495732960162  1.0000
  H   H28       1.0  0.9615406985281821  0.2819599343504251  0.8737118451762953  1.0000
  H   H29       1.0  0.9823315346426038  0.8633902995226277  0.013343322306667566  1.0000
  H   H30       1.0  0.017651807487467898  0.136603875793277  0.9866711349365289  1.0000
  H   H31       1.0  0.6221626943372696  0.0003180122372085991  0.1372111839413037  1.0000
  H   H32       1.0  0.377826560602621  0.9996861280858839  0.8627833228095767  1.0000
  H   H33       1.0  0.5973796444165701  0.8668360983741505  0.08266546159120491  1.0000
  H   H34       1.0  0.40260580313157845  0.1331601209536117  0.9173365481717608  1.0000
  H   H35       1.0  0.6018490527018869  0.8392706034206369  0.23714868722655788  1.0000
  H   H36       1.0  0.39814257334629116  0.1607335199315045  0.7628524290245409  1.0000
  H   H37       1.0  0.0765512329173745  0.4797224374839999  0.7869247416078622  1.0000
  H   H38       1.0  0.9234500288871033  0.5202798153446724  0.21307225070567876  1.0000
  H   H39       1.0  0.9497255687006216  0.4742229590766982  0.6935253810055926  1.0000
  H   H40       1.0  0.05028559891295711  0.5257646483433189  0.30647031318567747  1.0000
  H   H41       1.0  0.43196556010580167  0.7264591988423917  0.8417277451260007  1.0000
  H   H42       1.0  0.568039465898579  0.27354109890796247  0.1582729884595651  1.0000
  H   H43       1.0  0.5677809172441994  0.8244667892028161  0.7913370246682804  1.0000
  H   H44       1.0  0.4322250950162853  0.175524707024195  0.2086586374777895  1.0000
  Pb  Pb1       1.0  0.7524879818446876  0.548308820540015  0.9144938139340297  1.0000
  Pb  Pb2       1.0  0.24753997998030997  0.4516867371386297  0.08550718153485799  1.0000
  C   C1        1.0  0.6169579271678458  0.5588314357165203  0.1624043829764403  1.0000
  C   C2        1.0  0.3830519569988908  0.44117780941378737  0.8375817828582939  1.0000
  C   C3        1.0  0.5809776963280201  0.5102826154525888  0.29647556400126956  1.0000
  C   C4        1.0  0.4190285487302176  0.48972757177942583  0.7035130250571626  1.0000
  C   C5        1.0  0.3004290152207362  0.6030609283321055  0.38435652660784564  1.0000
  C   C6        1.0  0.6995690632571084  0.39693831540184016  0.6156482039439125  1.0000
  C   C7        1.0  0.06757665134190201  0.7081498375769752  0.4289455752963391  1.0000
  C   C8        1.0  0.9324262537370059  0.2918484511911005  0.5710608777804607  1.0000
  C   C9        1.0  0.15641622566479188  0.7935866085815562  0.4604688839251098  1.0000
  C   C10       1.0  0.8435893676438866  0.2064087556466276  0.5395374421803183  1.0000
  C   C11       1.0  0.32113910664968864  0.7776123560958793  0.44980493093621027  1.0000
  C   C12       1.0  0.6788677721050219  0.22238204359328512  0.5501999314329282  1.0000
  C   C13       1.0  0.890810714502919  0.7238953411389275  0.43184496952601154  1.0000
  C   C14       1.0  0.10919234529026765  0.27611184137705186  0.5681505167720146  1.0000
  C   C15       1.0  0.42433517550637107  0.8629848853808685  0.4837166311743672  1.0000
  C   C16       1.0  0.5756701811884637  0.13701247414967102  0.5162832529299947  1.0000
  C   C17       1.0  0.8772891784170724  0.29777483256442133  0.11650860907959527  1.0000
  C   C18       1.0  0.1227164580834526  0.7022304077374103  0.8834864727417227  1.0000
  C   C19       1.0  0.9059190041412533  0.21117977021020098  0.24450045217975006  1.0000
  C   C20       1.0  0.09408468165546681  0.7888323198276834  0.7554961103430247  1.0000
  C   C21       1.0  0.17245147263617608  0.0546528665310007  0.21800273807724577  1.0000
  C   C22       1.0  0.8275436281140996  0.945341442865022  0.7820027167357962  1.0000
  C   C23       1.0  0.1197999332159654  0.8933378176449054  0.14367750929360318  1.0000
  C   C24       1.0  0.8801868269161588  0.10665737584206882  0.8563348107138252  1.0000
  C   C25       1.0  0.28242618553920806  0.8638738454769523  0.12894404779827787  1.0000
  C   C26       1.0  0.7175591679323218  0.1361233167682698  0.8710652534469716  1.0000
  C   C27       1.0  0.3862886273284473  0.9377717273956421  0.16145594001158506  1.0000
  C   C28       1.0  0.6137009092947918  0.062219611770082416  0.8385464385463237  1.0000
  C   C29       1.0  1.7664666287871788e-05  0.8220984932671204  0.10925424533564855  1.0000
  C   C30       1.0  0.9999660746071793  0.1779025673582453  0.8907582101257319  1.0000
  C   C31       1.0  0.5619900090363145  0.9107365392634253  0.1526520829883892  1.0000
  C   C32       1.0  0.4379948692691044  0.08926461796519898  0.8473434932560835  1.0000
  S   S1        1.0  0.38122627837836376  0.46976226406974325  0.33842204152036  1.0000
  S   S2        1.0  0.6187778224933143  0.5302459667243511  0.6615621750458018  1.0000
  S   S3        1.0  0.11013110695819246  0.17750883300445253  0.2834233736990228  1.0000
  S   S4        1.0  0.8898715164373667  0.8225022569209771  0.7165752075707417  1.0000
  N   N1        1.0  0.1406460601111448  0.611305649197746  0.3916110912054335  1.0000
  N   N2        1.0  0.8593583553970914  0.3886897060011307  0.6083952941443866  1.0000
  N   N3        1.0  0.39366560671269457  0.6816522600930313  0.4099022063239842  1.0000
  N   N4        1.0  0.6063357311760738  0.3183391168214698  0.5901096717735186  1.0000
  N   N5        1.0  0.0646580874061584  0.9898477474065075  0.18903488112250952  1.0000
  N   N6        1.0  0.9353350800861333  0.0101533723172835  0.8109796233796159  1.0000
  N   N7        1.0  0.33059938256077703  0.0351897172469506  0.2055237251142756  1.0000
  N   N8        1.0  0.669388717839759  0.9648143615024551  0.7944809328644948  1.0000
  O   O1        1.0  0.7614246881479046  0.5777879934232857  0.13150808155005927  1.0000
  O   O2        1.0  0.2385835153678285  0.42221532655788957  0.868482390801418  1.0000
  O   O3        1.0  0.5098212474383101  0.57691325236015  0.08895562393373521  1.0000
  O   O4        1.0  0.490193175770102  0.42308717454778116  0.9110337027145762  1.0000
  O   O5        1.0  0.7374300341206349  0.30590653240673754  0.08060997603789842  1.0000
  O   O6        1.0  0.26257593888561803  0.6940957565391912  0.9193867792980795  1.0000
  O   O7        1.0  0.9860371877197591  0.36012293480888496  0.052591423113796144  1.0000
  O   O8        1.0  0.013980285909411779  0.639860854135222  0.9473924698975226  1.0000
  O   O9        1.0  0.5345978101764076  0.7373226311834243  0.7947592751865001  1.0000
  O   O10       1.0  0.46539928640792283  0.2626747001714946  0.2052342956395847  1.0000
  O   O11       1.0  0.976994422941793  0.5235885472327623  0.7463206305066592  1.0000
  O   O12       1.0  0.0230055887940352  0.4764038861734079  0.2536750503560086  1.0000
