data_image0
_chemical_formula_structural       Al4H44C66O24
_chemical_formula_sum              "Al4 H44 C66 O24"
_cell_length_a       6.653421182907046
_cell_length_b       19.597030194682592
_cell_length_c       22.425346201243862
_cell_angle_alpha    83.71886314194427
_cell_angle_beta     86.07557514145337
_cell_angle_gamma    87.3914026505967

_space_group_name_H-M_alt    "P 1"
_space_group_IT_number       1

loop_
  _space_group_symop_operation_xyz
  'x, y, z'

loop_
  _atom_site_type_symbol
  _atom_site_label
  _atom_site_symmetry_multiplicity
  _atom_site_fract_x
  _atom_site_fract_y
  _atom_site_fract_z
  _atom_site_occupancy
  Al  Al1       1.0  0.7552826075853573  0.2519304452447527  0.7496775795491359  1.0000
  Al  Al2       1.0  0.27364272102291654  0.7531933598160022  0.2530525674535582  1.0000
  Al  Al3       1.0  0.25593563426642857  0.2490846604934944  0.7485511198442153  1.0000
  Al  Al4       1.0  0.7747647436136659  0.7534206931790733  0.2507459740901581  1.0000
  H   H1        1.0  0.007460333181668949  0.8524847188123058  0.6115806094736911  1.0000
  H   H2        1.0  0.8163242245927264  0.1459871980288412  0.39584160401739144  1.0000
  H   H3        1.0  0.04243649870443276  0.8683776425174868  0.41464132107745405  1.0000
  H   H4        1.0  0.9155547935885692  0.13643902799516638  0.5928443517913422  1.0000
  H   H5        1.0  0.8866181139554641  0.9849998900989898  0.24950649536036454  1.0000
  H   H6        1.0  0.1598218257877733  0.015901780554813196  0.7440462403444954  1.0000
  H   H7        1.0  0.12636970085722504  0.9095186783869522  0.6940535134372966  1.0000
  H   H8        1.0  0.8403377063191612  0.0908368310490957  0.3024877409963906  1.0000
  H   H9        1.0  0.21316032780850944  0.6265511227020041  0.9110056239518656  1.0000
  H   H10       1.0  0.6523381291823966  0.35874249094393906  0.10887003550317331  1.0000
  H   H11       1.0  0.6294681897476547  0.5215006819783027  0.2514906406052262  1.0000
  H   H12       1.0  0.23325980190723078  0.46114571782079844  0.7708299195225693  1.0000
  H   H13       1.0  0.17152420063946747  0.5657061530135791  0.8249882698955915  1.0000
  H   H14       1.0  0.6622955606766752  0.4152489421639273  0.1988953380884055  1.0000
  H   H15       1.0  0.3436761564855643  0.6330870915598154  0.009931348565977816  1.0000
  H   H16       1.0  0.605812788269695  0.36128884710982584  0.0012796960119630014  1.0000
  H   H17       1.0  0.7641159349663909  0.7844877899041478  0.4580286359605026  1.0000
  H   H18       1.0  0.6912730910834168  0.8732262397139932  0.4477758720697906  1.0000
  H   H19       1.0  0.6048750592743987  0.7780726899945021  0.5637879763285198  1.0000
  H   H20       1.0  0.5282541537219885  0.8660952959261292  0.5513428167265887  1.0000
  H   H21       1.0  0.32793628786706813  0.841996916658232  0.4655970160166021  1.0000
  H   H22       1.0  0.24553545544383582  0.7904832720541605  0.531537862071005  1.0000
  H   H23       1.0  0.4045340569085594  0.7538051900234705  0.4757940818158701  1.0000
  H   H24       1.0  0.6441089803188333  0.21089635858016456  0.5594011398720369  1.0000
  H   H25       1.0  0.5856169672823411  0.12243361150785859  0.5636364104753682  1.0000
  H   H26       1.0  0.5302665878845474  0.22790266908138784  0.4536494138616264  1.0000
  H   H27       1.0  0.4579694243626875  0.1412655579984587  0.46103375433879995  1.0000
  H   H28       1.0  0.22000921587591188  0.16397767629734963  0.5499715108439744  1.0000
  H   H29       1.0  0.15592614795414758  0.2170612253908217  0.48481287893235253  1.0000
  H   H30       1.0  0.2847598603801416  0.2514458571841088  0.54106787446878  1.0000
  H   H31       1.0  0.73451387491329  0.6416567699500816  0.008651310572268802  1.0000
  H   H32       1.0  0.8302227378496951  0.6727713141667591  0.0726901571012775  1.0000
  H   H33       1.0  0.6423064019808747  0.7857214580471348  0.04975936445250542  1.0000
  H   H34       1.0  0.8058458971435059  0.7664281801551027  0.9873766969551953  1.0000
  H   H35       1.0  0.5421762162115439  0.7547219585217703  0.9864574371771154  1.0000
  H   H36       1.0  0.8898261541681832  0.4326845263873266  0.9111524165096158  1.0000
  H   H37       1.0  0.906536105210854  0.3836830968498929  0.8478084725520391  1.0000
  H   H38       1.0  0.9705318593240193  0.2758348525875717  0.9193489284800761  1.0000
  H   H39       1.0  0.15954030468826363  0.3373668596663819  0.9191385571879281  1.0000
  H   H40       1.0  0.9715248527183603  0.3278842741585206  0.9795919092210712  1.0000
  H   H41       1.0  0.533465464486369  0.20525740309199844  0.6864113541967569  1.0000
  H   H42       1.0  0.5050706000525195  0.7867724453333835  0.321874433358424  1.0000
  H   H43       1.0  0.9921846992668929  0.23864601967655116  0.8277991475361405  1.0000
  H   H44       1.0  0.05173511694311372  0.7135470651034409  0.1857290903871345  1.0000
  C   C1        1.0  0.46968609189436705  0.35199629216617717  0.799744618074783  1.0000
  C   C2        1.0  0.5554597002261017  0.65138724453611  0.2009738442242011  1.0000
  C   C3        1.0  0.5033289570276267  0.17065932935346947  0.8403340025490067  1.0000
  C   C4        1.0  0.5218088198050594  0.8363069642781367  0.16454172092224445  1.0000
  C   C5        1.0  0.034241052682020295  0.14648213585801528  0.6998892784389241  1.0000
  C   C6        1.0  0.9922202128989212  0.856626478464207  0.30016065648053564  1.0000
  C   C7        1.0  0.0073793375380048955  0.33120844621954143  0.6610427291427996  1.0000
  C   C8        1.0  0.020635751721549387  0.6716700801853434  0.34094301685201606  1.0000
  C   C9        1.0  0.016507605050065894  0.38246506861447205  0.6098404869421259  1.0000
  C   C10       1.0  0.009890990850905718  0.6187638533958547  0.3909679620864424  1.0000
  C   C11       1.0  0.01554174629327318  0.4275175722153363  0.5673258673055841  1.0000
  C   C12       1.0  0.009090618303851295  0.5730074494483262  0.43294732356173427  1.0000
  C   C13       1.0  0.013208314385117574  0.4770867114221105  0.5211022455477661  1.0000
  C   C14       1.0  0.010112177539539883  0.5229951258403388  0.47883318519061663  1.0000
  C   C15       1.0  0.0330482573887849  0.0818730614340453  0.6706778756758496  1.0000
  C   C16       1.0  0.9695619670720602  0.9210079669379635  0.33001057321848754  1.0000
  C   C17       1.0  0.08398947854203694  0.9598488363782705  0.6715942477730295  1.0000
  C   C18       1.0  0.8781476675347333  0.0412495912641688  0.3270638202070232  1.0000
  C   C19       1.0  0.1009869579519531  0.018368258057478194  0.6996359757790245  1.0000
  C   C20       1.0  0.9069434687141894  0.9832625483923749  0.29747559908782506  1.0000
  C   C21       1.0  0.9615535011953539  0.0862804783799334  0.613674490743314  1.0000
  C   C22       1.0  0.9913167579329992  0.9168559770276515  0.3912629880814578  1.0000
  C   C23       1.0  0.9592588634622387  0.028311974743729693  0.5813643155627801  1.0000
  C   C24       1.0  0.9378262771104461  0.9734883938537138  0.4240977813860951  1.0000
  C   C25       1.0  0.014104269737721588  0.9632647840012895  0.6129738985510045  1.0000
  C   C26       1.0  0.8917280313124036  0.0376941059526601  0.3901660825332058  1.0000
  C   C27       1.0  0.9156873978898472  0.03126574008109629  0.5184302401151228  1.0000
  C   C28       1.0  0.932529695668009  0.9697142801392785  0.48907111010831983  1.0000
  C   C29       1.0  0.9447911845569194  0.90501915420311  0.5267465593795465  1.0000
  C   C30       1.0  0.8658562503531542  0.09438787492104689  0.4818617990112913  1.0000
  C   C31       1.0  0.9912326432080361  0.9025721885504865  0.5855696750185686  1.0000
  C   C32       1.0  0.85466935942636  0.09675741964188941  0.4208296944874377  1.0000
  C   C33       1.0  0.43770638920161525  0.41251884594759514  0.8346213319353311  1.0000
  C   C34       1.0  0.5656515004887978  0.5871734034930681  0.17041676502557832  1.0000
  C   C35       1.0  0.26649074219219665  0.5226380339727399  0.8432114974616668  1.0000
  C   C36       1.0  0.6239803347193129  0.4648670555462999  0.17449050840023966  1.0000
  C   C37       1.0  0.30262993069857197  0.4657367945324324  0.8127577848503406  1.0000
  C   C38       1.0  0.6069777185703772  0.5233883609407073  0.2036286622604067  1.0000
  C   C39       1.0  0.5256094023073885  0.41545222053978376  0.8892084846666677  1.0000
  C   C40       1.0  0.5391855829108677  0.5916575703239885  0.1090936752570073  1.0000
  C   C41       1.0  0.46878302392126153  0.4695519222305504  0.9258217094883392  1.0000
  C   C42       1.0  0.5391695922432261  0.5314731650012802  0.0785505185890685  1.0000
  C   C43       1.0  0.34744216850725723  0.5256949536938437  0.8995827212589944  1.0000
  C   C44       1.0  0.5925707883372695  0.4677755222280737  0.11247168609332901  1.0000
  C   C45       1.0  0.5210851651996933  0.4698621945716538  0.9877239112777119  1.0000
  C   C46       1.0  0.4854316533449816  0.5307563893170198  0.016911857960501188  1.0000
  C   C47       1.0  0.3775614068396038  0.5876687080353022  0.9867370809399247  1.0000
  C   C48       1.0  0.5867748515709293  0.4084307941847384  0.022629639271045207  1.0000
  C   C49       1.0  0.30566990239344694  0.5840784332964687  0.931550739849733  1.0000
  C   C50       1.0  0.6134679419575872  0.4071972980777047  0.0826153919502843  1.0000
  C   C51       1.0  0.4970529276698484  0.12039492331707177  0.8922264231386379  1.0000
  C   C52       1.0  0.5266527975590946  0.8903093389570457  0.11537833827340901  1.0000
  C   C53       1.0  0.5007323774114738  0.07701027948485968  0.9359639999231605  1.0000
  C   C54       1.0  0.5212610875561763  0.9358219136279543  0.07331930171524452  1.0000
  C   C55       1.0  0.506583396460634  0.02915225952239099  0.9833938446625935  1.0000
  C   C56       1.0  0.5141078517862496  0.9847087251919716  0.026704761875777184  1.0000
  C   C57       1.0  0.7322575728499672  0.8306367620629019  0.4814888406868221  1.0000
  C   C58       1.0  0.5604546291061469  0.8190320056205989  0.5290557366219417  1.0000
  C   C59       1.0  0.37445408338396646  0.8001060765882356  0.4991502444574749  1.0000
  C   C60       1.0  0.629982267698395  0.16772547247860092  0.5326164826490896  1.0000
  C   C61       1.0  0.4749337262767879  0.18565200211916988  0.48619460256063013  1.0000
  C   C62       1.0  0.272919777087587  0.20596283039716207  0.5169792011163921  1.0000
  C   C63       1.0  0.703077278280787  0.6773472646553315  0.0432022737664113  1.0000
  C   C64       1.0  0.6703313156610095  0.750335881130681  0.015203743139302589  1.0000
  C   C65       1.0  0.8705115428549559  0.3815575119514775  0.8965986332802417  1.0000
  C   C66       1.0  0.9998429670083623  0.3274124793031915  0.9308216681294041  1.0000
  O   O1        1.0  0.33513410557745965  0.19746181417233538  0.823963237463289  1.0000
  O   O2        1.0  0.6892530974438174  0.8060433298756987  0.17726840720726503  1.0000
  O   O3        1.0  0.6434319345736839  0.3226798100620343  0.7947977634854411  1.0000
  O   O4        1.0  0.3846037905155625  0.6824427584358544  0.20670937025018787  1.0000
  O   O5        1.0  0.8330950802208433  0.3216588687542695  0.6867500525964942  1.0000
  O   O6        1.0  0.1969196269559674  0.6834606745105488  0.3174513515480371  1.0000
  O   O7        1.0  0.6785137763474367  0.18326820657870257  0.8161786404570464  1.0000
  O   O8        1.0  0.3479063928311915  0.8241595701051738  0.18953894796108978  1.0000
  O   O9        1.0  0.8681956151893004  0.18178915883665778  0.7016518061397647  1.0000
  O   O10       1.0  0.16097150311416894  0.8232172558641083  0.30029648022971855  1.0000
  O   O11       1.0  0.3126378465481777  0.33341386575703785  0.7771312675079756  1.0000
  O   O12       1.0  0.7188159762206823  0.6696322501920803  0.2199657133657098  1.0000
  O   O13       1.0  0.5158128131867273  0.24030659496639117  0.7139536495302323  1.0000
  O   O14       1.0  0.5167113228641398  0.7604867075003056  0.2875299972567049  1.0000
  O   O15       1.0  0.1991104025519874  0.16272951085666418  0.7195886387328158  1.0000
  O   O16       1.0  0.8339809544390987  0.8386284913342121  0.2780102019316644  1.0000
  O   O17       1.0  0.17224198565107673  0.3003561552373739  0.6754919148390854  1.0000
  O   O18       1.0  0.8549102785563177  0.7013983983212385  0.3256304857358572  1.0000
  O   O19       1.0  0.9978307303856864  0.25526115885726597  0.7853912001516292  1.0000
  O   O20       1.0  0.034574240102308806  0.7451977752393829  0.21622891196143706  1.0000
  O   O21       1.0  0.9221414303803781  0.8425754108033702  0.5056735571636395  1.0000
  O   O22       1.0  0.8319447147139483  0.15594942449030208  0.5061594435607191  1.0000
  O   O23       1.0  0.5215254309304099  0.6573487665547117  0.07959298869077712  1.0000
  O   O24       1.0  0.6600161956740391  0.36373029894016173  0.9084865921361995  1.0000
