data_image0
_chemical_formula_structural       Cd4H44C68N12O16
_chemical_formula_sum              "Cd4 H44 C68 N12 O16"
_cell_length_a       7.556227056
_cell_length_b       11.979085741175222
_cell_length_c       16.8
_cell_angle_alpha    98.95143740133683
_cell_angle_beta     90.0
_cell_angle_gamma    90.0

_space_group_name_H-M_alt    "P 1"
_space_group_IT_number       1

loop_
  _space_group_symop_operation_xyz
  'x, y, z'

loop_
  _atom_site_type_symbol
  _atom_site_label
  _atom_site_symmetry_multiplicity
  _atom_site_fract_x
  _atom_site_fract_y
  _atom_site_fract_z
  _atom_site_occupancy
  Cd  Cd1       1.0  0.735355086449907  0.7913041263428866  0.7772001219073914  1.0000
  Cd  Cd2       1.0  0.235355553349585  0.7086966285678288  0.7227993368478423  1.0000
  Cd  Cd3       1.0  0.2646466265743186  0.2086969403181556  0.222798984530904  1.0000
  Cd  Cd4       1.0  0.7646461596746406  0.2913035930123655  0.27720027106919076  1.0000
  H   H1        1.0  0.8326165893869374  0.0584669183288895  0.7536932886394752  1.0000
  H   H2        1.0  0.3326170562866153  0.4415336150016316  0.7463071574368172  1.0000
  H   H3        1.0  0.1673838002254939  0.9415333032513047  0.24630691451565667  1.0000
  H   H4        1.0  0.6673820099140216  0.5584666065785697  0.2536936409564063  1.0000
  H   H5        1.0  0.5108700375718271  0.9535697897405483  0.9319964956847996  1.0000
  H   H6        1.0  0.0108718278833067  0.5464309651701669  0.5680041535466174  1.0000
  H   H7        1.0  0.48913035204060423  0.0464312769204938  0.0680038012296862  1.0000
  H   H8        1.0  0.9891298851409192  0.4535692564100273  0.4319960496085145  1.0000
  H   H9        1.0  0.5566931709205107  0.18805077017010058  0.9686351354273837  1.0000
  H   H10       1.0  0.0566909909966071  0.3119497631604204  0.531366501125099  1.0000
  H   H11       1.0  0.44330854210371484  0.8119494514101007  0.03136566296583959  1.0000
  H   H12       1.0  0.9433067517922424  0.6880504584197737  0.4686348925062234  1.0000
  H   H13       1.0  0.8577931753457904  0.3075604132464207  0.9740372531271076  1.0000
  H   H14       1.0  0.3577896720100924  0.1924392750032595  0.5259630991898305  1.0000
  H   H15       1.0  0.1422072142666408  0.6924389632529326  0.02596285626867  1.0000
  H   H16       1.0  0.6422054239551684  0.8075609465769418  0.4740376992034001  1.0000
  H   H17       1.0  0.9465557277451921  0.5635083589056649  0.8250797949864859  1.0000
  H   H18       1.0  0.4465548712330829  0.9364907058433617  0.6749194762500395  1.0000
  H   H19       1.0  0.0534446618672391  0.4364901725128405  0.17491903017374708  1.0000
  H   H20       1.0  0.553444194967561  0.0635095157368326  0.3250801316670007  1.0000
  H   H21       1.0  0.8107167710286944  0.44039022061702576  0.7079017296000529  1.0000
  H   H22       1.0  0.3107172379283797  0.0596086225518064  0.7920979337194252  1.0000
  H   H23       1.0  0.1892836185837368  0.5596083108014795  0.2920970955601732  1.0000
  H   H24       1.0  0.689284475095846  0.9403915990283949  0.20790286467379804  1.0000
  H   H25       1.0  0.6927359330531999  0.24881884364258866  0.72475932603038  1.0000
  H   H26       1.0  0.1927363999528779  0.2511808446070916  0.7752416215246497  1.0000
  H   H27       1.0  0.3072644565592313  0.7511805328567647  0.2752407833653976  1.0000
  H   H28       1.0  0.8072626662477589  0.7488193769731099  0.2247603673447642  1.0000
  H   H29       1.0  0.3828431806721539  0.6961040788819305  0.5322825858322062  1.0000
  H   H30       1.0  0.8828427137724688  0.803895830947944  0.9677167791636734  1.0000
  H   H31       1.0  0.6171585323520716  0.3038952976174158  0.4677169283254727  1.0000
  H   H32       1.0  0.1171576758399624  0.1961035455514093  0.0322827349940127  1.0000
  H   H33       1.0  0.7125381437187956  0.4296230455584364  0.593446427364043  1.0000
  H   H34       1.0  0.21253861061848062  0.0703766426912438  0.9065539249528882  1.0000
  H   H35       1.0  0.2874622458936358  0.5703763309409169  0.40655427726982646  1.0000
  H   H36       1.0  0.787463102405745  0.9296235788889575  0.09344627820224358  1.0000
  H   H37       1.0  0.8130472991969884  0.049371313183648596  0.6218395138375072  1.0000
  H   H38       1.0  0.3130477660966662  0.45062922014687956  0.8781603370006934  1.0000
  H   H39       1.0  0.1869517670036487  0.9506280633157048  0.3781600003201789  1.0000
  H   H40       1.0  0.6869526235157652  0.5493726915950106  0.12183945843505482  1.0000
  H   H41       1.0  0.1840508483523777  0.8264197707357539  0.484965747269726  1.0000
  H   H42       1.0  0.6840503814526997  0.6735809841749614  0.015033711485507702  1.0000
  H   H43       1.0  0.8159468944364647  0.1735787606827515  0.5150330778905072  1.0000
  H   H44       1.0  0.3159486847479371  0.3264200824860808  0.9849653949527878  1.0000
  C   C1        1.0  0.74808630790303  0.0616503378756832  0.8060446944179063  1.0000
  C   C2        1.0  0.248086774802708  0.4383501954548379  0.693955751658379  1.0000
  C   C3        1.0  0.2519140817094083  0.938349883704511  0.1939555087372185  1.0000
  C   C4        1.0  0.7519122913979288  0.5616500261253634  0.3060450467348445  1.0000
  C   C5        1.0  0.5851782863630248  0.0111939408858035  0.9012580078534712  1.0000
  C   C6        1.0  0.0851774298509085  0.4888065924447176  0.5987424382228212  1.0000
  C   C7        1.0  0.4148234266612008  0.9888062806943907  0.0987427905397595  1.0000
  C   C8        1.0  0.914822959761523  0.5111936291354837  0.4012571696942118  1.0000
  C   C9        1.0  0.605955851520406  0.1262474726612908  0.9196460896137211  1.0000
  C   C10       1.0  0.1059536715964953  0.37375306066923036  0.5803543564625712  1.0000
  C   C11       1.0  0.3940458615038196  0.8737527489189033  0.08035411354141078  1.0000
  C   C12       1.0  0.8940440711923472  0.626246315830123  0.4196463481712982  1.0000
  C   C13       1.0  0.7704307926238698  0.2671959717191896  0.8499565503116101  1.0000
  C   C14       1.0  0.2704299361117535  0.2328037165304835  0.6500438020053281  1.0000
  C   C15       1.0  0.2295695969885614  0.7328034047801566  0.1500429638460687  1.0000
  C   C16       1.0  0.7295664832652946  0.7671965050497179  0.3499575916259943  1.0000
  C   C17       1.0  0.8459301120291799  0.3353804746959668  0.9155601206388083  1.0000
  C   C18       1.0  0.3459279321052762  0.1646200586345543  0.5844403254374838  1.0000
  C   C19       1.0  0.1540689541714571  0.6646197468842274  0.0844394872782246  1.0000
  C   C20       1.0  0.6540671638599846  0.835380162945647  0.4155604729557467  1.0000
  C   C21       1.0  0.909440643997506  0.44252827515734333  0.9053192979126976  1.0000
  C   C22       1.0  0.40944111089718405  0.0574714130923297  0.5946810544042337  1.0000
  C   C23       1.0  0.0905570987913435  0.55747110134201  0.0946802162449814  1.0000
  C   C24       1.0  0.590555308479864  0.9425288084878645  0.40531974398899  1.0000
  C   C25       1.0  0.897083948081935  0.4795571825855022  0.8304138611228851  1.0000
  C   C26       1.0  0.3970830915698187  0.0204425056641711  0.6695858959559544  1.0000
  C   C27       1.0  0.1029151181187089  0.5204421939138513  0.1695850577967022  1.0000
  C   C28       1.0  0.6029146512190238  0.9795577159160233  0.33041490243727617  1.0000
  C   C29       1.0  0.8213252399651055  0.4095380090921097  0.7652722154250567  1.0000
  C   C30       1.0  0.3213257068647835  0.0904608340767226  0.7347280431325274  1.0000
  C   C31       1.0  0.1786738262355385  0.5904605223263957  0.23472660973517628  1.0000
  C   C32       1.0  0.6786733593358534  0.9095385424226308  0.2652726615013421  1.0000
  C   C33       1.0  0.7566302544416317  0.3033874040289888  0.7745581980003493  1.0000
  C   C34       1.0  0.2566293979295153  0.19661228422069144  0.7254427495546807  1.0000
  C   C35       1.0  0.24337013517080666  0.6966128175512125  0.22544140991668368  1.0000
  C   C36       1.0  0.7433696682711215  0.8033870922786619  0.2745591455553793  1.0000
  C   C37       1.0  0.6129381721427194  0.6467091034346026  0.6444005657803658  1.0000
  C   C38       1.0  0.1129373156306031  0.8532908063952717  0.8555993944536057  1.0000
  C   C39       1.0  0.38706486429330067  0.3532911181455987  0.3555984468985755  1.0000
  C   C40       1.0  0.8870643973936225  0.1467077250232336  0.1444012164209099  1.0000
  C   C41       1.0  0.5541720714539623  0.5705749249397201  0.5701983345279301  1.0000
  C   C42       1.0  0.054171214941853  0.9294249848901543  0.9298022209441399  1.0000
  C   C43       1.0  0.4458296415702634  0.4294261417213221  0.4298025576246545  1.0000
  C   C44       1.0  0.9458304980823729  0.070574391609199  0.0701978884516379  1.0000
  C   C45       1.0  0.4349684009813046  0.610564995652183  0.5171464305202988  1.0000
  C   C46       1.0  0.9349679340816266  0.8894349141776914  0.982854720189863  1.0000
  C   C47       1.0  0.565033312042921  0.3894352259280183  0.4828543678729247  1.0000
  C   C48       1.0  0.0650324555308046  0.1105644623216548  0.0171459844440065  1.0000
  C   C49       1.0  0.6183601902605389  0.4596597540669833  0.5525455828084702  1.0000
  C   C50       1.0  0.1183593337484297  0.0403390891018489  0.9474540805110152  1.0000
  C   C51       1.0  0.3816388759400979  0.540338777351522  0.44745621854223566  1.0000
  C   C52       1.0  0.8816423792757959  0.9596602873975045  0.0525454336466638  1.0000
  C   C53       1.0  0.9999395126699326  0.8574655057743996  0.6256149466228819  1.0000
  C   C54       1.0  0.4999386561578234  0.6425352491363228  0.8743851073704434  1.0000
  C   C55       1.0  6.08769424986e-05  0.1425347158058017  0.37438525653224264  1.0000
  C   C56       1.0  0.5000617334546149  0.35746581752471945  0.12561399906785198  1.0000
  C   C57       1.0  0.998049680628867  0.9300900635159337  0.559964104795128  1.0000
  C   C58       1.0  0.4980514709403394  0.5699098463139336  0.9400346649626526  1.0000
  C   C59       1.0  0.0019467387481882004  0.0699076228217237  0.4400340313676523  1.0000
  C   C60       1.0  0.5019489186720918  0.4300920654279494  0.0599645352350038  1.0000
  C   C61       1.0  0.8968126486642733  0.029230501381484  0.568828756638183  1.0000
  C   C62       1.0  0.3968131155639512  0.4707691868681891  0.9311704052025647  1.0000
  C   C63       1.0  0.1031850941245693  0.9707671849561734  0.4311699747626888  1.0000
  C   C64       1.0  0.6031859506366857  0.529232724873701  0.0688287949950919  1.0000
  C   C65       1.0  0.1012793811419854  0.901688586444358  0.49040887370388475  1.0000
  C   C66       1.0  0.6012802376540947  0.5983121684663644  0.009589989813250085  1.0000
  C   C67       1.0  0.898718361646857  0.0983107900549953  0.5095906404537943  1.0000
  C   C68       1.0  0.3987201519583365  0.4016897432755258  0.9904086151463076  1.0000
  N   N1        1.0  0.7091144774091092  0.1571808119474198  0.8581619856392493  1.0000
  N   N2        1.0  0.2091136208969928  0.3428197213831012  0.6418384604370432  1.0000
  N   N3        1.0  0.2908859122033221  0.8428194096327815  0.1418382175158825  1.0000
  N   N4        1.0  0.7908841218918496  0.657180500197093  0.3581623379561806  1.0000
  N   N5        1.0  0.6747706179569306  0.9724700228608185  0.83086485224527  1.0000
  N   N6        1.0  0.1747710848566086  0.5275298869690559  0.669135703226793  1.0000
  N   N7        1.0  0.3252297716555006  0.0275301987193828  0.16913594614795363  1.0000
  N   N8        1.0  0.8252293047558226  0.4724703346111454  0.33086390469023996  1.0000
  N   N9        1.0  0.9885978735999501  0.5193714764820001  0.9674484075502362  1.0000
  N   N10       1.0  0.4885970170878338  0.9806284333478744  0.532551552683735  1.0000
  N   N11       1.0  0.0114011926006867  0.4806287450982012  0.03255120036679669  1.0000
  N   N12       1.0  0.5113994022892143  0.0193717882323199  0.4674486504713968  1.0000
  O   O1        1.0  0.5186569925645728  0.7349676568267044  0.6705586767939806  1.0000
  O   O2        1.0  0.0186574594642508  0.7650314079223222  0.829440594442545  1.0000
  O   O3        1.0  0.4813460438714472  0.265031719672649  0.3294408373637054  1.0000
  O   O4        1.0  0.9813455769717692  0.2349679685770312  0.1705589197151411  1.0000
  O   O5        1.0  0.7543381052153466  0.6250953157178998  0.6794561479289101  1.0000
  O   O6        1.0  0.2543385721150315  0.8749045941119746  0.8205432170669695  1.0000
  O   O7        1.0  0.2456649312206665  0.37490575094314244  0.3205423632712936  1.0000
  O   O8        1.0  0.7456644643209884  0.1250947823873787  0.179457487566907  1.0000
  O   O9        1.0  0.8980910644567572  0.885697121595939  0.6852745463693637  1.0000
  O   O10       1.0  0.3980915313564424  0.6143036333147833  0.81472491238587  1.0000
  O   O11       1.0  0.1019106485674683  0.1143039450651031  0.3147257505451293  1.0000
  O   O12       1.0  0.6019101816677832  0.3856965882654179  0.1852741002930713  1.0000
  O   O13       1.0  0.106624641375781  0.773431511531328  0.6159654195805331  1.0000
  O   O14       1.0  0.606624174476103  0.7265683982985465  0.8840339454153465  1.0000
  O   O15       1.0  0.8933757482366502  0.2265687100488663  0.3840347835745987  1.0000
  O   O16       1.0  0.3933748917245339  0.2734326683625028  0.11596337530866661  1.0000
