data_image0
_chemical_formula_structural       Zn2H20C24O10
_chemical_formula_sum              "Zn2 H20 C24 O10"
_cell_length_a       6.415554674313149
_cell_length_b       7.53140773221824
_cell_length_c       11.767742028986643
_cell_angle_alpha    102.81845511857132
_cell_angle_beta     90.00068901896265
_cell_angle_gamma    90.00099620381464

_space_group_name_H-M_alt    "P 1"
_space_group_IT_number       1

loop_
  _space_group_symop_operation_xyz
  'x, y, z'

loop_
  _atom_site_type_symbol
  _atom_site_label
  _atom_site_symmetry_multiplicity
  _atom_site_fract_x
  _atom_site_fract_y
  _atom_site_fract_z
  _atom_site_occupancy
  Zn  Zn1       1.0  0.1559158307712352  0.28242814686764467  0.463143741829704  1.0000
  Zn  Zn2       1.0  0.6559173638859761  0.7175753496480014  0.5368522797535106  1.0000
  H   H1        1.0  0.8071595276622858  0.08794450145242648  0.43647227764106583  1.0000
  H   H2        1.0  0.3071556972111296  0.9120479116422472  0.5635265014067983  1.0000
  H   H3        1.0  0.9582527900993013  0.027905646366932012  0.5360755701812039  1.0000
  H   H4        1.0  0.45825298603470077  0.9720920153958801  0.4639300014147166  1.0000
  H   H5        1.0  0.7844004213049371  0.47456825558079185  0.6876847516424647  1.0000
  H   H6        1.0  0.2843863933344934  0.5254233870566338  0.31230264634234567  1.0000
  H   H7        1.0  0.5055950976765615  0.18703819029314417  0.7621508401229633  1.0000
  H   H8        1.0  0.005603140030295599  0.812955997884025  0.2378386377644688  1.0000
  H   H9        1.0  0.44576062043295644  0.18201647242464966  0.1190400321208287  1.0000
  H   H10       1.0  0.9457449796163075  0.817990270427586  0.8809748275616015  1.0000
  H   H11       1.0  0.8803057879023085  0.15466436751266602  0.22567486855597707  1.0000
  H   H12       1.0  0.38026802967426926  0.8453197085815561  0.7743173106377269  1.0000
  H   H13       1.0  0.5656950854052808  0.14646807988123814  0.9503370968142449  1.0000
  H   H14       1.0  0.0656798232835811  0.8534982293132956  0.04965524694954838  1.0000
  H   H15       1.0  0.1476816697897974  0.2880510879375535  0.1288913845095649  1.0000
  H   H16       1.0  0.6476743842487165  0.7119711702260288  0.8711151899607401  1.0000
  H   H17       1.0  0.2857610663805231  0.38909014023668936  0.9548962912963505  1.0000
  H   H18       1.0  0.7857644056930653  0.6109396496655536  0.04511096109840909  1.0000
  H   H19       1.0  0.060894334929074  0.37835022010367675  0.7826638133876358  1.0000
  H   H20       1.0  0.5609069671924445  0.6216703755250209  0.2173440597612313  1.0000
  C   C1        1.0  0.48679853010939667  0.38618435722671773  0.6047911405955304  1.0000
  C   C2        1.0  0.9867763556833892  0.613830670024143  0.3952008294653311  1.0000
  C   C3        1.0  0.6544125706851746  0.38201929349274627  0.6888205697299341  1.0000
  C   C4        1.0  0.1544013990922011  0.6179705432937865  0.3111684446527434  1.0000
  C   C5        1.0  0.6442216672654055  0.27242163737226127  0.7650345809824374  1.0000
  C   C6        1.0  0.1442121480116825  0.7275705475118386  0.23496524614170508  1.0000
  C   C7        1.0  0.4696040974083572  0.13919273513997152  0.2940810169802859  1.0000
  C   C8        1.0  0.9695746988085006  0.8608121304677142  0.7059252713339532  1.0000
  C   C9        1.0  0.5604785429191138  0.1593895373772369  0.18251274571889547  1.0000
  C   C10       1.0  0.06045923326616529  0.8406119692786121  0.8174975129112595  1.0000
  C   C11       1.0  0.7654786502913706  0.1686881413610166  0.15952597083357029  1.0000
  C   C12       1.0  0.2654532930453469  0.831306911411076  0.8404700823804915  1.0000
  C   C13       1.0  0.7938845943488744  0.26673111434233493  0.8571972886142801  1.0000
  C   C14       1.0  0.29389044654309526  0.7332649278173023  0.14279897422013482  1.0000
  C   C15       1.0  0.7232228562339315  0.20165047412355364  0.9531002990713943  1.0000
  C   C16       1.0  0.22322691446151308  0.7983349254618589  0.04690063612184048  1.0000
  C   C17       1.0  0.8469573061007054  0.21242702095244684  0.05288051427261558  1.0000
  C   C18       1.0  0.34694573720194916  0.7875681381241578  0.9471192622785268  1.0000
  C   C19       1.0  0.05144784221904079  0.2790684119403366  0.0514844098779719  1.0000
  C   C20       1.0  0.5514400520995294  0.7209464154312782  0.9485186509034804  1.0000
  C   C21       1.0  0.127048797209369  0.3371764622124616  0.9543587835662493  1.0000
  C   C22       1.0  0.6270481585190381  0.6628423581841075  0.045645317970752254  1.0000
  C   C23       1.0  0.9997477801250979  0.33323848268811673  0.8580210563832295  1.0000
  C   C24       1.0  0.4997500405215049  0.6667742464510057  0.1419838257545578  1.0000
  O   O1        1.0  0.3309389436669931  0.27790557567207935  0.6003480862674664  1.0000
  O   O2        1.0  0.8309528375949212  0.7220808633704651  0.39964663658226124  1.0000
  O   O3        1.0  0.4937150414862756  0.49565568527870607  0.5353166013362554  1.0000
  O   O4        1.0  0.9937183506900878  0.5043309627209142  0.464683873610376  1.0000
  O   O5        1.0  0.5718472297944857  0.07891215609221552  0.36926599803681626  1.0000
  O   O6        1.0  0.07181188651421169  0.9210679593701842  0.6307408945163289  1.0000
  O   O7        1.0  0.276586163453814  0.1915992532185982  0.3075899974966276  1.0000
  O   O8        1.0  0.7765356001666814  0.8084152270252927  0.6924204210204721  1.0000
  O   O9        1.0  0.9255330743330035  0.1228163146510326  0.4912103278983722  1.0000
  O   O10       1.0  0.4255223981272422  0.8771842994488639  0.5087923159794769  1.0000
