data_image0
_chemical_formula_structural       Ca4H20C28O22
_chemical_formula_sum              "Ca4 H20 C28 O22"
_cell_length_a       6.343973237230361
_cell_length_b       9.132653967118499
_cell_length_c       14.320168225959002
_cell_angle_alpha    102.07765468345836
_cell_angle_beta     103.79849993623779
_cell_angle_gamma    93.37825309455543

_space_group_name_H-M_alt    "P 1"
_space_group_IT_number       1

loop_
  _space_group_symop_operation_xyz
  'x, y, z'

loop_
  _atom_site_type_symbol
  _atom_site_label
  _atom_site_symmetry_multiplicity
  _atom_site_fract_x
  _atom_site_fract_y
  _atom_site_fract_z
  _atom_site_occupancy
  Ca  Ca1       1.0  0.25779417277074396  0.08168385621906539  0.8553952385889472  1.0000
  Ca  Ca2       1.0  0.7422052325631228  0.9183149627761011  0.144604189427362  1.0000
  Ca  Ca3       1.0  0.24291177607880599  0.17620324225030254  0.15263594286194143  1.0000
  Ca  Ca4       1.0  0.7570876292550607  0.823795576744864  0.8473634851543675  1.0000
  H   H1        1.0  0.3426127804179728  0.7379033855161978  0.1620995907471325  1.0000
  H   H2        1.0  0.6573915052055739  0.2620954157699202  0.8379017382023617  1.0000
  H   H3        1.0  0.4523979424876429  0.5307358443828817  0.23317233964611003  1.0000
  H   H4        1.0  0.5476047143528788  0.46926296455373506  0.7668281229114623  1.0000
  H   H5        1.0  0.23046652775710896  0.3518037203066983  0.7773517088434188  1.0000
  H   H6        1.0  0.7695347031674798  0.6481962129652672  0.22264945761369148  1.0000
  H   H7        1.0  0.15871378367850042  0.6217762662212962  0.842731322183951  1.0000
  H   H8        1.0  0.8412856277147399  0.37822254753140777  0.15726880407494548  1.0000
  H   H9        1.0  0.2772732285490919  0.9205105391801571  0.5438320595540417  1.0000
  H   H10       1.0  0.7227298037287325  0.0794905293384289  0.4561680523735204  1.0000
  H   H11       1.0  0.11379115415635258  0.792455550255916  0.28252579236282566  1.0000
  H   H12       1.0  0.8862104400867921  0.20754665308292894  0.7174736269791067  1.0000
  H   H13       1.0  0.21293967123942537  0.4142659033681397  0.3528865149340702  1.0000
  H   H14       1.0  0.7870570669515331  0.5857362967099249  0.6471137964450191  1.0000
  H   H15       1.0  0.28056603705568506  0.3847315493635363  0.5202510296360854  1.0000
  H   H16       1.0  0.7194321391699531  0.6152695158942693  0.4797499743286337  1.0000
  H   H17       1.0  0.272388537972553  0.7665451012189735  0.7032493353261412  1.0000
  H   H18       1.0  0.7276096382530781  0.23345596403883914  0.2967516686385777  1.0000
  H   H19       1.0  0.3821352998309138  0.9281363767642927  0.7032253950252069  1.0000
  H   H20       1.0  0.6178657282265901  0.07186243982283  0.2967742011404438  1.0000
  C   C1        1.0  0.25196254095706655  0.8563172398285702  0.0018070977000804594  1.0000
  C   C2        1.0  0.7480368704361735  0.14368157392414102  0.9981930285588161  1.0000
  C   C3        1.0  0.2527620689675416  0.6966404031604441  0.002509161944601604  1.0000
  C   C4        1.0  0.7472420137889203  0.30335728144083157  0.9974905967134331  1.0000
  C   C5        1.0  0.30638889281900106  0.6527857968982501  0.09287435819540238  1.0000
  C   C6        1.0  0.6936139487104923  0.3472141444505823  0.9071255799258748  1.0000
  C   C7        1.0  0.30295132775995626  0.5010644054191785  0.09293781320108246  1.0000
  C   C8        1.0  0.6970497002975549  0.498934411167937  0.9070617829645681  1.0000
  C   C9        1.0  0.2490815339405117  0.388104662747864  0.0039297476419833085  1.0000
  C   C10       1.0  0.7509174959560524  0.6118918966653408  0.9960700310043361  1.0000
  C   C11       1.0  0.19997084743445007  0.43704984585056655  0.9142580768116841  1.0000
  C   C12       1.0  0.8000285639587829  0.5629489679021447  0.08574204944721227  1.0000
  C   C13       1.0  0.19795853600108876  0.5877850645106762  0.9128718417980224  1.0000
  C   C14       1.0  0.8020406785844401  0.4122126273147373  0.08712741241200211  1.0000
  C   C15       1.0  0.3341832333190382  0.20873194348985888  0.6526910164030255  1.0000
  C   C16       1.0  0.6658149307878531  0.7912691322528644  0.34730859107652623  1.0000
  C   C17       1.0  0.28604033196281614  0.1584721676555603  0.5443214780172949  1.0000
  C   C18       1.0  0.7139610836507374  0.8415288980286135  0.4556791640035128  1.0000
  C   C19       1.0  0.2560162696396802  0.0040875502699578015  0.49931067253553596  1.0000
  C   C20       1.0  0.7439851399144999  0.9959135206566784  0.5006892712426917  1.0000
  C   C21       1.0  0.1960196209151448  0.9549093702970948  0.39728523778869357  1.0000
  C   C22       1.0  0.8039819793873733  0.04509282779928721  0.6027148797958188  1.0000
  C   C23       1.0  0.16191028609259206  0.058985677908516713  0.3358704329557013  1.0000
  C   C24       1.0  0.8380878840736729  0.941015392591744  0.6641298727664375  1.0000
  C   C25       1.0  0.19816680039144072  0.21408092540968227  0.38320503235527764  1.0000
  C   C26       1.0  0.8018297470511869  0.7859201474986293  0.6167951052175267  1.0000
  C   C27       1.0  0.2581020456777736  0.2647601751424986  0.4850970738062158  1.0000
  C   C28       1.0  0.7418961244884911  0.7352408953577623  0.5149032319159231  1.0000
  O   O1        1.0  0.13541561909828911  0.8939378085716996  0.9257292887717765  1.0000
  O   O2        1.0  0.8645852242702502  0.10605987560320777  0.07427083183016948  1.0000
  O   O3        1.0  0.36894446853239765  0.9555714116720111  0.07671361301796514  1.0000
  O   O4        1.0  0.6310533140778247  0.044427409731199  0.9232856468490096  1.0000
  O   O5        1.0  0.3516166733455107  0.4498003178117783  0.17912888107695574  1.0000
  O   O6        1.0  0.6483843547120002  0.5501984987753444  0.8208707150886949  1.0000
  O   O7        1.0  0.24827166270574702  0.24343347248820635  0.00422577026435531  1.0000
  O   O8        1.0  0.751727748687493  0.7565653412645048  0.9957743559945411  1.0000
  O   O9        1.0  0.15666326949202158  0.32440361294452896  0.8291017738196514  1.0000
  O   O10       1.0  0.8433381461215319  0.6755974527396448  0.17089886820116362  1.0000
  O   O11       1.0  0.3457918518466911  0.3512971374654584  0.6919989999223262  1.0000
  O   O12       1.0  0.6542097545151933  0.6487050553884756  0.30800181590477377  1.0000
  O   O13       1.0  0.3533507624968734  0.1106763120718597  0.7057803536821153  1.0000
  O   O14       1.0  0.6466537017562572  0.8893236268689223  0.29421975258848926  1.0000
  O   O15       1.0  0.1681112747739633  0.8043206105534891  0.35443590839954436  1.0000
  O   O16       1.0  0.8318903194691811  0.1956815927853555  0.6455635109423807  1.0000
  O   O17       1.0  0.10014468852515529  0.011793178774233602  0.23814885091880453  1.0000
  O   O18       1.0  0.8998536723894405  0.9882090188957804  0.7618516286096193  1.0000
  O   O19       1.0  0.1652759523689298  0.30980440122029757  0.3173267623156163  1.0000
  O   O20       1.0  0.8347224024862995  0.6901978016921788  0.6826730189702273  1.0000
  O   O21       1.0  0.3921003957157226  0.8444860102804698  0.7394683601223873  1.0000
  O   O22       1.0  0.6078992064258557  0.1555139306419946  0.2605319399427941  1.0000
