data_image0
_chemical_formula_structural       Cu2Hg4H56C24N16Cl12O8
_chemical_formula_sum              "Cu2 Hg4 H56 C24 N16 Cl12 O8"
_cell_length_a       8.914840240001759
_cell_length_b       10.195625071871703
_cell_length_c       14.786362686244818
_cell_angle_alpha    97.87819889161237
_cell_angle_beta     89.99993498199221
_cell_angle_gamma    89.99997885128579

_space_group_name_H-M_alt    "P 1"
_space_group_IT_number       1

loop_
  _space_group_symop_operation_xyz
  'x, y, z'

loop_
  _atom_site_type_symbol
  _atom_site_label
  _atom_site_symmetry_multiplicity
  _atom_site_fract_x
  _atom_site_fract_y
  _atom_site_fract_z
  _atom_site_occupancy
  Cu  Cu1       1.0  0.622434353242035  0.5092316975191905  0.7444223515914743  1.0000
  Cu  Cu2       1.0  0.12243370667501813  0.4907641442154611  0.2555738910378409  1.0000
  Hg  Hg1       1.0  0.0658580344915976  0.3644699496912906  0.653117278855646  1.0000
  Hg  Hg2       1.0  0.5658548849086317  0.635528910966556  0.3468833382030497  1.0000
  Hg  Hg3       1.0  0.17734380427051377  0.640750344599773  0.8506505049806918  1.0000
  Hg  Hg4       1.0  0.6773433857258553  0.3592484678656616  0.1493507071629594  1.0000
  H   H1        1.0  0.6094973686327095  0.43171288513367023  0.8999218883187793  1.0000
  H   H2        1.0  0.1094981020045722  0.5682898973707677  0.10007567784378317  1.0000
  H   H3        1.0  0.442956014488594  0.41831993190270805  0.8509242731544333  1.0000
  H   H4        1.0  0.9429543800198061  0.5816836966430755  0.1490751700583957  1.0000
  H   H5        1.0  0.699742499409858  0.240953465090925  0.8326896407665173  1.0000
  H   H6        1.0  0.19974302564006763  0.759048288955071  0.1673084449595876  1.0000
  H   H7        1.0  0.5364684553891693  0.9165981870885884  0.9207837352078273  1.0000
  H   H8        1.0  0.03647055601794591  0.08340466630028227  0.07922065080715872  1.0000
  H   H9        1.0  0.5126051575549795  0.06410536286088589  0.8136709801918727  1.0000
  H   H10       1.0  0.012603329410133304  0.9358974831843054  0.18633004006717604  1.0000
  H   H11       1.0  0.3634728981927963  0.1794067976089407  0.8194210963224506  1.0000
  H   H12       1.0  0.8634744681681356  0.8205929146992331  0.1805793940766094  1.0000
  H   H13       1.0  0.5497729636363005  0.6824276063279411  0.06776035442023699  1.0000
  H   H14       1.0  0.04977112353751779  0.3175712655050089  0.9322409510478379  1.0000
  H   H15       1.0  0.5957291956537106  0.7218498324952303  0.9612329316628987  1.0000
  H   H16       1.0  0.09572680221499752  0.2781519847155706  0.0387679367263374  1.0000
  H   H17       1.0  0.595457843592996  0.17317640070760373  0.9734097621386724  1.0000
  H   H18       1.0  0.09545860450612761  0.8268244264773512  0.026591015386941273  1.0000
  H   H19       1.0  0.43124623901143627  0.2712241558416436  0.9775190147790269  1.0000
  H   H20       1.0  0.9312447789970619  0.7287794892232993  0.022482466928650472  1.0000
  H   H21       1.0  0.34406640142209005  0.9741027283951096  0.13782023991552708  1.0000
  H   H22       1.0  0.844065911533633  0.025896013863146498  0.862182203548727  1.0000
  H   H23       1.0  0.44808732574298926  0.8494336286300095  0.17551597602135158  1.0000
  H   H24       1.0  0.9480868533671511  0.15056605537179013  0.8244864824078135  1.0000
  H   H25       1.0  0.363727138707958  0.09983184670874572  0.057257472487570696  1.0000
  H   H26       1.0  0.8637272473898178  0.9001708617652965  0.9427480274092375  1.0000
  H   H27       1.0  0.2806064840743971  0.05324422702102539  0.9491029102754638  1.0000
  H   H28       1.0  0.7806048780226504  0.9467575189137202  0.05090052943886995  1.0000
  H   H29       1.0  0.7655351824055573  0.5705636862247088  0.6070705941909438  1.0000
  H   H30       1.0  0.26553766989056277  0.42943506674896514  0.3929271702211423  1.0000
  H   H31       1.0  0.5995871488571821  0.6435095931697032  0.6153090460766037  1.0000
  H   H32       1.0  0.09958743938074831  0.3564912210238587  0.38468969849972007  1.0000
  H   H33       1.0  0.8771197728070206  0.7100935883561942  0.7194924180324875  1.0000
  H   H34       1.0  0.3771180433523327  0.2899031323879696  0.2805050826299507  1.0000
  H   H35       1.0  0.7224027469455764  0.08558093977640614  0.5701497900246794  1.0000
  H   H36       1.0  0.2224049587745043  0.9144198135725002  0.4298481880628202  1.0000
  H   H37       1.0  0.6673874804398423  0.9153444772059982  0.6584066693716366  1.0000
  H   H38       1.0  0.16738572397573392  0.08465433620312979  0.3415938734131174  1.0000
  H   H39       1.0  0.85819176778368  0.9272910119244524  0.6869821475848711  1.0000
  H   H40       1.0  0.3581900699256195  0.07270770162088519  0.3130162256891111  1.0000
  H   H41       1.0  0.9192118705616537  0.02809807414940479  0.35624115294986325  1.0000
  H   H42       1.0  0.4192114138489274  0.9719006109989432  0.6437571756846694  1.0000
  H   H43       1.0  0.8308648089106754  0.1604888935574209  0.3189884128109384  1.0000
  H   H44       1.0  0.33086546052683025  0.8395108265457687  0.6810107481569857  1.0000
  H   H45       1.0  0.7181468285550708  0.7936556315422931  0.5088896115478576  1.0000
  H   H46       1.0  0.21814698370589983  0.20634611762899605  0.4911091373576681  1.0000
  H   H47       1.0  0.8995723809259533  0.7483244634794839  0.541376241933655  1.0000
  H   H48       1.0  0.3995703341670591  0.25167719757299517  0.45862169760868454  1.0000
  H   H49       1.0  0.6630870433021059  0.2822292818715083  0.5280398414060699  1.0000
  H   H50       1.0  0.1630870165507403  0.7177695187786808  0.471957997952444  1.0000
  H   H51       1.0  0.7118283346121573  0.3185702134920445  0.42093687873723695  1.0000
  H   H52       1.0  0.21183036619716233  0.6814295656963477  0.5790630459536956  1.0000
  H   H53       1.0  0.9901841538177577  0.9754148569802291  0.5521319722579036  1.0000
  H   H54       1.0  0.4901844673456779  0.024588760656577294  0.44786946633334423  1.0000
  H   H55       1.0  0.9237534669726061  0.9110608997208088  0.4422136428892713  1.0000
  H   H56       1.0  0.42374793861596777  0.08894273776209614  0.5577858143725222  1.0000
  C   C1        1.0  0.6009018143023681  0.23724005726256067  0.7037957115191772  1.0000
  C   C2        1.0  0.1008987323802089  0.7627587723272525  0.2962021733317854  1.0000
  C   C3        1.0  0.5862037481741852  0.2602720198791457  0.8077313888027859  1.0000
  C   C4        1.0  0.0862053576098774  0.7397288153021075  0.19227007213520148  1.0000
  C   C5        1.0  0.4779718456460316  0.16389836118003123  0.8440067835759564  1.0000
  C   C6        1.0  0.9779723333360621  0.8361022953757237  0.15599506740904445  1.0000
  C   C7        1.0  0.4792886510219533  0.17531152074977993  0.948077732388036  1.0000
  C   C8        1.0  0.9792893384792123  0.8246891351931248  0.05192411763358958  1.0000
  C   C9        1.0  0.388532105304961  0.06748857252480886  0.9852661818804549  1.0000
  C   C10       1.0  0.8885328164943688  0.9325141244056919  0.014739299870164785  1.0000
  C   C11       1.0  0.47683277534068935  0.8626568220883963  0.04184467131513965  1.0000
  C   C12       1.0  0.9768343017017003  0.13734482514858826  0.9581572715637492  1.0000
  C   C13       1.0  0.682972631636666  0.7751933699937292  0.7941243079622282  1.0000
  C   C14       1.0  0.18296994794958724  0.22479948787457715  0.2058743237699474  1.0000
  C   C15       1.0  0.7629483588101068  0.7406414103040003  0.7024557130721262  1.0000
  C   C16       1.0  0.26294548873242723  0.2593563426534898  0.2975399322446393  1.0000
  C   C17       1.0  0.7733882766188317  0.8608506100921075  0.6512409836259536  1.0000
  C   C18       1.0  0.2733864835320857  0.13914814660790847  0.3487581283285905  1.0000
  C   C19       1.0  0.8163885874160002  0.8286754990287475  0.5506230216535358  1.0000
  C   C20       1.0  0.3163888356392093  0.1713252105827577  0.4493748876797383  1.0000
  C   C21       1.0  0.8884437316054203  0.9449510469589478  0.5123372230949172  1.0000
  C   C22       1.0  0.3884428359100768  0.05505062665207557  0.4876620778739067  1.0000
  C   C23       1.0  0.786865023485035  0.14072243409950144  0.4501791887925251  1.0000
  C   C24       1.0  0.28686815583613173  0.8592772880293535  0.5498166211478689  1.0000
  N   N1        1.0  0.555285579877804  0.40158817585849227  0.839194927920218  1.0000
  N   N2        1.0  0.05528506496573019  0.5984106786489389  0.16080366694306747  1.0000
  N   N3        1.0  0.468232738155294  0.9414767599223378  0.9771544011077751  1.0000
  N   N4        1.0  0.9682349280299009  0.058525888847960096  0.022848992408960097  1.0000
  N   N5        1.0  0.5653290697075093  0.7544571455077499  0.027380221159901866  1.0000
  N   N6        1.0  0.06533391500450139  0.2455446858485643  0.9726206694657761  1.0000
  N   N7        1.0  0.4011914075012584  0.8869371491410473  0.12135347468719  1.0000
  N   N8        1.0  0.9011964582827899  0.11306058007043157  0.8786495125673994  1.0000
  N   N9        1.0  0.6912343023975681  0.621228129526848  0.6524469173492662  1.0000
  N   N10       1.0  0.19123465298719822  0.37877066171441237  0.3475515780609939  1.0000
  N   N11       1.0  0.7901965048368992  0.059604196907940776  0.5136612215873626  1.0000
  N   N12       1.0  0.2902008432622766  0.9403935544373637  0.48633643372218666  1.0000
  N   N13       1.0  0.8703909941779174  0.11864792125086851  0.3731882312324615  1.0000
  N   N14       1.0  0.3703917294841618  0.8813527742994861  0.626811668524084  1.0000
  N   N15       1.0  0.6974455512637405  0.24805608403163854  0.46281439637154165  1.0000
  N   N16       1.0  0.19745323988149013  0.7519417067861126  0.5371826501454535  1.0000
  Cl  Cl1       1.0  0.9754178923362745  0.4750095527151358  0.5295898943020774  1.0000
  Cl  Cl2       1.0  0.4754145853977859  0.5249881271959465  0.4704103320839224  1.0000
  Cl  Cl3       1.0  0.117755769886962  0.15191700399154934  0.6990633739724572  1.0000
  Cl  Cl4       1.0  0.6177559810246792  0.8480818177542344  0.3009344985478677  1.0000
  Cl  Cl5       1.0  0.9349502756105538  0.47844066192880047  0.8088772851586441  1.0000
  Cl  Cl6       1.0  0.43494861491534925  0.5215609974197262  0.191123335074586  1.0000
  Cl  Cl7       1.0  0.30793857647388023  0.5279239140455586  0.6929806820021369  1.0000
  Cl  Cl8       1.0  0.8079400580481677  0.47207681425783204  0.3070199400838334  1.0000
  Cl  Cl9       1.0  0.13492240359544638  0.8533846737104722  0.8034769609007952  1.0000
  Cl  Cl10      1.0  0.6349275958683194  0.14661515233648706  0.196525049977879  1.0000
  Cl  Cl11      1.0  0.2673543022338265  0.524669136119499  0.97176410753886  1.0000
  Cl  Cl12      1.0  0.7673506959069698  0.4753375667397746  0.028239797175679385  1.0000
  O   O1        1.0  0.6330740284693875  0.33798900636779894  0.6629850319153405  1.0000
  O   O2        1.0  0.1330765216404615  0.6620107984002385  0.3370129204591236  1.0000
  O   O3        1.0  0.5899773972932819  0.12199445162800517  0.661999748385007  1.0000
  O   O4        1.0  0.0899775531974996  0.8780033928935251  0.3379980533955091  1.0000
  O   O5        1.0  0.6130981218888253  0.680638493916774  0.8265530954920877  1.0000
  O   O6        1.0  0.11309097177567651  0.3193514149457924  0.1734432842465026  1.0000
  O   O7        1.0  0.6872811141727767  0.8911419982096329  0.835624458271603  1.0000
  O   O8        1.0  0.18728080102759748  0.10885186256430046  0.164376967940413  1.0000
