data_image0
_chemical_formula_structural       Zn4H28C63N16O5
_chemical_formula_sum              "Zn4 H28 C63 N16 O5"
_cell_length_a       18.51592966704093
_cell_length_b       20.52849130686204
_cell_length_c       19.50763209043514
_cell_angle_alpha    105.19732018249312
_cell_angle_beta     108.88813084358522
_cell_angle_gamma    111.09523840489683

_space_group_name_H-M_alt    "P 1"
_space_group_IT_number       1

loop_
  _space_group_symop_operation_xyz
  'x, y, z'

loop_
  _atom_site_type_symbol
  _atom_site_label
  _atom_site_symmetry_multiplicity
  _atom_site_fract_x
  _atom_site_fract_y
  _atom_site_fract_z
  _atom_site_occupancy
  Zn  Zn1       1.0  0.10682738901181926  0.4902108743212992  0.09224122980663203  1.0000
  Zn  Zn2       1.0  0.8818245320296542  0.4953850323477553  0.8873674317933509  1.0000
  Zn  Zn3       1.0  0.8834636598225388  0.3823203415176193  0.9804723077809002  1.0000
  Zn  Zn4       1.0  0.10561413254888669  0.6055464279218654  0.00928133967551055  1.0000
  H   H1        1.0  0.12888754642104772  0.34286020047399995  0.10848638257033373  1.0000
  H   H2        1.0  0.8833633684725015  0.3193626389242893  0.3877287563116241  1.0000
  H   H3        1.0  0.15855621331624548  0.4818319401444454  0.5019302635156393  1.0000
  H   H4        1.0  0.878088939834811  0.37054046412526986  0.7470964392252669  1.0000
  H   H5        1.0  0.5442918406262225  0.8730733605573703  0.47333029854600295  1.0000
  H   H6        1.0  0.08232665523119212  0.11499662058357528  0.15488066477861653  1.0000
  H   H7        1.0  0.8137190613620221  0.8663670319967023  0.9571971235835124  1.0000
  H   H8        1.0  0.8176643880968372  0.9899923125215649  0.9646746646316445  1.0000
  H   H9        1.0  0.7701769912118553  0.21946356110102985  0.8175159018801  1.0000
  H   H10       1.0  0.3294347119312988  0.679310738349045  0.04349018299906506  1.0000
  H   H11       1.0  0.7167334870955243  0.36345658114014845  0.7044658732920155  1.0000
  H   H12       1.0  0.8299244692654714  0.6096490815627292  0.990726903416196  1.0000
  H   H13       1.0  0.26670074074235134  0.4675355158429327  0.07458781241406597  1.0000
  H   H14       1.0  0.15813404657298957  0.5193044515139461  0.8893138117159511  1.0000
  H   H15       1.0  0.8635909843088784  0.22083713704775937  0.9174739285257875  1.0000
  H   H16       1.0  0.28339263452923547  0.6314292011238932  0.26774070842714087  1.0000
  H   H17       1.0  0.24935562265214636  0.5224295964223984  0.6305809194781206  1.0000
  H   H18       1.0  0.6485133999412583  0.9340502776585281  0.603036285152321  1.0000
  H   H19       1.0  0.6265971258780356  0.1741717924626727  0.49857315501341065  1.0000
  H   H20       1.0  0.49499264965999873  0.047062438280214294  0.32568077339627177  1.0000
  H   H21       1.0  0.15156822630657282  0.05834833957237612  0.21026968892952175  1.0000
  H   H22       1.0  0.8573300035961396  0.3210050825034472  0.13258802365004388  1.0000
  H   H23       1.0  0.1008643016174774  0.7653829393180871  0.06324935342352248  1.0000
  H   H24       1.0  0.8424655558052196  0.6318955602029988  0.8605205492629936  1.0000
  H   H25       1.0  0.11046617104389626  0.5283171086524874  0.25960432696167157  1.0000
  H   H26       1.0  0.20107693691581127  0.7651820120153019  0.15507063266314705  1.0000
  H   H27       1.0  0.8203316273121715  0.45314722857644796  0.10417549067295791  1.0000
  H   H28       1.0  0.8982990333859746  0.31375139888266546  0.5166345727768161  1.0000
  C   C1        1.0  0.06603558689539574  0.3252253104255445  0.060268571425638115  1.0000
  C   C2        1.0  0.04743568194341218  0.47811890807534496  0.21604980732716686  1.0000
  C   C3        1.0  0.2065618048811687  0.720193941685551  0.17197228803634357  1.0000
  C   C4        1.0  0.9442285391863406  0.4126323147752513  0.7933434285404745  1.0000
  C   C5        1.0  0.8289361502745082  0.4857802404969291  0.06909805738546031  1.0000
  C   C6        1.0  0.2777271593257781  0.7277206503009451  0.23506245774618872  1.0000
  C   C7        1.0  0.8057225496116802  0.5434696682955149  0.06400354879533418  1.0000
  C   C8        1.0  0.9885520244834753  0.42200089260586526  0.2285855865304  1.0000
  C   C9        1.0  0.9652688692383223  0.7264248960068613  0.9722987947058288  1.0000
  C   C10       1.0  0.4192072556035313  0.5885866685559192  0.08136173067536838  1.0000
  C   C11       1.0  0.49098317739093744  0.5933453083337739  0.09435791459677034  1.0000
  C   C12       1.0  0.02303805218844005  0.4308287463912136  0.7890399474761552  1.0000
  C   C13       1.0  0.5665006383345814  0.5944247235516756  0.10416963879318798  1.0000
  C   C14       1.0  0.6329678569593611  0.5907052803679064  0.10854338173986387  1.0000
  C   C15       1.0  0.6995172839534972  0.5809856985918813  0.10451169836209569  1.0000
  C   C16       1.0  0.7649050472333982  0.2661820941164164  0.804334463122949  1.0000
  C   C17       1.0  0.7544071583462539  0.5660522729848267  0.0928509693396507  1.0000
  C   C18       1.0  0.9469114246957704  0.35355255124240875  0.4409986040041504  1.0000
  C   C19       1.0  0.019526740843751514  0.4023404342620223  0.43543823098016793  1.0000
  C   C20       1.0  0.10102673992781055  0.44471410067610845  0.5047052495740019  1.0000
  C   C21       1.0  0.11053083568756253  0.4420506968442479  0.5778130049840514  1.0000
  C   C22       1.0  0.036240520509764444  0.3957697840459814  0.5838611945134105  1.0000
  C   C23       1.0  0.7259908735946681  0.26396534990578846  0.727869928685884  1.0000
  C   C24       1.0  0.9553246028774537  0.3503504943138934  0.5130704454136393  1.0000
  C   C25       1.0  0.009617682685842559  0.40902244261751963  0.36311918619774275  1.0000
  C   C26       1.0  0.038522750867933636  0.39874954988773215  0.6575234255820349  1.0000
  C   C27       1.0  0.03163305360174468  0.40777600182964585  0.7191183676007712  1.0000
  C   C28       1.0  0.29986343656018744  0.6262101005459897  0.04937806156194582  1.0000
  C   C29       1.0  0.9992703901585571  0.41557342884016174  0.3006639806444582  1.0000
  C   C30       1.0  0.613754390614112  0.996914409502878  0.5365519710286861  1.0000
  C   C31       1.0  0.6231714717560096  0.06770367939700608  0.5323794159257603  1.0000
  C   C32       1.0  0.5798835284628227  0.06469778316699144  0.4567402937245789  1.0000
  C   C33       1.0  0.5201304371865304  0.994089809460483  0.38865634364683643  1.0000
  C   C34       1.0  0.336011067788924  0.5787747413430041  0.06639544793264207  1.0000
  C   C35       1.0  0.5020048571850994  0.9236209086413821  0.3953983558936046  1.0000
  C   C36       1.0  0.5540791569082373  0.9271187395172831  0.4686922921208209  1.0000
  C   C37       1.0  0.6664143413235167  0.1391136428127879  0.5998920275135263  1.0000
  C   C38       1.0  0.42838786547571334  0.8533981152802353  0.3341210593204381  1.0000
  C   C39       1.0  0.3585109623946038  0.7945079170822422  0.28859044836121933  1.0000
  C   C40       1.0  0.7365210695712819  0.33895354763863833  0.7454327972037619  1.0000
  C   C41       1.0  0.6911730341565632  0.2004568721432846  0.6548220799227736  1.0000
  C   C42       1.0  0.02207706652921357  0.99118119976292  0.10747542056085278  1.0000
  C   C43       1.0  0.9478665122678649  0.9193167249385182  0.04699007459485931  1.0000
  C   C44       1.0  0.8728168751508676  0.9210234086281445  9.875091796373709e-05  1.0000
  C   C45       1.0  0.24906369115013405  0.6520775213605248  0.23003285775775598  1.0000
  C   C46       1.0  0.8750408847689145  0.9901987261213562  0.004176876390445895  1.0000
  C   C47       1.0  0.9529012268940346  0.06149309305890675  0.05581602759674806  1.0000
  C   C48       1.0  0.023402294191967623  0.06042985157093741  0.11072852495531292  1.0000
  C   C49       1.0  0.9500592771050478  0.8491927472365716  0.027062511450566165  1.0000
  C   C50       1.0  0.9623867737501897  0.13001331246784534  0.04751369613833844  1.0000
  C   C51       1.0  0.9751709317674654  0.18641838177696005  0.03303851272727344  1.0000
  C   C52       1.0  0.26758911010419684  0.5176076595383278  0.06516509346975843  1.0000
  C   C53       1.0  0.9525190204378974  0.789954015568618  0.9982236091844144  1.0000
  C   C54       1.0  0.08782380388161945  0.48909392245413125  0.8662451919577451  1.0000
  C   C55       1.0  0.9304309443885473  0.2631096888600125  0.9623435571676994  1.0000
  C   C56       1.0  0.8341117182880282  0.5661044779099385  0.010964582710904704  1.0000
  C   C57       1.0  0.9897018368825741  0.2523578225936305  0.018650466651735042  1.0000
  C   C58       1.0  0.1989235762596169  0.4904966323639854  0.6466740114992151  1.0000
  C   C59       1.0  0.6618742503585227  0.9939502648354973  0.6108848973766429  1.0000
  C   C60       1.0  0.101038973769022  0.9972319113111894  0.16623291490305567  1.0000
  C   C61       1.0  0.9177178239743855  0.37211107368261753  0.1509168925955748  1.0000
  C   C62       1.0  0.04060399742188996  0.7210660705458026  0.009959971688459654  1.0000
  C   C63       1.0  0.9084208292310904  0.6534612257430863  0.9061527485660649  1.0000
  N   N1        1.0  0.051614162399516814  0.3745485300521096  0.0316901235230134  1.0000
  N   N2        1.0  0.7967052857712035  0.3364623157367958  0.8618091067391733  1.0000
  N   N3        1.0  0.21795381548765386  0.5956149497233979  0.03969005805115693  1.0000
  N   N4        1.0  0.7793764108872311  0.3822749514649074  0.8253203949057523  1.0000
  N   N5        1.0  0.1978304319674749  0.5285301335145859  0.049254800035654994  1.0000
  N   N6        1.0  0.04929954500112648  0.5052783653953482  0.9112462415573434  1.0000
  N   N7        1.0  0.9672331122157377  0.33692100193028546  0.9712926597477891  1.0000
  N   N8        1.0  0.16844189075899144  0.6044503253787282  0.16861117885926546  1.0000
  N   N9        1.0  0.869065078539187  0.5237568198188143  0.9858525073832285  1.0000
  N   N10       1.0  0.934628713371012  0.39648025366283685  0.0977037980356172  1.0000
  N   N11       1.0  0.028959495260935116  0.6509438978520875  0.9702796060621639  1.0000
  N   N12       1.0  0.9461694782398594  0.6082982368188821  0.905198734620825  1.0000
  N   N13       1.0  0.014419281874189957  0.4620402151672849  0.13752732357926337  1.0000
  N   N14       1.0  0.14142046407330616  0.6458294038651786  0.13143855501818547  1.0000
  N   N15       1.0  0.8657634822098358  0.4743862787037544  0.02107401684921231  1.0000
  N   N16       1.0  0.9611202342316999  0.4583330289241585  0.8664495407601507  1.0000
  O   O1        1.0  0.21938326720302115  0.4976293287813219  0.7155780819636777  1.0000
  O   O2        1.0  0.7128528479766844  0.04933747003824607  0.67668401048131  1.0000
  O   O3        1.0  0.5884257608436342  0.12974248905132402  0.44576712397833523  1.0000
  O   O4        1.0  0.4758079407163437  0.9933459010625113  0.31763618829381113  1.0000
  O   O5        1.0  0.1138613409689741  0.9435012611803302  0.17019165809942666  1.0000
