data_image0
_chemical_formula_structural       Zr6H17C52S10N7O42
_chemical_formula_sum              "Zr6 H17 C52 S10 N7 O42"
_cell_length_a       16.45666409054729
_cell_length_b       16.448105801094947
_cell_length_c       16.524573722829864
_cell_angle_alpha    61.66453323778025
_cell_angle_beta     59.756790297645914
_cell_angle_gamma    60.21873108584651

_space_group_name_H-M_alt    "P 1"
_space_group_IT_number       1

loop_
  _space_group_symop_operation_xyz
  'x, y, z'

loop_
  _atom_site_type_symbol
  _atom_site_label
  _atom_site_symmetry_multiplicity
  _atom_site_fract_x
  _atom_site_fract_y
  _atom_site_fract_z
  _atom_site_occupancy
  Zr  Zr1       1.0  0.8877421452111917  0.9027669644023604  0.5978428934579584  1.0000
  Zr  Zr2       1.0  0.11075415206380508  0.10357351439424178  0.3973625452762591  1.0000
  Zr  Zr3       1.0  0.10209595992818496  0.8938631818206917  0.6066208143460372  1.0000
  Zr  Zr4       1.0  0.8966185053093909  0.1131059138676561  0.38897109082234493  1.0000
  Zr  Zr5       1.0  0.10788919813037277  0.8941820688789051  0.3887854252848301  1.0000
  Zr  Zr6       1.0  0.8900768247598734  0.11139787308424344  0.607818577783384  1.0000
  H   H1        1.0  0.07729716232012153  0.7531145605330137  0.5777282681648758  1.0000
  H   H2        1.0  0.09118940716531647  0.08369674026857872  0.2478082495194798  1.0000
  H   H3        1.0  0.0832534960644154  0.08209851514391889  0.5895732658318806  1.0000
  H   H4        1.0  0.7445306600024895  0.09467436122286442  0.5777622060333344  1.0000
  H   H5        1.0  0.1243128459656049  0.6131464150672841  0.3600305589093011  1.0000
  H   H6        1.0  0.6063291948948546  0.13038877487728226  0.8958510828657466  1.0000
  H   H7        1.0  0.8690391221556268  0.12691956386339595  0.11531729077349694  1.0000
  H   H8        1.0  0.6256162831515794  0.39783911867743893  0.36261960906562507  1.0000
  H   H9        1.0  0.100322495383402  0.6405882804963524  0.8694440738625248  1.0000
  H   H10       1.0  0.8433902355146261  0.6564730747461595  0.8492032880120348  1.0000
  H   H11       1.0  0.8892324317453272  0.37800034679364103  0.13525319240189052  1.0000
  H   H12       1.0  0.15343543094711976  0.35391976593101054  0.14901805091897566  1.0000
  H   H13       1.0  0.620065013362648  0.8768603690180047  0.6111019694059652  1.0000
  H   H14       1.0  0.2025779753946679  0.5575148364369512  0.9291116565111751  1.0000
  H   H15       1.0  0.2413803792276994  0.4654158127609094  0.023285683128229113  1.0000
  H   H16       1.0  0.822044971927795  0.4307848256747987  0.04103428413878881  1.0000
  H   H17       1.0  0.7740630345604411  0.5287249190768721  0.9572513709496705  1.0000
  C   C1        1.0  0.9946168795845838  0.7393098483075207  0.48445673219633545  1.0000
  C   C2        1.0  0.28180080783351963  0.9875065335775516  0.2354633441701423  1.0000
  C   C3        1.0  0.9957840146705906  0.2734801048746433  0.5053002853865749  1.0000
  C   C4        1.0  0.7241314969311572  0.008586917746306823  0.7680274235428044  1.0000
  C   C5        1.0  0.9812254453991187  0.7417143062804998  0.7653915813690234  1.0000
  C   C6        1.0  0.7305315717411391  0.007407604925724262  0.486600633923061  1.0000
  C   C7        1.0  0.012557889852693824  0.2713857143323112  0.23523077251550722  1.0000
  C   C8        1.0  0.27572542609134126  0.9927950033847284  0.4999090925484993  1.0000
  C   C9        1.0  0.2727519091841941  0.7312723016505416  0.4951966843254426  1.0000
  C   C10       1.0  0.9907771348543264  0.9959437309570944  0.7781949257696967  1.0000
  C   C11       1.0  0.733302509281053  0.28183243437737093  0.49513557261006  1.0000
  C   C12       1.0  0.9994085214699522  0.0007076202430198735  0.22649315984074286  1.0000
  C   C13       1.0  0.924817923377205  0.4245660443874897  0.5630866941735988  1.0000
  C   C14       1.0  0.061363761291275534  0.5936802921294272  0.42268270191689084  1.0000
  C   C15       1.0  0.9914689338772293  0.36705409426021873  0.5004387615867927  1.0000
  C   C16       1.0  0.9940300790931219  0.6494332629763164  0.4863982319350271  1.0000
  C   C17       1.0  0.036137020565987915  0.5109991767088929  0.4515584810253941  1.0000
  C   C18       1.0  0.9500134635671101  0.5062613124290181  0.5369446709709537  1.0000
  C   C19       1.0  0.42613702974414003  0.9229668382871098  0.08987879519572331  1.0000
  C   C20       1.0  0.5866589074562256  0.06754374978816467  0.9159166155804712  1.0000
  C   C21       1.0  0.37261469526770724  0.9859661411283938  0.1471667900059473  1.0000
  C   C22       1.0  0.6382843859971034  0.003986211312934588  0.8601199399301933  1.0000
  C   C23       1.0  0.5079335987128885  0.038470318639952206  0.999041038097303  1.0000
  C   C24       1.0  0.5024576755367675  0.9530186504113588  0.004192759933324922  1.0000
  C   C25       1.0  0.05407939599017888  0.9254002559567098  0.9210105410396923  1.0000
  C   C26       1.0  0.92941049372552  0.0638494869237364  0.0920315524771737  1.0000
  C   C27       1.0  0.9889032760893881  0.9920986141454619  0.870051165203215  1.0000
  C   C28       1.0  0.9965741444622865  0.9974263733844569  0.14035685105343998  1.0000
  C   C29       1.0  0.9513096444338203  0.03763916101447517  0.011482897159183523  1.0000
  C   C30       1.0  0.03477939817693699  0.9510822031339218  0.000846709515521159  1.0000
  C   C31       1.0  0.41162271961343333  0.5934920898759019  0.5621861089868503  1.0000
  C   C32       1.0  0.5978746897101885  0.42085384912007145  0.4263058028329711  1.0000
  C   C33       1.0  0.36398042767662975  0.6443683950579455  0.49412590754580077  1.0000
  C   C34       1.0  0.6443820157411934  0.37133431301537456  0.49499394701668825  1.0000
  C   C35       1.0  0.5127230733229807  0.5017355281813779  0.4514482605296665  1.0000
  C   C36       1.0  0.49649033682201343  0.5116748232953583  0.5393691665557299  1.0000
  C   C37       1.0  0.04288055777941905  0.6090103860558501  0.8990638756126473  1.0000
  C   C38       1.0  0.8959209581069699  0.618965991797147  0.8878716381217872  1.0000
  C   C39       1.0  0.8873037190101487  0.5368400187204188  0.9689692420180978  1.0000
  C   C40       1.0  0.9575894666778737  0.4883625064605185  0.0189068875323742  1.0000
  C   C41       1.0  0.9500080065827275  0.40609755330012826  0.10271413514935547  1.0000
  C   C42       1.0  0.09962928428448954  0.3929162371769337  0.11161619452352772  1.0000
  C   C43       1.0  0.10929036019285844  0.47490958350658014  0.029633471909669203  1.0000
  C   C44       1.0  0.036988769093035306  0.5252514708327994  0.9814458585503516  1.0000
  C   C45       1.0  0.9731893141531741  0.6550062898135209  0.8533649198144246  1.0000
  C   C46       1.0  0.020310141478589134  0.3592390631807376  0.1479636345616768  1.0000
  C   C47       1.0  0.4172454803973338  0.05859444741731322  0.4298784310299553  1.0000
  C   C48       1.0  0.5952081986328465  0.9364183455346408  0.5518164477818104  1.0000
  C   C49       1.0  0.3674130285445257  0.991880235256275  0.4957905919510565  1.0000
  C   C50       1.0  0.6432384773067739  0.004300568848620459  0.4857935003943794  1.0000
  C   C51       1.0  0.5125037279062922  0.9566519228277245  0.5311494937116734  1.0000
  C   C52       1.0  0.49993786807692686  0.04006612905946833  0.4491033379305095  1.0000
  S   S1        1.0  0.08587776124028319  0.4133759105363097  0.4078925002511441  1.0000
  S   S2        1.0  0.9003595732697532  0.6026706683056703  0.5817818302225746  1.0000
  S   S3        1.0  0.4169770597636314  0.08190455035396839  0.09691201472667647  1.0000
  S   S4        1.0  0.5925720099582321  0.9092325244677895  0.9067043265500346  1.0000
  S   S5        1.0  0.9013781505679647  0.08693099701701361  0.9213207388747833  1.0000
  S   S6        1.0  0.08672216593235055  0.902903387025674  0.08890625613754112  1.0000
  S   S7        1.0  0.4237780948510377  0.5921586176539577  0.39988786572948953  1.0000
  S   S8        1.0  0.5860343206404295  0.4223148845636617  0.5902306974951445  1.0000
  S   S9        1.0  0.4224066697353234  0.9041796339432224  0.5827500939409235  1.0000
  S   S10       1.0  0.5893080663820458  0.09315306726483635  0.39792212809960154  1.0000
  N   N1        1.0  0.8367068187755395  0.4061374890328152  0.6482031742330181  1.0000
  N   N2        1.0  0.41015273680477554  0.8335009900724019  0.11234850673598376  1.0000
  N   N3        1.0  0.13578118716173984  0.836270347907977  0.8977426082083753  1.0000
  N   N4        1.0  0.3790470147877016  0.6199156701351001  0.650161102166294  1.0000
  N   N5        1.0  0.38917742614928846  0.1415702752963881  0.34782350557038916  1.0000
  N   N6        1.0  0.1849024529253781  0.5090055660352135  0.996637077072194  1.0000
  N   N7        1.0  0.8097097452583527  0.5032098320434599  0.004236641566137736  1.0000
  O   O1        1.0  0.9229719750556526  0.7774067451062621  0.5521181643599816  1.0000
  O   O2        1.0  0.2488357525257215  0.05538378427878136  0.2725595324028589  1.0000
  O   O3        1.0  0.06812716973352904  0.2361197340592724  0.43764871351032053  1.0000
  O   O4        1.0  0.7565824644789959  0.9428936389360277  0.7281292691568738  1.0000
  O   O5        1.0  0.05268699337690911  0.773049867419303  0.7330881602533309  1.0000
  O   O6        1.0  0.7652846422197044  0.07610789925115574  0.4207370804575774  1.0000
  O   O7        1.0  0.941082831618715  0.2402650216047063  0.26680043342680904  1.0000
  O   O8        1.0  0.23970259004362784  0.9258492943777908  0.5673320235333537  1.0000
  O   O9        1.0  0.24043558279596758  0.7642929843378711  0.4257834010278572  1.0000
  O   O10       1.0  0.9223851542325789  0.06653132753153557  0.7450849865231532  1.0000
  O   O11       1.0  0.7649738987512293  0.24644743159496585  0.56569815003121  1.0000
  O   O12       1.0  0.06844630823509586  0.9315472451328332  0.2596517508973691  1.0000
  O   O13       1.0  0.06239101598605149  0.9296562910635798  0.7386015283440629  1.0000
  O   O14       1.0  0.7702717970002624  0.24593786271169904  0.42514462581089424  1.0000
  O   O15       1.0  0.9332555414513308  0.07298121881625963  0.2599788097197405  1.0000
  O   O16       1.0  0.23314061226226823  0.765267428379232  0.5671013687301852  1.0000
  O   O17       1.0  0.9156953917381613  0.7796623183075512  0.7252758819118483  1.0000
  O   O18       1.0  0.23939940986998204  0.06366728754991156  0.4348040216544646  1.0000
  O   O19       1.0  0.08029048994055905  0.23042911520980877  0.2732298095087842  1.0000
  O   O20       1.0  0.7630168389699818  0.9404378347160077  0.5555239435141245  1.0000
  O   O21       1.0  0.7584758614733003  0.07726390222811835  0.7352872502117409  1.0000
  O   O22       1.0  0.06645831215534041  0.7705879173162345  0.4175389625688766  1.0000
  O   O23       1.0  0.24242552393192066  0.9237538620525214  0.2650921752201044  1.0000
  O   O24       1.0  0.9288805795426143  0.23740352354148103  0.5765288317277992  1.0000
  O   O25       1.0  0.8169878405802963  0.06950525361038024  0.5545325525816907  1.0000
  O   O26       1.0  0.058874199037639074  0.05941495983686444  0.5643007059092467  1.0000
  O   O27       1.0  0.06579165682231998  0.059358534298723974  0.31889331501198376  1.0000
  O   O28       1.0  0.05593397975506031  0.8241913391232459  0.553056355830215  1.0000
  O   O29       1.0  0.13366038407965417  0.9541859151052209  0.4558836245308128  1.0000
  O   O30       1.0  0.9554837903660097  0.9621597830754001  0.44849937235925125  1.0000
  O   O31       1.0  0.95740938962377  0.13530347861426134  0.4573031811092534  1.0000
  O   O32       1.0  0.9503234207257875  0.9617965687939717  0.6298055109595638  1.0000
  O   O33       1.0  0.8358941734442665  0.39365884773110343  0.7288080151114897  1.0000
  O   O34       1.0  0.7692329451644682  0.4082125486224229  0.6335022624122502  1.0000
  O   O35       1.0  0.4005703054847701  0.8266313748780193  0.0461525077121508  1.0000
  O   O36       1.0  0.411449500203794  0.7705801191165095  0.19218942672094394  1.0000
  O   O37       1.0  0.221341561015315  0.8338114039384833  0.8733548067472372  1.0000
  O   O38       1.0  0.11298859273219351  0.7698907633956014  0.9083266964680662  1.0000
  O   O39       1.0  0.32863961044061807  0.5746061480558992  0.7283214217041589  1.0000
  O   O40       1.0  0.40783141919017407  0.6818272793735575  0.6396491513602244  1.0000
  O   O41       1.0  0.34395947216460593  0.22347929126242158  0.3606518568035142  1.0000
  O   O42       1.0  0.4169446873111085  0.12374288254389396  0.2714868110477012  1.0000
