data_image0
_chemical_formula_structural       Zn2H20C20N2O10F4
_chemical_formula_sum              "Zn2 H20 C20 N2 O10 F4"
_cell_length_a       9.926040780129764
_cell_length_b       11.39377018795454
_cell_length_c       11.39398911897709
_cell_angle_alpha    94.86090270736067
_cell_angle_beta     90.84173090997675
_cell_angle_gamma    90.81992422220624

_space_group_name_H-M_alt    "P 1"
_space_group_IT_number       1

loop_
  _space_group_symop_operation_xyz
  'x, y, z'

loop_
  _atom_site_type_symbol
  _atom_site_label
  _atom_site_symmetry_multiplicity
  _atom_site_fract_x
  _atom_site_fract_y
  _atom_site_fract_z
  _atom_site_occupancy
  Zn  Zn1       1.0  0.6387330507743272  0.5240409252237795  0.5233145442259755  1.0000
  Zn  Zn2       1.0  0.3613365750683997  0.47671593688018266  0.47590960455308123  1.0000
  H   H1        1.0  0.6752025461250142  0.11926217731292608  0.46939406804200007  1.0000
  H   H2        1.0  0.11788733190790171  0.5749699005998251  0.5649780806005894  1.0000
  H   H3        1.0  0.8822058289681322  0.43498839815865137  0.42508174343622324  1.0000
  H   H4        1.0  0.8447672765056423  0.708696277697271  0.808290729790578  1.0000
  H   H5        1.0  0.7105313878550207  0.6757266187411657  0.7045284921133472  1.0000
  H   H6        1.0  0.9527333109118531  0.8406400097978305  0.6700557366008226  1.0000
  H   H7        1.0  0.8195826519422055  0.8074134365509659  0.5660540501070415  1.0000
  H   H8        1.0  0.6525498013718122  0.8994674599507062  0.7073495997925792  1.0000
  H   H9        1.0  0.7829863086045917  0.0021788909615594095  0.6823123938888997  1.0000
  H   H10       1.0  0.7822039216210896  0.931299620672476  0.815143350968981  1.0000
  H   H11       1.0  0.30935255425280417  0.8779276231296786  0.5072479504716443  1.0000
  H   H12       1.0  0.15521328688227243  0.19170998583302887  0.2912835260252322  1.0000
  H   H13       1.0  0.2895147880483294  0.29537490888658613  0.3243220751619518  1.0000
  H   H14       1.0  0.0473159892876822  0.33009018858459155  0.15942595581579871  1.0000
  H   H15       1.0  0.18052257827599044  0.4339983473677903  0.19270231840485513  1.0000
  H   H16       1.0  0.34746635388136576  0.29262007433326426  0.1005960895447231  1.0000
  H   H17       1.0  0.21702434823436076  0.31780058699686714  0.9979053004819178  1.0000
  H   H18       1.0  0.2177252018504348  0.1849332611372745  0.0687083489663891  1.0000
  H   H19       1.0  0.3248517544981624  0.5306343182764832  0.880656508845803  1.0000
  H   H20       1.0  0.6906687401434226  0.49268437280605315  0.12214267576808172  1.0000
  C   C1        1.0  0.4524897795429083  0.5111921402684485  0.724508493232939  1.0000
  C   C2        1.0  0.9281390288875855  0.49129155217779186  0.4972062143390304  1.0000
  C   C3        1.0  0.0719466481034488  0.5028227001546239  0.508705248594076  1.0000
  C   C4        1.0  0.41330352783387525  0.8506483691500858  0.4958816720442627  1.0000
  C   C5        1.0  0.5711892826138368  0.14702364693561518  0.47863185971771577  1.0000
  C   C6        1.0  0.5867187876284845  0.5041032303166019  0.1493732850841027  1.0000
  C   C7        1.0  0.4288657641074067  0.5213637120964235  0.8529404762328101  1.0000
  C   C8        1.0  0.5602994826859345  0.502609438543729  0.2769654863879296  1.0000
  C   C9        1.0  0.5048992002832405  0.9355497010954817  0.47883061323951653  1.0000
  C   C10       1.0  0.4769663701815788  0.06109177142323569  0.48282588550356564  1.0000
  C   C11       1.0  0.4951429601142506  0.5211857115772246  0.06443152053307702  1.0000
  C   C12       1.0  0.5230836675815524  0.5171694807781363  0.9389080190415058  1.0000
  C   C13       1.0  0.8165992000411605  0.703851214088459  0.714355596139569  1.0000
  C   C14       1.0  0.5475996336975938  0.27546860841218995  0.48880886431194176  1.0000
  C   C15       1.0  0.8443812972139925  0.8190658514234597  0.6607561791688283  1.0000
  C   C16       1.0  0.7609318070269636  0.9185155484334756  0.7198450627763934  1.0000
  C   C17       1.0  0.18343966969118236  0.2856276365223635  0.2961845229664988  1.0000
  C   C18       1.0  0.15567261759817094  0.33931297684852507  0.18100534069544247  1.0000
  C   C19       1.0  0.23907299304440952  0.2802097741972601  0.0815452529723331  1.0000
  C   C20       1.0  0.43968655581435456  0.7230359886329151  0.4973813172652299  1.0000
  N   N1        1.0  0.15645237104077842  0.4359654183029843  0.44944082285010023  1.0000
  N   N2        1.0  0.8436175540425166  0.5505504131247816  0.5640570604090273  1.0000
  O   O1        1.0  0.5740152373336401  0.5081699442528275  0.6895184652274935  1.0000
  O   O2        1.0  0.661611140643025  0.529493565360063  0.34469707381024517  1.0000
  O   O3        1.0  0.6529529772516086  0.3411466694395384  0.4937136061450077  1.0000
  O   O4        1.0  0.33838321533993815  0.6553358294697346  0.47047276962002377  1.0000
  O   O5        1.0  0.3471316708681655  0.5063147450348778  0.6587865827377755  1.0000
  O   O6        1.0  0.9011722423258847  0.610239087094463  0.6624704575172871  1.0000
  O   O7        1.0  0.09891288213317041  0.33752109145751763  0.389808736199342  1.0000
  O   O8        1.0  0.44285124210185955  0.47339882548975226  0.3084811005363123  1.0000
  O   O9        1.0  0.42606473962523955  0.31049741981779266  0.49181118889288206  1.0000
  O   O10       1.0  0.5571407933069352  0.6914745220071264  0.5266250925534877  1.0000
  F   F1        1.0  0.34427181082311625  0.08389960831215149  0.49607449796401687  1.0000
  F   F2        1.0  0.6358634474202347  0.9111179130940807  0.4568124129513863  1.0000
  F   F3        1.0  0.6557784465876965  0.5038908158091073  0.9161393825035022  1.0000
  F   F4        1.0  0.3641819573341891  0.5432537753853524  0.08881358547483133  1.0000
