data_image0
_chemical_formula_structural       K4H56C52S4N4O28
_chemical_formula_sum              "K4 H56 C52 S4 N4 O28"
_cell_length_a       8.211118198374583
_cell_length_b       10.29980619596306
_cell_length_c       17.718080485268906
_cell_angle_alpha    92.20685005207162
_cell_angle_beta     94.79649441585765
_cell_angle_gamma    93.56842119168661

_space_group_name_H-M_alt    "P 1"
_space_group_IT_number       1

loop_
  _space_group_symop_operation_xyz
  'x, y, z'

loop_
  _atom_site_type_symbol
  _atom_site_label
  _atom_site_symmetry_multiplicity
  _atom_site_fract_x
  _atom_site_fract_y
  _atom_site_fract_z
  _atom_site_occupancy
  K   K1        1.0  0.5784228172388309  0.17539323558229108  0.9672403087622783  1.0000
  K   K2        1.0  0.42156623339811017  0.8245996390464259  0.0327595876854545  1.0000
  K   K3        1.0  0.10665734212443569  0.26716256575878816  0.9581313755534493  1.0000
  K   K4        1.0  0.8933478542100348  0.7328342531387476  0.041864683101884695  1.0000
  H   H1        1.0  0.27532283634256055  0.6087682189665529  0.6025489796204155  1.0000
  H   H2        1.0  0.7246793803612946  0.39123636979160636  0.397453922991012  1.0000
  H   H3        1.0  0.1836119204963538  0.5806986945309021  0.7312507384513649  1.0000
  H   H4        1.0  0.8163801987922453  0.4193019747194455  0.2687505781594552  1.0000
  H   H5        1.0  0.9256750278188336  0.2145972421608704  0.6543925592861369  1.0000
  H   H6        1.0  0.07432790835427737  0.7854015134271887  0.3456062839988333  1.0000
  H   H7        1.0  0.284012631788201  0.535741222124848  0.47316055420530734  1.0000
  H   H8        1.0  0.7159978360682686  0.4642594948092552  0.5268425587156145  1.0000
  H   H9        1.0  0.038681578431209084  0.22741059585028714  0.3069794382321618  1.0000
  H   H10       1.0  0.9613217779027536  0.7725930233157782  0.6930229189873884  1.0000
  H   H11       1.0  0.12329473954425649  0.23574992677389156  0.17594466981077517  1.0000
  H   H12       1.0  0.8767045740257658  0.7642488131263364  0.8240579923652829  1.0000
  H   H13       1.0  0.5147742478103439  0.5210642506594638  0.2534322698397276  1.0000
  H   H14       1.0  0.48522869472904523  0.47893450409735994  0.746567138060527  1.0000
  H   H15       1.0  0.4311635702775262  0.5122693276509621  0.3836909150918543  1.0000
  H   H16       1.0  0.5688386718887057  0.4877362414700811  0.6163074958458664  1.0000
  H   H17       1.0  0.7948912848102339  0.9159097765808751  0.5924931577095265  1.0000
  H   H18       1.0  0.2051105944916785  0.08409092148112758  0.4075068208311876  1.0000
  H   H19       1.0  0.7161668915410219  0.9534421034314418  0.7236960174608312  1.0000
  H   H20       1.0  0.2838337717381521  0.0465585905095836  0.2763044812232067  1.0000
  H   H21       1.0  0.4413118021467  0.27712553512482424  0.6499549399702075  1.0000
  H   H22       1.0  0.5586914459632197  0.7228771144842979  0.35004456892433916  1.0000
  H   H23       1.0  0.7914315876415472  0.9694402216567821  0.4648744998314527  1.0000
  H   H24       1.0  0.20857418163904376  0.030563408244908902  0.5351251232556038  1.0000
  H   H25       1.0  0.5656189585041815  0.24965260622771268  0.3009937907901374  1.0000
  H   H26       1.0  0.4343842259456708  0.7503490680058816  0.6990068220864032  1.0000
  H   H27       1.0  0.6443035981130479  0.2262005553118555  0.16910475363102503  1.0000
  H   H28       1.0  0.3556917872806054  0.7737952577360403  0.8308948763069848  1.0000
  H   H29       1.0  0.9652038874057992  0.9280939248050327  0.23698446244492288  1.0000
  H   H30       1.0  0.034795457992871086  0.0719057946268506  0.7630142726727127  1.0000
  H   H31       1.0  0.8935865984689497  0.955287745547295  0.3685307922802749  1.0000
  H   H32       1.0  0.1064166432746845  0.0447149048930484  0.6314681519989804  1.0000
  H   H33       1.0  0.40678955192742444  0.3733673089230294  0.8651157517127501  1.0000
  H   H34       1.0  0.5932034014207587  0.6266284958829258  0.1348849185118937  1.0000
  H   H35       1.0  0.8298650198046573  0.3094604262704976  0.8366462831329997  1.0000
  H   H36       1.0  0.170134268300238  0.6905383169546369  0.16335412058192128  1.0000
  H   H37       1.0  0.7926866564722346  0.002044185129932399  0.8743953041017604  1.0000
  H   H38       1.0  0.2073102377821172  0.997955528553689  0.12560277745665618  1.0000
  H   H39       1.0  0.24437991542829002  0.5504552953564926  0.8819935986237225  1.0000
  H   H40       1.0  0.7556231735300756  0.44954540765770906  0.1180052951583903  1.0000
  H   H41       1.0  0.39636441846914744  0.23792158220704354  0.8207142670113541  1.0000
  H   H42       1.0  0.6036187494005887  0.7620741971121631  0.17928548282225168  1.0000
  H   H43       1.0  0.7860933870221913  0.3994810971334175  0.9035510029212686  1.0000
  H   H44       1.0  0.21390489513901662  0.6005205656036452  0.0964483028368264  1.0000
  H   H45       1.0  0.6385921268966823  0.9031590966810228  0.8757580054585572  1.0000
  H   H46       1.0  0.36140697659153176  0.0968377032740975  0.12423952468279247  1.0000
  H   H47       1.0  0.0945297762582769  0.6339694414930221  0.8894151940443107  1.0000
  H   H48       1.0  0.9054707469682058  0.3660293033594114  0.11058638337315328  1.0000
  H   H49       1.0  0.0427528948726632  0.45161647987026043  0.8070845713362117  1.0000
  H   H50       1.0  0.9572438720615608  0.5483812830623123  0.1929157181861996  1.0000
  H   H51       1.0  0.07434503289274369  0.2526748423506503  0.46935943131551017  1.0000
  H   H52       1.0  0.9256632002647365  0.7473287916368534  0.530641974561341  1.0000
  H   H53       1.0  0.5834354984865017  0.0752227608540252  0.8008103068408801  1.0000
  H   H54       1.0  0.416563846912176  0.9247769585778586  0.1991884282767558  1.0000
  H   H55       1.0  0.5684081116850592  0.2258591508147133  0.4609515807979108  1.0000
  H   H56       1.0  0.43159254522783647  0.7741415439575475  0.5390483532708359  1.0000
  C   C1        1.0  0.2028631289369898  0.520951576000769  0.6148106780712438  1.0000
  C   C2        1.0  0.7971364265434957  0.47905008337622934  0.3851931890811073  1.0000
  C   C3        1.0  0.15198281606449632  0.5060991751497994  0.6864072063836844  1.0000
  C   C4        1.0  0.8480094560093717  0.4939034415266901  0.3135941607242855  1.0000
  C   C5        1.0  0.05062914611931999  0.39516730152426055  0.7005830277060099  1.0000
  C   C6        1.0  0.9493664684522329  0.6048314326628627  0.29941667797771737  1.0000
  C   C7        1.0  0.005623516507917293  0.2990245028002859  0.6434661141242585  1.0000
  C   C8        1.0  0.9943758352570455  0.7009752158003763  0.35653318560866143  1.0000
  C   C9        1.0  0.0633126016085583  0.3118073629727647  0.5718636647154014  1.0000
  C   C10       1.0  0.9366917161051163  0.6881933424999572  0.4281358381539704  1.0000
  C   C11       1.0  0.1615265079716934  0.4256822844858092  0.5558164578186648  1.0000
  C   C12       1.0  0.8384780516524444  0.5743213404636834  0.4441842500269927  1.0000
  C   C13       1.0  0.21313588253862287  0.4441531606351035  0.4817839025296919  1.0000
  C   C14       1.0  0.7868684606401786  0.555847541512719  0.518217858800824  1.0000
  C   C15       1.0  0.2269984093005633  0.36987849515245586  0.3544469928693417  1.0000
  C   C16       1.0  0.7730023303712485  0.6301231725016407  0.645553531063264  1.0000
  C   C17       1.0  0.1427532369769082  0.29168617762972093  0.29473045142365345  1.0000
  C   C18       1.0  0.857250030231853  0.708316469485723  0.7052707513167531  1.0000
  C   C19       1.0  0.19016982873081642  0.2962976396477543  0.221512006989002  1.0000
  C   C20       1.0  0.80982969491825  0.703704023885372  0.7784890370869206  1.0000
  C   C21       1.0  0.32430033344134296  0.37943160442467416  0.20658801375422797  1.0000
  C   C22       1.0  0.675703920612264  0.620568125672527  0.7934125930971445  1.0000
  C   C23       1.0  0.4089195979134105  0.45824811770015833  0.2649412947899137  1.0000
  C   C24       1.0  0.5910810653657705  0.5417525762408673  0.7350592038941173  1.0000
  C   C25       1.0  0.3613076570451596  0.45304191371431574  0.3383895122580042  1.0000
  C   C26       1.0  0.6386920002903267  0.546961699738638  0.6616098884692079  1.0000
  C   C27       1.0  0.7205652171088701  0.9964193526991352  0.6059042388560981  1.0000
  C   C28       1.0  0.2794391642648648  0.0035823281491147  0.3940941600312726  1.0000
  C   C29       1.0  0.6777137780964253  0.016786264115573598  0.6787852236259936  1.0000
  C   C30       1.0  0.3222880948392088  0.9832144347776504  0.32121419029943604  1.0000
  C   C31       1.0  0.5765374673265525  0.11882543250343501  0.6944937838691343  1.0000
  C   C32       1.0  0.42346700953866895  0.8811772195642074  0.3055063341126639  1.0000
  C   C33       1.0  0.5218300024583584  0.2002665204170953  0.637638094105121  1.0000
  C   C34       1.0  0.47817447440686317  0.7997361316505476  0.3623620238766846  1.0000
  C   C35       1.0  0.5700403254323804  0.18170413602292257  0.5643549700206592  1.0000
  C   C36       1.0  0.4299613819854215  0.8182946171066164  0.43564326417705956  1.0000
  C   C37       1.0  0.6699663587983054  0.07737088879621722  0.5472866104456102  1.0000
  C   C38       1.0  0.3300381180669163  0.9226317632714255  0.4527135075361882  1.0000
  C   C39       1.0  0.7178701275344324  0.05362538089742941  0.4727890677866923  1.0000
  C   C40       1.0  0.2821342665718731  0.9463762982883638  0.5272104603312541  1.0000
  C   C41       1.0  0.7238057754967926  0.1054946101474314  0.3444347960051459  1.0000
  C   C42       1.0  0.2761935890007336  0.894505106790774  0.6555656329583498  1.0000
  C   C43       1.0  0.6547404274816201  0.1805588522930321  0.2867095310325424  1.0000
  C   C44       1.0  0.34526015940492977  0.8194408679349222  0.7132909424029206  1.0000
  C   C45       1.0  0.6981987428999332  0.16695892501618909  0.21295408384749945  1.0000
  C   C46       1.0  0.3017944268935722  0.8330398025914362  0.787045532892293  1.0000
  C   C47       1.0  0.8104342126372188  0.07606637637723418  0.19506437760222178  1.0000
  C   C48       1.0  0.18956131917541083  0.9239313849280392  0.8049347382176463  1.0000
  C   C49       1.0  0.8784928549384148  0.9990674113882956  0.25125516550117766  1.0000
  C   C50       1.0  0.12150404568222228  0.0009323014640969997  0.7487434806725161  1.0000
  C   C51       1.0  0.8368063536734949  0.014535752777938202  0.3254239155195791  1.0000
  C   C52       1.0  0.16319559565476988  0.9854659198283641  0.6745755236544184  1.0000
  S   S1        1.0  0.38379549078786807  0.3840610850924406  0.11300702123779159  1.0000
  S   S2        1.0  0.6162071589135536  0.615933773149642  0.8869934148987467  1.0000
  S   S3        1.0  0.8602923306447252  0.057245220212379905  0.10005367690520468  1.0000
  S   S4        1.0  0.13970098556776378  0.9427554556526162  0.8999454257164459  1.0000
  N   N1        1.0  0.17411913488061967  0.3566747865503573  0.4266015972745691  1.0000
  N   N2        1.0  0.825889111009424  0.6433288457746967  0.573400937832858  1.0000
  N   N3        1.0  0.6751877789391331  0.1278845814134186  0.4172242322039707  1.0000
  N   N4        1.0  0.3248191427041291  0.872118077233722  0.5827759747217625  1.0000
  O   O1        1.0  0.9935539548610207  0.380444720802565  0.7694191647788529  1.0000
  O   O2        1.0  0.006441602416749988  0.6195530371778091  0.2305822095021597  1.0000
  O   O3        1.0  0.02565400867296569  0.2171395991681137  0.5177257271141185  1.0000
  O   O4        1.0  0.9743528238451021  0.7828620874284055  0.48227332533247846  1.0000
  O   O5        1.0  0.3956175054710798  0.24843620906263908  0.0846465921088893  1.0000
  O   O6        1.0  0.6043778098962207  0.7515586294409644  0.9153535771958374  1.0000
  O   O7        1.0  0.2555108136491384  0.4464926757050165  0.0669060157435055  1.0000
  O   O8        1.0  0.7444984636469698  0.5535090174709936  0.9330931256470263  1.0000
  O   O9        1.0  0.5437000892141767  0.4588285799849245  0.11786898032468678  1.0000
  O   O10       1.0  0.45630569290589307  0.5411594721348862  0.8821314124877515  1.0000
  O   O11       1.0  0.5295816677171032  0.13824108376162056  0.7652391373478266  1.0000
  O   O12       1.0  0.4704178368331212  0.8617605822651911  0.23476021288223584  1.0000
  O   O13       1.0  0.5214040873491328  0.2616923973958336  0.5097243093699716  1.0000
  O   O14       1.0  0.47859763916751763  0.7383063532400199  0.4902756186735999  1.0000
  O   O15       1.0  0.0027382895565821914  0.9767155228604238  0.10180488510074069  1.0000
  O   O16       1.0  0.9972575223614442  0.023286136622040498  0.8981920732522821  1.0000
  O   O17       1.0  0.7161526866814611  0.9914378498371049  0.056325794230595194  1.0000
  O   O18       1.0  0.2838417755274207  0.008561855604568801  0.9436733276144477  1.0000
  O   O19       1.0  0.8967824882547148  0.18997144519426  0.0738144842791186  1.0000
  O   O20       1.0  0.10320709713064251  0.8100282454259756  0.9261855889086236  1.0000
  O   O21       1.0  0.35694544955639174  0.2838230713755365  0.8646414958739682  1.0000
  O   O22       1.0  0.6430390043624284  0.7161736866089397  0.13535719444961097  1.0000
  O   O23       1.0  0.8025204901674667  0.30744670290419407  0.8893175479723253  1.0000
  O   O24       1.0  0.19747283877758556  0.6925539712983522  0.11068268387989377  1.0000
  O   O25       1.0  0.6715474867101748  0.9935453095980618  0.8642542976173642  1.0000
  O   O26       1.0  0.3284516868043852  0.006452464901357799  0.1357426931572689  1.0000
  O   O27       1.0  0.12357961500878639  0.5439935778291768  0.8797971177713108  1.0000
  O   O28       1.0  0.8764246390448207  0.45600615226801716  0.12020348908006177  1.0000
