data_image0
_chemical_formula_structural       Na4Zn4H8C12O28
_chemical_formula_sum              "Na4 Zn4 H8 C12 O28"
_cell_length_a       5.955353424016612
_cell_length_b       7.0422499414565145
_cell_length_c       15.506053471856795
_cell_angle_alpha    89.99538774852246
_cell_angle_beta     89.99843548163847
_cell_angle_gamma    100.2516933827713

_space_group_name_H-M_alt    "P 1"
_space_group_IT_number       1

loop_
  _space_group_symop_operation_xyz
  'x, y, z'

loop_
  _atom_site_type_symbol
  _atom_site_label
  _atom_site_symmetry_multiplicity
  _atom_site_fract_x
  _atom_site_fract_y
  _atom_site_fract_z
  _atom_site_occupancy
  Na  Na1       1.0  0.027549777886775886  0.6897854511101115  0.8170410691866293  1.0000
  Na  Na2       1.0  0.9724104696541783  0.810266131629049  0.3170573193040624  1.0000
  Na  Na3       1.0  0.9724743654473187  0.3102305131713549  0.18294591940603058  1.0000
  Na  Na4       1.0  0.027577326293872786  0.18968924647003144  0.6829670753407341  1.0000
  Zn  Zn1       1.0  0.22707403914936458  0.2909935432284739  0.9009144928991119  1.0000
  Zn  Zn2       1.0  0.7729363975830311  0.2090542932428718  0.4009153511263647  1.0000
  Zn  Zn3       1.0  0.7729365405617585  0.7090772811868858  0.0990937767782469  1.0000
  Zn  Zn4       1.0  0.2270516998315486  0.7908866537894781  0.5990793779465873  1.0000
  H   H1        1.0  0.33110513379010337  0.6374197988331004  0.9747845534615749  1.0000
  H   H2        1.0  0.6688380184908027  0.8625853256326296  0.4747732153597467  1.0000
  H   H3        1.0  0.6689400889203441  0.3626481021306559  0.0252224262595391  1.0000
  H   H4        1.0  0.33116000729718553  0.1373787040730505  0.5252273174221925  1.0000
  H   H5        1.0  0.4519050060165029  0.6432731449131879  0.879780884515682  1.0000
  H   H6        1.0  0.5480460227139687  0.8568182395268024  0.3797730233337191  1.0000
  H   H7        1.0  0.5481380823137626  0.35680053195815714  0.1202241603835219  1.0000
  H   H8        1.0  0.4519190384747418  0.1431487111569538  0.6202358933989345  1.0000
  C   C1        1.0  0.7011683248103395  0.2869810402204465  0.8497190457555276  1.0000
  C   C2        1.0  0.29883817466157575  0.21301611243045926  0.3497062767177539  1.0000
  C   C3        1.0  0.29883398096706065  0.71300319056661  0.15029631955101047  1.0000
  C   C4        1.0  0.7011424355787952  0.7868974209336272  0.6502652361573453  1.0000
  C   C5        1.0  0.5487825198775766  0.2491040671162921  0.7676984157023767  1.0000
  C   C6        1.0  0.45126002686428274  0.25089452600667533  0.267680651500136  1.0000
  C   C7        1.0  0.451212177060647  0.7509393495590544  0.2323175934755923  1.0000
  C   C8        1.0  0.5487847294754713  0.7491473969950276  0.732305046686541  1.0000
  C   C9        1.0  0.005552789300153903  0.07261756388782462  0.0374891640027641  1.0000
  C   C10       1.0  0.9943822055582885  0.427370952189861  0.5375142177796446  1.0000
  C   C11       1.0  0.9944261828724378  0.9274071089320728  0.9624946001325867  1.0000
  C   C12       1.0  0.005594139317757707  0.5725700054677462  0.462499858640534  1.0000
  O   O1        1.0  0.11393582700511475  0.24279421505863044  0.0254540320569774  1.0000
  O   O2        1.0  0.8861368985648708  0.2571589643032155  0.5254542437191603  1.0000
  O   O3        1.0  0.8860805336346615  0.7572246436635054  0.9745387607105371  1.0000
  O   O4        1.0  0.11385821346222973  0.7427675409555051  0.4745475795823282  1.0000
  O   O5        1.0  0.9047400003380942  0.0127059677000148  0.10666538514527697  1.0000
  O   O6        1.0  0.09523556140442216  0.48723444519414727  0.606682032160613  1.0000
  O   O7        1.0  0.09522660911664352  0.987315832109182  0.8933125749257442  1.0000
  O   O8        1.0  0.9046812641985084  0.5127109052394871  0.3933384936013553  1.0000
  O   O9        1.0  0.3120853327446794  0.5882705182428509  0.914553594398498  1.0000
  O   O10       1.0  0.6878564244051544  0.9117881492442376  0.41454992600112206  1.0000
  O   O11       1.0  0.687954859698891  0.41181326537068225  0.08545016051340329  1.0000
  O   O12       1.0  0.31213244018285735  0.08816434349558479  0.5854486723134897  1.0000
  O   O13       1.0  0.6391458200371716  0.2049415474751086  0.698880439336662  1.0000
  O   O14       1.0  0.3608811123345745  0.2950011322618735  0.1988549657371053  1.0000
  O   O15       1.0  0.3608282642797036  0.7950759111677073  0.3011297662435979  1.0000
  O   O16       1.0  0.6391453215004006  0.7050177166205387  0.8011287982431909  1.0000
  O   O17       1.0  0.9142844362812992  0.3289321008724145  0.8365783672517891  1.0000
  O   O18       1.0  0.08575248703498768  0.1710776707334603  0.33658108381047197  1.0000
  O   O19       1.0  0.08572948361344149  0.671091089657402  0.16342345418205176  1.0000
  O   O20       1.0  0.9142504264340371  0.828893572836712  0.6633962320736728  1.0000
  O   O21       1.0  0.5977904015503553  0.2744228623620089  0.9216066077258913  1.0000
  O   O22       1.0  0.4022347376481221  0.2256296056112674  0.4215948205814754  1.0000
  O   O23       1.0  0.4022493108479068  0.7256031860165919  0.07841004643054818  1.0000
  O   O24       1.0  0.597715648003522  0.774268081917796  0.578387011299931  1.0000
  O   O25       1.0  0.34044414625810754  0.2657012455246671  0.7762965474837173  1.0000
  O   O26       1.0  0.6596177994302722  0.23438370350930166  0.2762841870978647  1.0000
  O   O27       1.0  0.6595719308941383  0.7343796756409019  0.22372139562050813  1.0000
  O   O28       1.0  0.3404067991852315  0.7656264860877329  0.7237105405107371  1.0000
