data_image0
_chemical_formula_structural       Zn6H32C64N8O24
_chemical_formula_sum              "Zn6 H32 C64 N8 O24"
_cell_length_a       21.845339101889355
_cell_length_b       21.845367341528235
_cell_length_c       24.70737796408612
_cell_angle_alpha    116.2490251166924
_cell_angle_beta     116.2472366141058
_cell_angle_gamma    89.9954233037445

_space_group_name_H-M_alt    "P 1"
_space_group_IT_number       1

loop_
  _space_group_symop_operation_xyz
  'x, y, z'

loop_
  _atom_site_type_symbol
  _atom_site_label
  _atom_site_symmetry_multiplicity
  _atom_site_fract_x
  _atom_site_fract_y
  _atom_site_fract_z
  _atom_site_occupancy
  Zn  Zn1       1.0  0.9999797168931152  0.5583213900122957  4.216685482612384e-06  1.0000
  Zn  Zn2       1.0  0.4416808885424929  2.0624618507258798e-05  0.9999968114681079  1.0000
  Zn  Zn3       1.0  4.090248368980741e-05  0.4416775967042599  6.132827929624233e-08  1.0000
  Zn  Zn4       1.0  0.5583220350834213  0.9999568089472177  0.9999964826933692  1.0000
  Zn  Zn5       1.0  0.4669540289973356  0.46692258623514965  0.9339184626417493  1.0000
  Zn  Zn6       1.0  0.5330760417240369  0.5330473481167176  0.06608265884371171  1.0000
  H   H1        1.0  0.21226921513926564  0.5834445502146294  0.349009004003264  1.0000
  H   H2        1.0  0.7655780519910352  0.21225864413587917  0.3491144179815251  1.0000
  H   H3        1.0  0.13674970844788703  0.765535833476882  0.3490337133588071  1.0000
  H   H4        1.0  0.5833745170348409  0.1366987212420767  0.34892283528800755  1.0000
  H   H5        1.0  0.8633298684083784  0.4166164048072077  0.6510776615577285  1.0000
  H   H6        1.0  0.4165558248694198  0.787724698209459  0.6509875798745454  1.0000
  H   H7        1.0  0.7877153095174522  0.23443475084835091  0.6508837522837965  1.0000
  H   H8        1.0  0.2344736272239275  0.8632580772671117  0.6509694371281042  1.0000
  H   H9        1.0  0.1545860320856465  0.3901459527635396  0.9237064552594701  1.0000
  H   H10       1.0  0.5336791642733448  0.15458778941918885  0.9237300897561341  1.0000
  H   H11       1.0  0.7692402083078423  0.533655085854008  0.9237761820351054  1.0000
  H   H12       1.0  0.38999214725092224  0.769191053475069  0.9237511313584932  1.0000
  H   H13       1.0  0.23080599421149373  0.6100087071534831  0.07624986740038504  1.0000
  H   H14       1.0  0.6098533139080118  0.8454141853990933  0.07628924608633983  1.0000
  H   H15       1.0  0.8454117653367061  0.46632336508537975  0.07626985907911181  1.0000
  H   H16       1.0  0.46634568414400956  0.2307612055320192  0.07622528497808638  1.0000
  H   H17       1.0  0.26759505403309475  0.3914571853396681  0.9202236601863589  1.0000
  H   H18       1.0  0.5287825718280961  0.2676047136136859  0.9202118333248565  1.0000
  H   H19       1.0  0.6526462294724595  0.5288049126444889  0.920134558735988  1.0000
  H   H20       1.0  0.391282068349888  0.6525925927677321  0.9201119748592745  1.0000
  H   H21       1.0  0.34740601142112837  0.6087227188556382  0.07989383635498365  1.0000
  H   H22       1.0  0.6085427625741957  0.7324051055167331  0.07977520919307315  1.0000
  H   H23       1.0  0.7323967424403078  0.471219540539586  0.07978997879629178  1.0000
  H   H24       1.0  0.4711943263203793  0.34735719445863117  0.07986879451362225  1.0000
  H   H25       1.0  0.14546758597487752  0.5180167276047243  0.21895296174243836  1.0000
  H   H26       1.0  0.7010296856361864  0.14545083739637477  0.2190557507067652  1.0000
  H   H27       1.0  0.07352813728424941  0.7009210735761471  0.21897479834519373  1.0000
  H   H28       1.0  0.5180265035590068  0.0734882525474845  0.2188639230599208  1.0000
  H   H29       1.0  0.9265390816877788  0.48196690186473756  0.781137393087164  1.0000
  H   H30       1.0  0.48198248082971445  0.8545255895524307  0.7810442313248771  1.0000
  H   H31       1.0  0.8545245575179123  0.2989791657787038  0.7809405258647643  1.0000
  H   H32       1.0  0.299086231404161  0.9264797559764022  0.7810280843002673  1.0000
  C   C1        1.0  0.11793785369496879  0.5000924734710851  0.9999665863977398  1.0000
  C   C2        1.0  0.5000434837309132  0.11793620032307925  0.9999914584722375  1.0000
  C   C3        1.0  0.8820655707403517  0.4999574239981753  8.731011980827568e-06  1.0000
  C   C4        1.0  0.49991093809281745  0.8820603111822436  3.060205533956434e-05  1.0000
  C   C5        1.0  0.31394328460262244  0.5000943565973941  5.04412105968052e-05  1.0000
  C   C6        1.0  0.4999803411712521  0.3139186836673532  4.2779942454273915e-05  1.0000
  C   C7        1.0  0.6860846299741326  0.5000214565553093  0.9999622567739975  1.0000
  C   C8        1.0  0.49990953609524524  0.6860579070629527  0.9999559358440989  1.0000
  C   C9        1.0  0.18618106948353857  0.5001004039000208  0.9999506620365395  1.0000
  C   C10       1.0  0.5000464288365907  0.18619408520347486  0.9999976313687213  1.0000
  C   C11       1.0  0.8138070318775731  0.49995634717617315  2.336816194656535e-06  1.0000
  C   C12       1.0  0.4998981567905219  0.8138170609052865  4.779816383403447e-05  1.0000
  C   C13       1.0  0.49996913007383653  0.6177354219840581  0.99992299818188  1.0000
  C   C14       1.0  0.3822581260764721  0.5000190445388668  6.552041281078622e-05  1.0000
  C   C15       1.0  0.49996890760129997  0.3822229103128692  3.71004522747991e-05  1.0000
  C   C16       1.0  0.6177728841409191  0.5000307477480773  0.9999550479419239  1.0000
  C   C17       1.0  0.06709528913853552  0.5670285520331221  0.13414442441536073  1.0000
  C   C18       1.0  0.5670942584340821  0.06707343271697405  0.13414214707049157  1.0000
  C   C19       1.0  0.9329279187895736  0.43290493970266664  0.8658571705479189  1.0000
  C   C20       1.0  0.43297213443780463  0.9329035831879582  0.8658543888209423  1.0000
  C   C21       1.0  0.14465085765705515  0.5724288096006731  0.24810596450645048  1.0000
  C   C22       1.0  0.6757318884605183  0.14461299056643645  0.24816698666040793  1.0000
  C   C23       1.0  0.1035253946085888  0.6756671348360471  0.2481163707171347  1.0000
  C   C24       1.0  0.5724424309761319  0.1034640519387864  0.2480646503604761  1.0000
  C   C25       1.0  0.8965517974712754  0.42755498184132534  0.7519339802347033  1.0000
  C   C26       1.0  0.42757132867961906  0.8553442336082993  0.7518913486415427  1.0000
  C   C27       1.0  0.855377553152458  0.3242758190416167  0.7518320633613839  1.0000
  C   C28       1.0  0.32433771665262895  0.8964782709215557  0.7518847065596078  1.0000
  C   C29       1.0  0.18142189315106094  0.6086294390752514  0.3201747534259026  1.0000
  C   C30       1.0  0.7115582865885558  0.1813737997682807  0.3202354008146315  1.0000
  C   C31       1.0  0.13881574165286986  0.7115362908206747  0.3201873247041859  1.0000
  C   C32       1.0  0.6085978836273896  0.13874390319062968  0.3201334489683916  1.0000
  C   C33       1.0  0.8612726185388271  0.3913978651181082  0.6798663353135552  1.0000
  C   C34       1.0  0.391371905398046  0.8185741656420619  0.6798213983402945  1.0000
  C   C35       1.0  0.8186129975698009  0.2884472695597822  0.6797629745774286  1.0000
  C   C36       1.0  0.2884717907492345  0.8611889644601973  0.6798140853128983  1.0000
  C   C37       1.0  0.17839762270377693  0.6783644441773761  0.3567497889007214  1.0000
  C   C38       1.0  0.6783439104191373  0.17835913223650124  0.3567556745588547  1.0000
  C   C39       1.0  0.8216429744639059  0.3216577210511887  0.6432439878407052  1.0000
  C   C40       1.0  0.3216382931331339  0.8216013545529393  0.6432479013367781  1.0000
  C   C41       1.0  0.1058684549921409  0.6058081624546006  0.21161367198817518  1.0000
  C   C42       1.0  0.6058502907060871  0.10581336078822551  0.21161366342682433  1.0000
  C   C43       1.0  0.894188702830512  0.39415072938177087  0.7883851738398846  1.0000
  C   C44       1.0  0.39419380909710355  0.8941317046212943  0.7883846946168943  1.0000
  C   C45       1.0  0.28354651032054096  0.783510314520868  0.5670622786258974  1.0000
  C   C46       1.0  0.7835043469707442  0.28358269315781115  0.5670597395405466  1.0000
  C   C47       1.0  0.7164173549226263  0.2164946032787824  0.4329386607266343  1.0000
  C   C48       1.0  0.21649161392032581  0.71645766288907  0.4329360535772082  1.0000
  C   C49       1.0  0.1965568620069009  0.4380737987658917  0.9566220465699188  1.0000
  C   C50       1.0  0.5187208328492191  0.19658475472520104  0.9566718773853536  1.0000
  C   C51       1.0  0.7601282140342253  0.5186417859073275  0.9566511132066965  1.0000
  C   C52       1.0  0.4378744335942175  0.7601139647389132  0.9566935306931725  1.0000
  C   C53       1.0  0.23988650189166083  0.562128179963146  0.04330984092410252  1.0000
  C   C54       1.0  0.5619267094144648  0.8034420895803084  0.04337664474653749  1.0000
  C   C55       1.0  0.8034161113803221  0.4812817866345183  0.04332929694211155  1.0000
  C   C56       1.0  0.48135900088350775  0.23987380239716333  0.043351109664278964  1.0000
  C   C57       1.0  0.25947098790364026  0.43860267686691407  0.9551894721876693  1.0000
  C   C58       1.0  0.5166596150275212  0.25947440720953807  0.9551953366909983  1.0000
  C   C59       1.0  0.6957233470610903  0.5166325685784231  0.9551121192942985  1.0000
  C   C60       1.0  0.4384055490163521  0.6957061693905972  0.9551387332569448  1.0000
  C   C61       1.0  0.3042924320552628  0.5615933545734678  0.04486446301502406  1.0000
  C   C62       1.0  0.5613950504116403  0.7405292774768667  0.04480963846194185  1.0000
  C   C63       1.0  0.7405265078905144  0.4833439614651738  0.044805332009183026  1.0000
  C   C64       1.0  0.48336868555253426  0.3042780772391964  0.0448895442517879  1.0000
  N   N1        1.0  0.19392287924894455  0.7714584146206321  0.4658557046268966  1.0000
  N   N2        1.0  0.6943283328554132  0.19395616554091086  0.4658587408783106  1.0000
  N   N3        1.0  0.2719702584259168  0.6943666558222147  0.4658515556727494  1.0000
  N   N4        1.0  0.7714104281036712  0.27198677762703477  0.46584888699885596  1.0000
  N   N5        1.0  0.7280013916742619  0.22860037964051827  0.534150040246594  1.0000
  N   N6        1.0  0.22855186119770116  0.806086643114547  0.5341477140850158  1.0000
  N   N7        1.0  0.8060544331261852  0.3056602350080767  0.534140105151188  1.0000
  N   N8        1.0  0.30563269248873587  0.72802819793759  0.5341426169433703  1.0000
  O   O1        1.0  0.09881226603828708  0.5580707626474039  0.015351329507474486  1.0000
  O   O2        1.0  0.4574020721835907  0.09883859582462416  0.015345677988804625  1.0000
  O   O3        1.0  0.9165495797168218  0.45733764276516115  0.015350312897759061  1.0000
  O   O4        1.0  0.5579067297198179  0.9164990123735709  0.015371157043091374  1.0000
  O   O5        1.0  0.08349466473026743  0.44209363859090434  0.9846192571018548  1.0000
  O   O6        1.0  0.44193424946069404  0.9011882763465593  0.9846503773774486  1.0000
  O   O7        1.0  0.901163306854983  0.5426000569454248  0.9846560206533467  1.0000
  O   O8        1.0  0.5426634977379409  0.08344987061552439  0.9846476477570433  1.0000
  O   O9        1.0  0.039111054595231516  0.602317990933102  0.10373564665909629  1.0000
  O   O10       1.0  0.5013845394656542  0.03913066480589579  0.10374236184267006  1.0000
  O   O11       1.0  0.06464580384198368  0.5013162220038794  0.10373477587355492  1.0000
  O   O12       1.0  0.6023855889136698  0.0645973481989088  0.10372364341033348  1.0000
  O   O13       1.0  0.9354006804937712  0.3976152119935535  0.8962750468738817  1.0000
  O   O14       1.0  0.3976810814773162  0.9608882346291311  0.8962649871724223  1.0000
  O   O15       1.0  0.9608722753197728  0.4986173351755669  0.8962594727041377  1.0000
  O   O16       1.0  0.49868175237115525  0.935352678806524  0.8962627870476751  1.0000
  O   O17       1.0  0.4564389185711733  0.5627292480557244  0.9434884899827054  1.0000
  O   O18       1.0  0.38080014720075916  0.4564389035603824  0.9436375842400367  1.0000
  O   O19       1.0  0.4870873913013229  0.3807541477298102  0.9435980738186699  1.0000
  O   O20       1.0  0.5627674908533254  0.4871131427467219  0.9435223591189158  1.0000
  O   O21       1.0  0.5128894574056275  0.4372419130504355  0.05648878145371571  1.0000
  O   O22       1.0  0.4372769367003714  0.5435675323277069  0.0565225235598774  1.0000
  O   O23       1.0  0.543563262323957  0.6192028604002076  0.05637099809984391  1.0000
  O   O24       1.0  0.6192465981819167  0.5129180684532741  0.05641077818626172  1.0000
