data_image0
_chemical_formula_structural       Ca2H20C6N4Cl4O8
_chemical_formula_sum              "Ca2 H20 C6 N4 Cl4 O8"
_cell_length_a       5.732684196385156
_cell_length_b       7.965620003762259
_cell_length_c       11.467790604728046
_cell_angle_alpha    71.4890575043655
_cell_angle_beta     80.34214555832469
_cell_angle_gamma    86.69505053031249

_space_group_name_H-M_alt    "P 1"
_space_group_IT_number       1

loop_
  _space_group_symop_operation_xyz
  'x, y, z'

loop_
  _atom_site_type_symbol
  _atom_site_label
  _atom_site_symmetry_multiplicity
  _atom_site_fract_x
  _atom_site_fract_y
  _atom_site_fract_z
  _atom_site_occupancy
  Ca  Ca1       1.0  0.5000003715182046  1.4614257963984177e-06  0.5000005121316774  1.0000
  Ca  Ca2       1.0  0.9999994632593854  0.499998655649236  0.999999990095638  1.0000
  H   H1        1.0  0.3595293849275834  0.9619095322204886  0.9107158242044375  1.0000
  H   H2        1.0  0.6404718176122018  0.038090590188751605  0.08928298811940745  1.0000
  H   H3        1.0  0.1590157858287  0.13294745097604732  0.9282570911662376  1.0000
  H   H4        1.0  0.8409836982857327  0.867051344508674  0.07174478017947908  1.0000
  H   H5        1.0  0.5554368723061245  0.4519266494933021  0.7750544177133419  1.0000
  H   H6        1.0  0.4445679269471086  0.5480708564340446  0.2249446681534195  1.0000
  H   H7        1.0  0.660124414280638  0.381738182378932  0.6441729652454028  1.0000
  H   H8        1.0  0.33987145843819644  0.6182645616905235  0.35583008132407895  1.0000
  H   H9        1.0  0.04140682850303532  0.1936124047669736  0.4131970921928101  1.0000
  H   H10       1.0  0.9585891246160119  0.806385023336901  0.5868027707356658  1.0000
  H   H11       1.0  0.2082654731397753  0.15585600709383837  0.3000819631860522  1.0000
  H   H12       1.0  0.7917393624672046  0.8441401791764704  0.6999182853397554  1.0000
  H   H13       1.0  0.1721449448898228  0.3494120757673826  0.6387091321613951  1.0000
  H   H14       1.0  0.8278561700258749  0.650593358458835  0.3612919933282085  1.0000
  H   H15       1.0  0.9657079602105443  0.19735797936436944  0.6349908829760763  1.0000
  H   H16       1.0  0.034293191293336606  0.8026447948047634  0.365008215455404  1.0000
  H   H17       1.0  0.2967736049943213  0.6613944725032398  0.7499518974437505  1.0000
  H   H18       1.0  0.703229373996166  0.3386056696192981  0.2500476299429906  1.0000
  H   H19       1.0  0.4450957600634737  0.6768740649744914  0.851203315621383  1.0000
  H   H20       1.0  0.5549089809299872  0.32312608856414465  0.14879518587777335  1.0000
  C   C1        1.0  0.8737026441538873  0.3216439526309999  0.7781697224767541  1.0000
  C   C2        1.0  0.1263075713722657  0.6783523218194251  0.2218387645644312  1.0000
  C   C3        1.0  0.21049923057213252  0.0905557226455187  0.7587418396597059  1.0000
  C   C4        1.0  0.7894984335139767  0.9094443686343398  0.2412572834888279  1.0000
  C   C5        1.0  0.052623510643009304  0.24047044367711834  0.698884164258132  1.0000
  C   C6        1.0  0.9473758280564157  0.7595336304357476  0.3011130564514061  1.0000
  N   N1        1.0  0.678991245502246  0.38509097179675683  0.7305115428479423  1.0000
  N   N2        1.0  0.32099746338843005  0.6149130006307431  0.2694848693851809  1.0000
  N   N3        1.0  0.23890340068991378  0.0563962936989384  0.8764849870482007  1.0000
  N   N4        1.0  0.7610960470707654  0.9436038214428137  0.12351572163846922  1.0000
  Cl  Cl1       1.0  0.28982060699437534  0.6756036952844086  0.5534192957343292  1.0000
  Cl  Cl2       1.0  0.710180609993138  0.3243964354220381  0.44658125753999656  1.0000
  Cl  Cl3       1.0  0.27572655421911213  0.21489804929569806  0.10459873531998197  1.0000
  Cl  Cl4       1.0  0.7242763811937536  0.7851034083352746  0.8953987589324794  1.0000
  O   O1        1.0  0.9101840965385789  0.3331997477299566  0.8810384204043941  1.0000
  O   O2        1.0  0.0898136626299078  0.6667936954814806  0.11895607033645914  1.0000
  O   O3        1.0  0.19051170132891573  0.13404109628480404  0.3910329877342135  1.0000
  O   O4        1.0  0.8094860282408336  0.8659563515323753  0.6089675902571656  1.0000
  O   O5        1.0  0.3178687011854535  0.0034519730958137997  0.6915656712342865  1.0000
  O   O6        1.0  0.6821253079274356  0.9965533822772131  0.3084325940037259  1.0000
  O   O7        1.0  0.3236012708415005  0.604199872636599  0.8368147320860685  1.0000
  O   O8        1.0  0.6763999389221526  0.3958002539212515  0.163184950713017  1.0000
