data_image0
_chemical_formula_structural       V2Cu2P2H18C20N6O12
_chemical_formula_sum              "V2 Cu2 P2 H18 C20 N6 O12"
_cell_length_a       7.29816778762987
_cell_length_b       9.905373918569778
_cell_length_c       9.976986945354199
_cell_angle_alpha    106.97102102497125
_cell_angle_beta     102.62892560760142
_cell_angle_gamma    99.26106132488543

_space_group_name_H-M_alt    "P 1"
_space_group_IT_number       1

loop_
  _space_group_symop_operation_xyz
  'x, y, z'

loop_
  _atom_site_type_symbol
  _atom_site_label
  _atom_site_symmetry_multiplicity
  _atom_site_fract_x
  _atom_site_fract_y
  _atom_site_fract_z
  _atom_site_occupancy
  V   V1        1.0  0.9630213989878341  0.7034878208932652  0.6122201377291533  1.0000
  V   V2        1.0  0.03697478355207549  0.2965084971243711  0.3877737645387072  1.0000
  Cu  Cu1       1.0  0.39771523945145054  0.509145092655615  0.23886047732903384  1.0000
  Cu  Cu2       1.0  0.6022832459242339  0.4908544947492358  0.7611397685157968  1.0000
  P   P1        1.0  0.6625737428138337  0.3934916746924415  0.43094222271542293  1.0000
  P   P2        1.0  0.33742254186367393  0.6065057371336663  0.5690610312382277  1.0000
  H   H1        1.0  0.3053276102198126  0.21049260034891398  0.08410819781649079  1.0000
  H   H2        1.0  0.6946823838472511  0.789507006813693  0.9158840279478754  1.0000
  H   H3        1.0  0.08704097493999542  0.0348403938108248  0.8418540909497807  1.0000
  H   H4        1.0  0.9129675855266585  0.9651635567279226  0.15813912270517963  1.0000
  H   H5        1.0  0.9298090951375925  0.136098526085938  0.6574425145630798  1.0000
  H   H6        1.0  0.07019182575739787  0.8639086732308882  0.34255931963159725  1.0000
  H   H7        1.0  0.9959668777575316  0.4075682383913986  0.7204043033256156  1.0000
  H   H8        1.0  0.0040324768535028735  0.5924389617767928  0.27960327398678686  1.0000
  H   H9        1.0  0.1321850867716918  0.625380488004957  0.8805145421349537  1.0000
  H   H10       1.0  0.8678184845196809  0.37462237617365446  0.11949353534605923  1.0000
  H   H11       1.0  0.2584290813487513  0.8628524726831514  0.9685436237678574  1.0000
  H   H12       1.0  0.7415661424377474  0.1371460233151396  0.03145975464930467  1.0000
  H   H13       1.0  0.4614040574486112  0.08358053077724038  0.1824273546209056  1.0000
  H   H14       1.0  0.5386057215489258  0.9164190819787803  0.8175728553247837  1.0000
  H   H15       1.0  0.6497153454979454  0.04607085964259739  0.4049593468713155  1.0000
  H   H16       1.0  0.35029795852851464  0.9539309341333818  0.5950410940518367  1.0000
  H   H17       1.0  0.6163920429451225  0.7942888722366702  0.4123335352260185  1.0000
  H   H18       1.0  0.38361123802283714  0.2057129030277096  0.5876721767278781  1.0000
  C   C1        1.0  0.23493127927570615  0.24687339443528336  0.9979728522125128  1.0000
  C   C2        1.0  0.7650694354167484  0.7531240218284763  0.0020231526146331923  1.0000
  C   C3        1.0  0.11484005406862961  0.15175683658348757  0.8656135088418041  1.0000
  C   C4        1.0  0.8851607664236809  0.8482449229042286  0.13437873878088158  1.0000
  C   C5        1.0  0.02595758621708199  0.2091220199639139  0.7626266509907184  1.0000
  C   C6        1.0  0.9740378777877154  0.790880815762442  0.23736798010865098  1.0000
  C   C7        1.0  0.06174200076434741  0.35795501178215966  0.7965057040797205  1.0000
  C   C8        1.0  0.9382560026322581  0.6420521836439974  0.20349963216906988  1.0000
  C   C9        1.0  0.18719059651555633  0.44993776947610103  0.9338746085419062  1.0000
  C   C10       1.0  0.8128138528781645  0.5500629188193853  0.0661269868578102  1.0000
  C   C11       1.0  0.3310142182364402  0.7137775000959293  0.07978091712179483  1.0000
  C   C12       1.0  0.6689841041021863  0.28622643752462545  0.92022555174524  1.0000
  C   C13       1.0  0.34149010772560456  0.8538410525702316  0.06910141353285579  1.0000
  C   C14       1.0  0.6585152143733026  0.14615855644730397  0.9309070435620086  1.0000
  C   C15       1.0  0.4524998994633833  0.9740296864469257  0.18662057712552382  1.0000
  C   C16       1.0  0.5475031718322185  0.025970997805693195  0.8133797752332514  1.0000
  C   C17       1.0  0.5561494038757646  0.9542197545843792  0.31249380084310024  1.0000
  C   C18       1.0  0.4438551010202473  0.045776586292106486  0.6875055636250735  1.0000
  C   C19       1.0  0.5395539968432672  0.8148556164673834  0.3166232927937783  1.0000
  C   C20       1.0  0.46044650104475693  0.18514615141044286  0.6833809311008994  1.0000
  N   N1        1.0  0.2713206873361714  0.3937066634358217  0.03283667365393937  1.0000
  N   N2        1.0  0.7286765023273675  0.6062885718079798  0.9671591001957438  1.0000
  N   N3        1.0  0.2170706533850861  0.5970624336748357  0.9618074523382419  1.0000
  N   N4        1.0  0.7829200365139641  0.40293931009797734  0.03819405840584973  1.0000
  N   N5        1.0  0.4265965270942758  0.6961867597237655  0.20318752068494206  1.0000
  N   N6        1.0  0.5734039439100655  0.30381500885323476  0.7968177012323991  1.0000
  O   O1        1.0  0.5107234392140542  0.3530447930524544  0.2838924143256989  1.0000
  O   O2        1.0  0.4892731160352639  0.6469482657612317  0.7161006245150788  1.0000
  O   O3        1.0  0.5811750865476952  0.39039115850512457  0.557396012050198  1.0000
  O   O4        1.0  0.41881656383967686  0.6096040612663884  0.44259578765839086  1.0000
  O   O5        1.0  0.8014086167983548  0.5451817815965753  0.4599707042098302  1.0000
  O   O6        1.0  0.1985881750070035  0.45481236752969767  0.5400266962033983  1.0000
  O   O7        1.0  0.7927164181710041  0.27947669936862934  0.41559352729535703  1.0000
  O   O8        1.0  0.2072718379436508  0.7205130864715555  0.58440616021268  1.0000
  O   O9        1.0  0.895834317260011  0.8523582485538981  0.6138875292670889  1.0000
  O   O10       1.0  0.104165255890365  0.1476402539795814  0.3861115940915667  1.0000
  O   O11       1.0  0.970029759087204  0.6761666872195916  0.7686854696656981  1.0000
  O   O12       1.0  0.02996941620499879  0.32383072919636646  0.23131528025650278  1.0000
