data_image0
_chemical_formula_structural       Cu2H16C12Br4N4
_chemical_formula_sum              "Cu2 H16 C12 Br4 N4"
_cell_length_a       6.874820056055373
_cell_length_b       7.471672825188449
_cell_length_c       9.723917002798407
_cell_angle_alpha    104.24810269695627
_cell_angle_beta     89.99783861259118
_cell_angle_gamma    117.32892476546282

_space_group_name_H-M_alt    "P 1"
_space_group_IT_number       1

loop_
  _space_group_symop_operation_xyz
  'x, y, z'

loop_
  _atom_site_type_symbol
  _atom_site_label
  _atom_site_symmetry_multiplicity
  _atom_site_fract_x
  _atom_site_fract_y
  _atom_site_fract_z
  _atom_site_occupancy
  Cu  Cu1       1.0  0.46247942842297357  0.9249183999312577  0.17625487564006903  1.0000
  Cu  Cu2       1.0  0.5375217205670069  0.07508230419320229  0.8237432003444524  1.0000
  H   H1        1.0  0.6619615134848261  0.6861329102058137  0.003813429484047509  1.0000
  H   H2        1.0  0.974836178330868  0.31366422593877985  0.9962159845378692  1.0000
  H   H3        1.0  0.3380474712907855  0.31388348300031765  0.9961866531769702  1.0000
  H   H4        1.0  0.025170956764071762  0.6863397258197922  0.0037714071099018273  1.0000
  H   H5        1.0  0.9675065119246112  0.23256785343068737  0.5223747958727714  1.0000
  H   H6        1.0  0.7356778893611987  0.7669283227049988  0.477685306322833  1.0000
  H   H7        1.0  0.03250254764767386  0.7674312154097933  0.4776291341769934  1.0000
  H   H8        1.0  0.26432445854415215  0.23306604503779477  0.5223177143249559  1.0000
  H   H9        1.0  0.713848692263582  0.15440689974587232  0.4211151313604518  1.0000
  H   H10       1.0  0.559698397814806  0.8448216777807076  0.5787477138355612  1.0000
  H   H11       1.0  0.28614738130285383  0.8455952923856671  0.5788914598501478  1.0000
  H   H12       1.0  0.4403057453197761  0.1551821092423822  0.42125610060487867  1.0000
  H   H13       1.0  0.9606891523759273  0.3651384664363989  0.3959426298580198  1.0000
  H   H14       1.0  0.5967502860635251  0.6344712215680065  0.604143749245452  1.0000
  H   H15       1.0  0.039322410123148084  0.6348685257835738  0.6040546056829328  1.0000
  H   H16       1.0  0.40324836522637497  0.36552156957737475  0.3958599948450825  1.0000
  C   C1        1.0  0.7969349852133688  0.7945312557912344  0.08911721536854594  1.0000
  C   C2        1.0  0.0017274976862040672  0.20534803017910258  0.9108878690669897  1.0000
  C   C3        1.0  0.20306285222197573  0.20548029321811606  0.9108963280515142  1.0000
  C   C4        1.0  0.9982705347603656  0.794646433674103  0.0891059144774147  1.0000
  C   C5        1.0  0.9279917565631521  0.062695220338  0.30031569608836145  1.0000
  C   C6        1.0  0.8655095653695071  0.937101652978555  0.6996742910678648  1.0000
  C   C7        1.0  0.07201238134471305  0.9373085562846767  0.6996891447548846  1.0000
  C   C8        1.0  0.13447761157487997  0.0628943750268718  0.3003208235787724  1.0000
  C   C9        1.0  0.890467033387459  0.21051947659331194  0.4166929174750464  1.0000
  C   C10       1.0  0.6805696683764282  0.7890548865359718  0.5833155522328681  1.0000
  C   C11       1.0  0.10954226052898978  0.7894858861916207  0.583310173348714  1.0000
  C   C12       1.0  0.31941113740218446  0.21092547235305398  0.41667550275774085  1.0000
  Br  Br1       1.0  0.6352564661106896  0.2707045529213588  0.1298902519151071  1.0000
  Br  Br2       1.0  0.364725869192668  0.7292788689010267  0.8701085945109596  1.0000
  Br  Br3       1.0  0.30492343971540947  0.6094414422010174  0.2549043814281831  1.0000
  Br  Br4       1.0  0.6950856564439077  0.390557699442354  0.7450923638019873  1.0000
  N   N1        1.0  0.763426788365784  0.9304263661035889  0.19246746262647457  1.0000
  N   N2        1.0  0.8327029182197735  0.06928775231647678  0.8075205244744125  1.0000
  N   N3        1.0  0.23656718605730026  0.06957744756927299  0.8075343002259386  1.0000
  N   N4        1.0  0.16729623311877626  0.930717689120293  0.19247538274731107  1.0000
