data_image0
_chemical_formula_structural       Cu2H18C18S2N2Cl4O10
_chemical_formula_sum              "Cu2 H18 C18 S2 N2 Cl4 O10"
_cell_length_a       5.028955802308037
_cell_length_b       7.707845291343606
_cell_length_c       16.83556997563013
_cell_angle_alpha    92.50874519815872
_cell_angle_beta     96.83278874483943
_cell_angle_gamma    102.98185670156406

_space_group_name_H-M_alt    "P 1"
_space_group_IT_number       1

loop_
  _space_group_symop_operation_xyz
  'x, y, z'

loop_
  _atom_site_type_symbol
  _atom_site_label
  _atom_site_symmetry_multiplicity
  _atom_site_fract_x
  _atom_site_fract_y
  _atom_site_fract_z
  _atom_site_occupancy
  Cu  Cu1       1.0  0.5185677386586107  0.5880145080451059  0.6515497039711206  1.0000
  Cu  Cu2       1.0  0.4814343732091331  0.41198690563434326  0.3484510151091981  1.0000
  H   H1        1.0  0.14113669765407613  0.8635700656703378  0.7160067927672884  1.0000
  H   H2        1.0  0.8588624763489748  0.13642867557970825  0.2839931707681771  1.0000
  H   H3        1.0  0.4307795479505573  0.048093604878324904  0.7331244739447624  1.0000
  H   H4        1.0  0.5692165551483654  0.9519077957141844  0.2668754338038184  1.0000
  H   H5        1.0  0.5195912455651949  0.9780005844272637  0.5874110623105722  1.0000
  H   H6        1.0  0.48040238878999025  0.021999478679752795  0.4125881345278231  1.0000
  H   H7        1.0  0.22635766264080107  0.0655604922409694  0.6000103526633325  1.0000
  H   H8        1.0  0.7736374972660017  0.9344382357326281  0.39999005956333616  1.0000
  H   H9        1.0  0.6639731808007808  0.9539075143588107  0.826880749630696  1.0000
  H   H10       1.0  0.33602847184646123  0.04609256983891899  0.1731187373201237  1.0000
  H   H11       1.0  0.9636489941767223  0.921163121492029  0.9339012124321471  1.0000
  H   H12       1.0  0.0363535967124164  0.0788396325935139  0.06609836378800078  1.0000
  H   H13       1.0  0.36657749628194847  0.4814534721922498  0.9412672250538561  1.0000
  H   H14       1.0  0.6334266300592546  0.5185479522220575  0.058732379059733796  1.0000
  H   H15       1.0  0.3775949853114113  0.34296657130496294  0.5344177821309087  1.0000
  H   H16       1.0  0.6224006387661092  0.6570334888814527  0.46558326847785025  1.0000
  H   H17       1.0  0.6625691612219599  0.3249390882907122  0.5789688843767563  1.0000
  H   H18       1.0  0.33742800325786243  0.6750596449555599  0.42103160037802206  1.0000
  C   C1        1.0  0.3461939584057773  0.9183221107944063  0.6988945078944582  1.0000
  C   C2        1.0  0.653805684718222  0.0816779653995425  0.30110550027567473  1.0000
  C   C3        1.0  0.32001903780450647  0.9515533415990305  0.6103247337959274  1.0000
  C   C4        1.0  0.6799765961734678  0.04844672404956899  0.3896751293179932  1.0000
  C   C5        1.0  0.674706304838594  0.8324883251173746  0.7917699529847155  1.0000
  C   C6        1.0  0.32529628110031433  0.16751442623707646  0.2082302169828552  1.0000
  C   C7        1.0  0.9032968697920012  0.5739410448590477  0.7910295380098304  1.0000
  C   C8        1.0  0.09670524702596586  0.4260603715514931  0.20897058732306556  1.0000
  C   C9        1.0  0.8585861136081975  0.7331021183631706  0.8293592886367236  1.0000
  C   C10       1.0  0.14141647728093432  0.26690063572237227  0.17064028758342428  1.0000
  C   C11       1.0  0.17955982186018823  0.7101052674610815  0.9458831734422474  1.0000
  C   C12       1.0  0.8204447736019631  0.2898974918971433  0.054116475306003095  1.0000
  C   C13       1.0  0.9994197891674049  0.799138358984372  0.906511407715314  1.0000
  C   C14       1.0  0.000581868430060674  0.2008617279444493  0.0934874854880832  1.0000
  C   C15       1.0  0.09084839341672787  0.48715812022272326  0.8352240557926507  1.0000
  C   C16       1.0  0.9091552638035268  0.5128419692476739  0.16477550368627897  1.0000
  C   C17       1.0  0.2259804537041744  0.5527112013930163  0.9104180213220657  1.0000
  C   C18       1.0  0.7740216730142392  0.44729022047970796  0.0895809165159989  1.0000
  S   S1        1.0  0.10379126315334014  0.7688370700796198  0.5483199661836125  1.0000
  S   S2        1.0  0.8962038967534625  0.23116165789398482  0.4516804460430635  1.0000
  N   N1        1.0  0.523806868124126  0.7959287915094252  0.7221115370050626  1.0000
  N   N2        1.0  0.4761912444980326  0.204072617086851  0.2778878495242125  1.0000
  Cl  Cl1       1.0  0.1451008016237054  0.29395745126982575  0.7907927796780783  1.0000
  Cl  Cl2       1.0  0.8549008411230828  0.7060426274657131  0.2092078947675802  1.0000
  Cl  Cl3       1.0  0.35517365760442493  0.7893749686553166  0.04040371105300981  1.0000
  Cl  Cl4       1.0  0.6448309428079496  0.21062779343400004  0.959595343947832  1.0000
  O   O1        1.0  0.816038791880665  0.757484205417967  0.5618451729523101  1.0000
  O   O2        1.0  0.18395836269871066  0.24251452236612886  0.4381564992972996  1.0000
  O   O3        1.0  0.1444712327224096  0.8023975841667834  0.4650744731863766  1.0000
  O   O4        1.0  0.8555194439671965  0.19759979558645568  0.534926343096835  1.0000
  O   O5        1.0  0.19449096731841561  0.6067374419602488  0.5751260824174408  1.0000
  O   O6        1.0  0.8055082017344191  0.3932612965587055  0.4248744748654474  1.0000
  O   O7        1.0  0.4910649057188579  0.36261727424600565  0.5875742162190178  1.0000
  O   O8        1.0  0.5089327229316822  0.6373827912130849  0.4124269069178368  1.0000
  O   O9        1.0  0.7898032797166367  0.506760249771169  0.7201147699451622  1.0000
  O   O10       1.0  0.21019636835759306  0.4932398291538789  0.27988464447755484  1.0000
