data_image0
_chemical_formula_structural       Cd2Co2H28C16N4O20
_chemical_formula_sum              "Cd2 Co2 H28 C16 N4 O20"
_cell_length_a       7.717464179495769
_cell_length_b       8.237989052159362
_cell_length_c       11.001459534191264
_cell_angle_alpha    89.99955787533678
_cell_angle_beta     90.00167648137521
_cell_angle_gamma    111.56168523682825

_space_group_name_H-M_alt    "P 1"
_space_group_IT_number       1

loop_
  _space_group_symop_operation_xyz
  'x, y, z'

loop_
  _atom_site_type_symbol
  _atom_site_label
  _atom_site_symmetry_multiplicity
  _atom_site_fract_x
  _atom_site_fract_y
  _atom_site_fract_z
  _atom_site_occupancy
  Cd  Cd1       1.0  0.5000046397284379  0.5000007761203163  0.4999991586115797  1.0000
  Cd  Cd2       1.0  7.958882193105025e-07  0.5000019196165226  0.999999499796239  1.0000
  Co  Co1       1.0  3.689708975687814e-06  0.4999995133679319  0.5000012965490868  1.0000
  Co  Co2       1.0  0.499998429383595  0.49999795394842284  0.9999991797804598  1.0000
  H   H1        1.0  0.6276814621835101  0.7767220959257414  0.3577558124865732  1.0000
  H   H2        1.0  0.1276733721747901  0.7767072856989329  0.1422474544519829  1.0000
  H   H3        1.0  0.3723215383070694  0.22328332624153543  0.6422434136311779  1.0000
  H   H4        1.0  0.8723239288685534  0.22329680080125763  0.8577481357299136  1.0000
  H   H5        1.0  0.7486582284578488  0.6657454663200965  0.3098101023369609  1.0000
  H   H6        1.0  0.2486629708190548  0.6657452710392915  0.1902081099821089  1.0000
  H   H7        1.0  0.2513462853902623  0.33426387145317443  0.6901882148146612  1.0000
  H   H8        1.0  0.7513309386600254  0.3342600978390137  0.8097947519236686  1.0000
  H   H9        1.0  0.920311347630779  0.7841574747389684  0.5095750154462523  1.0000
  H   H10       1.0  0.42027981357271216  0.7841584129704413  0.9904278969243735  1.0000
  H   H11       1.0  0.07969302674596429  0.21584144425657567  0.49042421070448955  1.0000
  H   H12       1.0  0.579716768480189  0.21584046034575982  0.0095731470870959  1.0000
  H   H13       1.0  0.2521066756701699  0.005749085600072601  0.4541750373306712  1.0000
  H   H14       1.0  0.7520967803229794  0.00576108949668  0.045830716422543105  1.0000
  H   H15       1.0  0.7478940923338726  0.9942472077621575  0.5458241887906539  1.0000
  H   H16       1.0  0.24790110035819168  0.9942377914226909  0.954165782750721  1.0000
  H   H17       1.0  0.10635956610619969  0.8578546147607826  0.3470616424067003  1.0000
  H   H18       1.0  0.6063632230297387  0.8578398312541681  0.1529488964379482  1.0000
  H   H19       1.0  0.8936437993919029  0.14214169383363642  0.6529394016818628  1.0000
  H   H20       1.0  0.3936346577108126  0.1421590496716618  0.8470503296462227  1.0000
  H   H21       1.0  0.03416508088869109  0.895965584072627  0.6952809506019051  1.0000
  H   H22       1.0  0.5341607504609482  0.896000919617414  0.8047251997281747  1.0000
  H   H23       1.0  0.9658276049626977  0.10403326639958982  0.3047191843993247  1.0000
  H   H24       1.0  0.4658263111219298  0.1039900844041739  0.1952722083271752  1.0000
  H   H25       1.0  0.2560586867077532  0.9010493887041378  0.6527661282645667  1.0000
  H   H26       1.0  0.7560475033748234  0.9010288781584633  0.8472400044329262  1.0000
  H   H27       1.0  0.7439352227515382  0.09895598017201479  0.3472358246709035  1.0000
  H   H28       1.0  0.243942295153694  0.0989725598708944  0.1527574036202353  1.0000
  C   C1        1.0  0.3270281725853437  0.7853984082318844  0.4156013882917406  1.0000
  C   C2        1.0  0.8270526504166823  0.7853912528850626  0.0843859248728762  1.0000
  C   C3        1.0  0.6729751177340475  0.2146044111460625  0.5843987468068479  1.0000
  C   C4        1.0  0.1729452302644887  0.2146076280343081  0.9156105743003878  1.0000
  C   C5        1.0  0.18040899770866753  0.8661792364751759  0.4336536164810312  1.0000
  C   C6        1.0  0.6804225146771969  0.8661758427118683  0.06635657677971102  1.0000
  C   C7        1.0  0.8195922748138641  0.13381836209622824  0.5663483365526005  1.0000
  C   C8        1.0  0.31957486158444937  0.13382173300909983  0.9336417403327673  1.0000
  C   C9        1.0  0.10696576802219936  0.8186990356246326  0.6522521772656305  1.0000
  C   C10       1.0  0.6069419736078814  0.8186927781130676  0.8477386461801473  1.0000
  C   C11       1.0  0.8930310286214078  0.18130374567930116  0.3477461398257873  1.0000
  C   C12       1.0  0.39305280521908514  0.18130478238216338  0.1522605798760139  1.0000
  C   C13       1.0  0.08570460983523986  0.6632102017308412  0.7339633867626745  1.0000
  C   C14       1.0  0.5856143490255477  0.6631849567252246  0.7660233574467981  1.0000
  C   C15       1.0  0.9142960830296757  0.33679260241922276  0.2660367483092898  1.0000
  C   C16       1.0  0.41439161394683305  0.3368113670992372  0.23397859563869622  1.0000
  N   N1        1.0  0.044344034692457505  0.7698907068699441  0.526389285110561  1.0000
  N   N2        1.0  0.5443174252295363  0.7698836949974389  0.9736159882547852  1.0000
  N   N3        1.0  0.9556590409768402  0.23010820451380454  0.473610849997165  1.0000
  N   N4        1.0  0.4556791568035692  0.23011517831660908  0.026384146786377  1.0000
  O   O1        1.0  0.28758601548228313  0.631477592585462  0.4612244676094122  1.0000
  O   O2        1.0  0.7875846130569357  0.6314922190154989  0.03871929843772651  1.0000
  O   O3        1.0  0.7124237685920533  0.3685252648751245  0.5387811213775536  1.0000
  O   O4        1.0  0.2124145663712653  0.3685066695199666  0.9612781097191531  1.0000
  O   O5        1.0  0.4732343038630303  0.8676184096168811  0.3571376809191734  1.0000
  O   O6        1.0  0.9732536003481937  0.8676284152816719  0.14287397240220662  1.0000
  O   O7        1.0  0.526765165453362  0.13237787613571328  0.6428633631294502  1.0000
  O   O8        1.0  0.026745074640686494  0.13236916805323057  0.8571243447235872  1.0000
  O   O9        1.0  0.04568913408783  0.5119515131896435  0.6868996596860484  1.0000
  O   O10       1.0  0.5455605876459728  0.5119327660257937  0.8131053200726157  1.0000
  O   O11       1.0  0.954318052452862  0.48805132903444093  0.3131022933930794  1.0000
  O   O12       1.0  0.4544484772993727  0.4880648782357184  0.1868993599518021  1.0000
  O   O13       1.0  0.11262396816674418  0.69727873836095  0.8464013727339221  1.0000
  O   O14       1.0  0.6125567169498539  0.6972882847129683  0.6535848176178902  1.0000
  O   O15       1.0  0.8873793221724353  0.30272408101914994  0.1535996713349661  1.0000
  O   O16       1.0  0.3874487415634178  0.3027067339087778  0.3464171354662113  1.0000
  O   O17       1.0  0.7179712851297354  0.7187259783008955  0.3819373359149978  1.0000
  O   O18       1.0  0.21796704729661795  0.7187136867423476  0.11807539369917922  1.0000
  O   O19       1.0  0.2820312109017351  0.2812781386636728  0.6180618902013677  1.0000
  O   O20       1.0  0.7820328512803696  0.2812904149943379  0.8819238323905553  1.0000
