data_image0
_chemical_formula_structural       Cd24H72C48N96Cl24
_chemical_formula_sum              "Cd24 H72 C48 N96 Cl24"
_cell_length_a       18.32914402959731
_cell_length_b       18.329170678280104
_cell_length_c       18.329168627486833
_cell_angle_alpha    61.38037321131016
_cell_angle_beta     74.89991368459283
_cell_angle_gamma    105.09988880943149

_space_group_name_H-M_alt    "P 1"
_space_group_IT_number       1

loop_
  _space_group_symop_operation_xyz
  'x, y, z'

loop_
  _atom_site_type_symbol
  _atom_site_label
  _atom_site_symmetry_multiplicity
  _atom_site_fract_x
  _atom_site_fract_y
  _atom_site_fract_z
  _atom_site_occupancy
  Cd  Cd1       1.0  0.48557820686858116  0.784354911835301  0.09207926768024098  1.0000
  Cd  Cd2       1.0  0.5144239511428451  0.42234391297563423  0.7012246161805894  1.0000
  Cd  Cd3       1.0  0.12356749283807038  0.7012257658675481  0.7843538416006127  1.0000
  Cd  Cd4       1.0  0.8764311707648889  0.0920780665683055  0.4223413599156132  1.0000
  Cd  Cd5       1.0  0.37800821711687854  0.8480733170718935  0.9370092147204546  1.0000
  Cd  Cd6       1.0  0.6219925942312372  0.6849827991016468  0.5299362908617059  1.0000
  Cd  Cd7       1.0  0.21491945406985016  0.5299367386388383  0.8480721234877395  1.0000
  Cd  Cd8       1.0  0.7850794460664688  0.937010169789204  0.6849823499188051  1.0000
  Cd  Cd9       1.0  0.20653424341256965  0.8769858781937999  0.8649960177174665  1.0000
  Cd  Cd10      1.0  0.7934664782102414  0.9284704839032257  0.3295458910868662  1.0000
  Cd  Cd11      1.0  0.25802120501020914  0.32954889379906405  0.8769858336938655  1.0000
  Cd  Cd12      1.0  0.7419809990155387  0.8649960990809975  0.9284701914490515  1.0000
  Cd  Cd13      1.0  0.2584708658209748  0.12299249730111224  0.6701550747386167  1.0000
  Cd  Cd14      1.0  0.7415306955179517  0.07137589038570274  0.13547649476507928  1.0000
  Cd  Cd15      1.0  0.2068549792143912  0.13547777972041786  0.12299192201813011  1.0000
  Cd  Cd16      1.0  0.7931456137412096  0.6701549486507188  0.07137812230309508  1.0000
  Cd  Cd17      1.0  0.21471775708992163  0.15123483900949708  0.47038091678569327  1.0000
  Cd  Cd18      1.0  0.7852827447624476  0.31490188781616263  0.06348203247574  1.0000
  Cd  Cd19      1.0  0.37838421923632376  0.06348259028450805  0.15123448167344836  1.0000
  Cd  Cd20      1.0  0.6216151698389255  0.470380233707573  0.31490264635750986  1.0000
  Cd  Cd21      1.0  0.12404260406256634  0.21560078669277516  0.29890342166981293  1.0000
  Cd  Cd22      1.0  0.8759565743683665  0.5770544778711226  0.9084421318938352  1.0000
  Cd  Cd23      1.0  0.4854941764665455  0.9084435430307992  0.21559983856933246  1.0000
  Cd  Cd24      1.0  0.5145081219083635  0.29890520302286205  0.577052063329326  1.0000
  H   H1        1.0  0.42999081790797067  0.47887671583122676  0.34677866046498457  1.0000
  H   H2        1.0  0.5700101005693908  0.2232284120768283  0.9511124571253335  1.0000
  H   H3        1.0  0.17434657748431445  0.9511147961463138  0.47887650379596663  1.0000
  H   H4        1.0  0.8256489687093449  0.3467741890545782  0.22323375674270096  1.0000
  H   H5        1.0  0.38521329036208846  0.5107155835610655  0.267412815642132  1.0000
  H   H6        1.0  0.6147886774110772  0.347372767808821  0.8744974806853635  1.0000
  H   H7        1.0  0.22187459878723811  0.8744998784040874  0.5107146469466886  1.0000
  H   H8        1.0  0.7781213152519088  0.26740590483200327  0.3473769664424681  1.0000
  H   H9        1.0  0.41222535395499454  0.5795710229476186  0.30738913481254576  1.0000
  H   H10       1.0  0.5877746712315287  0.2803858591032054  0.832653401062146  1.0000
  H   H11       1.0  0.11304295839040175  0.8326559180046046  0.579572652687226  1.0000
  H   H12       1.0  0.8869536467174086  0.30738357131978944  0.2803887521354867  1.0000
  H   H13       1.0  0.4973217512260034  0.9155561511520034  0.7182254509290832  1.0000
  H   H14       1.0  0.5026766153034288  0.7844547711307898  0.5817602608784753  1.0000
  H   H15       1.0  0.3662196021030297  0.5817672502692588  0.9155577904362249  1.0000
  H   H16       1.0  0.6337787368408953  0.7182218471017875  0.7844521360924265  1.0000
  H   H17       1.0  0.5535989145114469  0.8576192202248761  0.6934737362010213  1.0000
  H   H18       1.0  0.44639905773496474  0.7529296083888042  0.6959748821304503  1.0000
  H   H19       1.0  0.4489083522684892  0.6959809661610162  0.8576202959530905  1.0000
  H   H20       1.0  0.5510902336506547  0.6934700776751157  0.7529263062094034  1.0000
  H   H21       1.0  0.6100026097472405  0.9769488551416641  0.644476624559282  1.0000
  H   H22       1.0  0.3899953127218155  0.7455198738435059  0.6330498950142529  1.0000
  H   H23       1.0  0.3785750894948589  0.6330550912990558  0.9769490878918107  1.0000
  H   H24       1.0  0.6214257221158235  0.6444775310690432  0.7455167155264351  1.0000
  H   H25       1.0  0.3466087575796095  0.10118896429277409  0.9613964211685444  1.0000
  H   H26       1.0  0.6533922335539444  0.691993660590022  0.2454226022345908  1.0000
  H   H27       1.0  0.937414290139614  0.24542104645187382  0.10118523339114202  1.0000
  H   H28       1.0  0.06258486266713718  0.961403193402795  0.6919915105227903  1.0000
  H   H29       1.0  0.3143186221677396  0.01912638511091564  0.936632482321066  1.0000
  H   H30       1.0  0.6856826524016242  0.7490473090032311  0.2951961896153821  1.0000
  H   H31       1.0  0.04424150499151121  0.2951956979487989  0.01912059914285187  1.0000
  H   H32       1.0  0.9557576995444279  0.9366405995311099  0.7490439583473502  1.0000
  H   H33       1.0  0.41588538132271663  0.11930421923158  0.8590482607097202  1.0000
  H   H34       1.0  0.5841154288767711  0.7250636048337427  0.29658734603358305  1.0000
  H   H35       1.0  0.021649086331500204  0.2965857273892212  0.11929805605404209  1.0000
  H   H36       1.0  0.9783499334880403  0.8590557904561464  0.7250619114527771  1.0000
  H   H37       1.0  0.14355386889908311  0.27636163520068635  0.773497196488279  1.0000
  H   H38       1.0  0.8564493145277935  0.08295348421914643  0.8671895998436909  1.0000
  H   H39       1.0  0.9501438864070837  0.8671847132466369  0.27636314175969573  1.0000
  H   H40       1.0  0.04985749045442842  0.7734898143259628  0.08295975382878155  1.0000
  H   H41       1.0  0.1267878559811066  0.16112893972272962  0.8526496165386774  1.0000
  H   H42       1.0  0.8732147250586166  0.02056592746367874  0.9656566673170419  1.0000
  H   H43       1.0  0.9862247697862543  0.9656525983128361  0.16112960991426228  1.0000
  H   H44       1.0  0.013778852082097639  0.8526445221237466  0.020572876114094776  1.0000
  H   H45       1.0  0.13934703409064741  0.20005616371184934  0.7383437669892814  1.0000
  H   H46       1.0  0.8606549428618209  0.12231170040686844  0.9392901517976926  1.0000
  H   H47       1.0  0.06160421142745779  0.9392856237642064  0.20005667914950476  1.0000
  H   H48       1.0  0.9383976536849731  0.7383375341516398  0.1223191494989068  1.0000
  H   H49       1.0  0.37753761946482456  0.1026390794100465  0.4073295790737816  1.0000
  H   H50       1.0  0.6224627190660358  0.2151367932858294  0.27489327379434764  1.0000
  H   H51       1.0  0.4900251295237013  0.27489103749019256  0.10264602062084544  1.0000
  H   H52       1.0  0.5099734447269454  0.40732956777912926  0.2151368014260415  1.0000
  H   H53       1.0  0.4483647234040545  0.1297198610370812  0.29979206557828075  1.0000
  H   H54       1.0  0.5516357931452447  0.2518470294625459  0.31863965579277237  1.0000
  H   H55       1.0  0.5704822242361017  0.31863981944788117  0.12972533121058677  1.0000
  H   H56       1.0  0.42951549432201824  0.29979397550836495  0.25184530427338825  1.0000
  H   H57       1.0  0.36607007894266996  0.015450731436494992  0.3860849235590749  1.0000
  H   H58       1.0  0.6339281315667691  0.24784685410466514  0.3506164680882122  1.0000
  H   H59       1.0  0.5984576864076273  0.3506139118260451  0.015456545875089624  1.0000
  H   H60       1.0  0.4015393160505666  0.38608616544205177  0.24784631188999398  1.0000
  H   H61       1.0  0.22855054890516158  0.49795083313711075  0.1148748285074533  1.0000
  H   H62       1.0  0.7714433803199083  0.6565730790852767  0.7306045133898426  1.0000
  H   H63       1.0  0.3871741282267323  0.7305993016160457  0.4979514681931506  1.0000
  H   H64       1.0  0.6128275477931028  0.1148728307960312  0.6565709206199559  1.0000
  H   H65       1.0  0.11897638856078874  0.42156102617089886  0.17078214380606493  1.0000
  H   H66       1.0  0.8810196169469435  0.7102401010940014  0.6974156939283634  1.0000
  H   H67       1.0  0.4076541395052189  0.6974136275243197  0.4215634436109001  1.0000
  H   H68       1.0  0.5923467899205335  0.1707812250055269  0.7102365469180258  1.0000
  H   H69       1.0  0.16902503340393327  0.5180116416935759  0.05054348290871516  1.0000
  H   H70       1.0  0.83096958913638  0.7804298839305018  0.6510164366624951  1.0000
  H   H71       1.0  0.4314431973953178  0.651011656804222  0.5180136676335395  1.0000
  H   H72       1.0  0.5685554183609369  0.05054119293031789  0.7804284061482321  1.0000
  C   C1        1.0  0.518388403955818  0.5960900860907756  0.20781966437869678  1.0000
  C   C2        1.0  0.4816128968101837  0.27379135483990796  0.9222991447578156  1.0000
  C   C3        1.0  0.19609662166129022  0.9223008009158988  0.5960877623761578  1.0000
  C   C4        1.0  0.8039034955136373  0.20781682526018838  0.27379211279838245  1.0000
  C   C5        1.0  0.4317184499965022  0.537681727362731  0.28697633305245074  1.0000
  C   C6        1.0  0.5682828869515574  0.281304711766424  0.8940359228696837  1.0000
  C   C7        1.0  0.17534599948653812  0.8940393172241912  0.537680954752375  1.0000
  C   C8        1.0  0.8246510654717055  0.2869709917942203  0.2813080811026012  1.0000
  C   C9        1.0  0.5720387667570606  0.8855357788620638  0.7895854732377715  1.0000
  C   C10       1.0  0.42796056866252025  0.6383765713695553  0.68650033453185  1.0000
  C   C11       1.0  0.3248802311047497  0.6865052767773817  0.8855359099565594  1.0000
  C   C12       1.0  0.6751195181077136  0.789585469295524  0.6383750877849013  1.0000
  C   C13       1.0  0.5569073460823829  0.9104179681087956  0.7069282010652532  1.0000
  C   C14       1.0  0.4430911952376347  0.7361652735406777  0.6464848192124893  1.0000
  C   C15       1.0  0.3826551784304257  0.6464901304625812  0.9104195311007716  1.0000
  C   C16       1.0  0.6173441458698079  0.7069257141117261  0.7361642849695046  1.0000
  C   C17       1.0  0.40627851968930867  0.012593044309269899  0.9870092439563224  1.0000
  C   C18       1.0  0.5937233231404093  0.6067103347686499  0.3936886589389557  1.0000
  C   C19       1.0  0.0003976898167863337  0.39368821762244016  0.012587664943041074  1.0000
  C   C20       1.0  0.9996021005005101  0.9870167577762242  0.6067081446914033  1.0000
  C   C21       1.0  0.3688535726783185  0.06635590309269894  0.9327025058907525  1.0000
  C   C22       1.0  0.631146149864719  0.698441010353349  0.3025022796138546  1.0000
  C   C23       1.0  0.000941808701689716  0.3025014409756679  0.06634993670267164  1.0000
  C   C24       1.0  0.9990567282200258  0.9327101151005194  0.6984391877041961  1.0000
  C   C25       1.0  0.2530999609298449  0.25476178493843804  0.7451127545102807  1.0000
  C   C26       1.0  0.7469023614513831  0.0017908668527581305  0.9983358111006311  1.0000
  C   C27       1.0  0.00012672430696629043  0.9983328716379134  0.25476169880982313  1.0000
  C   C28       1.0  0.9998721489513117  0.7451084352639653  0.0017954641066354746  1.0000
  C   C29       1.0  0.16034473428155838  0.22134041466633642  0.7788699206950656  1.0000
  C   C30       1.0  0.8396571729887011  0.06078845937551558  0.9390034589094611  1.0000
  C   C31       1.0  0.9997929689226763  0.9390000079978832  0.22134124317475587  1.0000
  C   C32       1.0  0.00020889673475464601  0.7788641647203178  0.060792835347563155  1.0000
  C   C33       1.0  0.324958068469769  0.11427458016748922  0.31386305646174156  1.0000
  C   C34       1.0  0.6750415142854537  0.3611821899831043  0.21067975870167996  1.0000
  C   C35       1.0  0.571859564050378  0.2106796252933022  0.11427829043679348  1.0000
  C   C36       1.0  0.4281388567182632  0.31386126719102964  0.3611819899701344  1.0000
  C   C37       1.0  0.3824508042152742  0.08941894330514792  0.35439478396700264  1.0000
  C   C38       1.0  0.6175483966420147  0.2631577740325283  0.29302819803587  1.0000
  C   C39       1.0  0.5561824415552011  0.2930267593764314  0.08942362411367814  1.0000
  C   C40       1.0  0.4438145833942428  0.3543931054610567  0.2631584234653772  1.0000
  C   C41       1.0  0.19620295003637983  0.40433559908229466  0.07727393543902397  1.0000
  C   C42       1.0  0.803795674769262  0.7265238371068108  0.7918690858399062  1.0000
  C   C43       1.0  0.5183898499269403  0.7918655217915713  0.4043359954849567  1.0000
  C   C44       1.0  0.4816110963539941  0.07727505339182275  0.726519312250204  1.0000
  C   C45       1.0  0.1771650537819056  0.4640030981022818  0.10459443588388251  1.0000
  C   C46       1.0  0.822829230997698  0.7182390816740282  0.7131656797621916  1.0000
  C   C47       1.0  0.4314009499862124  0.7131613047456113  0.4640049740702637  1.0000
  C   C48       1.0  0.5685996461504245  0.10459323146725544  0.718235981600273  1.0000
  N   N1        1.0  0.5451223944187191  0.6810102475584117  0.12942786547692023  1.0000
  N   N2        1.0  0.45487831219055835  0.3254493976480857  0.864113601815376  1.0000
  N   N3        1.0  0.18956478328275503  0.8641158920783668  0.6810083497869076  1.0000
  N   N4        1.0  0.8104347740071773  0.1294251669393773  0.3254483841287695  1.0000
  N   N5        1.0  0.6267832921919235  0.7103280622914383  0.0762632275585348  1.0000
  N   N6        1.0  0.3732181882488634  0.2969552256270874  0.916455714488258  1.0000
  N   N7        1.0  0.2134124885209231  0.9164565496014276  0.7103274831040595  1.0000
  N   N8        1.0  0.7865883267208531  0.07625940912355124  0.296954051304958  1.0000
  N   N9        1.0  0.6490220965887944  0.6460566040476438  0.11990002519048205  1.0000
  N   N10       1.0  0.3509797845046734  0.23107976997531665  0.0029665052225241553  1.0000
  N   N11       1.0  0.23404747754930358  0.0029675516043781336  0.6460552810055803  1.0000
  N   N12       1.0  0.7659528992331914  0.11989729446625587  0.2310780032312252  1.0000
  N   N13       1.0  0.5830384584166095  0.5736034778295077  0.20251542098099426  1.0000
  N   N14       1.0  0.41696404245547564  0.21444800585778265  0.009435232962538011  1.0000
  N   N15       1.0  0.22388454839538952  0.00943718743778997  0.5736020746498623  1.0000
  N   N16       1.0  0.7761149200980597  0.20251295824787965  0.21444696528064364  1.0000
  N   N17       1.0  0.5177748053877097  0.8643583438356331  0.8704020174617925  1.0000
  N   N18       1.0  0.4822260801557476  0.6118249690511561  0.6534152191857603  1.0000
  N   N19       1.0  0.26524178757918554  0.653417937747527  0.8643574683886898  1.0000
  N   N20       1.0  0.7347576813428986  0.8704017199632048  0.6118222142202544  1.0000
  N   N21       1.0  0.556585047022267  0.8473830161900578  0.9252676639873986  1.0000
  N   N22       1.0  0.44341639747924677  0.5181476636661982  0.7092025442855816  1.0000
  N   N23       1.0  0.22735050362954465  0.7092037385768251  0.8473823690475656  1.0000
  N   N24       1.0  0.772649713789171  0.9252677659384146  0.5181459577900117  1.0000
  N   N25       1.0  0.630968767837885  0.8574465367127216  0.8802374240493552  1.0000
  N   N26       1.0  0.36903179110109346  0.4887943434965577  0.7735225898736219  1.0000
  N   N27       1.0  0.26231642255453375  0.7735230268974433  0.8574473061717642  1.0000
  N   N28       1.0  0.737683448214412  0.8802377424527351  0.4887926033790251  1.0000
  N   N29       1.0  0.6428327788077438  0.8812833910666243  0.7950643511856728  1.0000
  N   N30       1.0  0.3571677289163874  0.5621041336159183  0.7615459634211134  1.0000
  N   N31       1.0  0.3236525266403375  0.7615503250845777  0.8812845972785373  1.0000
  N   N32       1.0  0.6763465896672471  0.7950650884977007  0.562100633068667  1.0000
  N   N33       1.0  0.42609755328091864  0.9490361588964621  0.980970906218339  1.0000
  N   N34       1.0  0.5739041844002699  0.5929286673708917  0.477065083549313  1.0000
  N   N35       1.0  0.0699928945288305  0.4770641977672127  0.9490317756312693  1.0000
  N   N36       1.0  0.9300059477339104  0.9809762656964978  0.5929277002335314  1.0000
  N   N37       1.0  0.45806012163358617  0.9174875483421656  0.040991388949457794  1.0000
  N   N38       1.0  0.5419416998584764  0.5009458020363056  0.5405760836662737  1.0000
  N   N39       1.0  0.04152105256716253  0.5405762468574268  0.9174855919138312  1.0000
  N   N40       1.0  0.9584780257257464  0.040995231940407065  0.5009441493811977  1.0000
  N   N41       1.0  0.45831783559037836  0.9593752830855634  0.08204234495084997  1.0000
  N   N42       1.0  0.5416837279136787  0.4596370978484644  0.49894597511635674  1.0000
  N   N43       1.0  0.9585823077473277  0.4989456492129704  0.9593739662653108  1.0000
  N   N44       1.0  0.0414164891339226  0.08204695706900374  0.4596361881353346  1.0000
  N   N45       1.0  0.4265109096352333  0.019498561984896433  0.04993174578527257  1.0000
  N   N46       1.0  0.5734918984130886  0.5235560361684932  0.4070140762398112  1.0000
  N   N47       1.0  0.9305680383132041  0.4070141771845854  0.019496165162422658  1.0000
  N   N48       1.0  0.0694312478291579  0.04993856210045779  0.5235531765540459  1.0000
  N   N49       1.0  0.302273882547503  0.23771497748221285  0.6928466090769947  1.0000
  N   N50       1.0  0.6977278527256771  0.004882499177220576  0.06455605452086388  1.0000
  N   N51       1.0  0.06943860696262763  0.06455160704311422  0.23771667204999153  1.0000
  N   N52       1.0  0.9305622581492443  0.69284480204378  0.00488633495236728  1.0000
  N   N53       1.0  0.38141336169931617  0.2790462440267448  0.6792194658690109  1.0000
  N   N54       1.0  0.6185887193718784  0.9393708842740764  0.10236368074914287  1.0000
  N   N55       1.0  0.04173405469101254  0.10235973232194343  0.2790486012231881  1.0000
  N   N56       1.0  0.9582650283612748  0.6792184622767646  0.9393731934861196  1.0000
  N   N57       1.0  0.38139529753326684  0.32028957948525527  0.7210642265690338  1.0000
  N   N58       1.0  0.6186064869877157  0.8975437759572955  0.061102779020842546  1.0000
  N   N59       1.0  0.9586461545433805  0.061099275965020086  0.320289890476282  1.0000
  N   N60       1.0  0.04135358563496544  0.7210637504546754  0.8975455796620652  1.0000
  N   N61       1.0  0.30228987796491674  0.3064883228423056  0.7626693471295598  1.0000
  N   N62       1.0  0.6977126879957469  0.9350436175953336  0.9957988748588777  1.0000
  N   N63       1.0  0.9308429783726382  0.9957946449701967  0.3064886485716232  1.0000
  N   N64       1.0  0.06915703711688084  0.7626674460576625  0.9350477620524489  1.0000
  N   N65       1.0  0.264859762828209  0.13483417916368975  0.3471911661719247  1.0000
  N   N66       1.0  0.7351413523118993  0.38795269849133274  0.13002248601047475  1.0000
  N   N67       1.0  0.5179738532608269  0.1300227367206688  0.13483607641044426  1.0000
  N   N68       1.0  0.4820258063734855  0.34719081966619575  0.3879528557530351  1.0000
  N   N69       1.0  0.22698092895854668  0.151641476176394  0.2914297479712431  1.0000
  N   N70       1.0  0.7730199211270375  0.48159313443451884  0.07533689976350637  1.0000
  N   N71       1.0  0.5569306345771068  0.07533877056648926  0.15164028226698179  1.0000
  N   N72       1.0  0.4430709205210732  0.29142798612021187  0.48159330249032456  1.0000
  N   N73       1.0  0.26237232459968846  0.14208987803965553  0.22684951464804476  1.0000
  N   N74       1.0  0.7376273519469763  0.5107807436949159  0.12028099224189509  1.0000
  N   N75       1.0  0.631061409217736  0.12028320224155928  0.14208788198539682  1.0000
  N   N76       1.0  0.36893946645984227  0.22684778389979945  0.5107807734110353  1.0000
  N   N77       1.0  0.3240448840471331  0.11880475003101763  0.23858979245979137  1.0000
  N   N78       1.0  0.6759550959806049  0.43736825468095486  0.20523760332750393  1.0000
  N   N79       1.0  0.6426046149443676  0.20523906976374204  0.11880562820496025  1.0000
  N   N80       1.0  0.35739599487332896  0.2385888728811878  0.43736764040274784  1.0000
  N   N81       1.0  0.18959073507349436  0.3194196784468275  0.13569458682418675  1.0000
  N   N82       1.0  0.8104081738258485  0.6747153742290449  0.8701721183266359  1.0000
  N   N83       1.0  0.5448845459191317  0.8701697848439734  0.3194203687250979  1.0000
  N   N84       1.0  0.4551158277576662  0.13569558313201924  0.6747111343623974  1.0000
  N   N85       1.0  0.21231529376883876  0.2893676496419957  0.08373705432887141  1.0000
  N   N86       1.0  0.787685069972916  0.7039494790486742  0.9229473348077876  1.0000
  N   N87       1.0  0.6268942889096182  0.92294539686133  0.2893685479238428  1.0000
  N   N88       1.0  0.3731049621615554  0.08373752898888397  0.7039476089709426  1.0000
  N   N89       1.0  0.2322628076496331  0.353114046753767  0.997332150810827  1.0000
  N   N90       1.0  0.767738191164362  0.7704075643326859  0.8791489784567051  1.0000
  N   N91       1.0  0.6495537894375049  0.879147448021925  0.35311303427381124  1.0000
  N   N92       1.0  0.350445898450836  0.9973335453781685  0.7704050935082808  1.0000
  N   N93       1.0  0.22279853695359725  0.42594828091127823  0.990471751710267  1.0000
  N   N94       1.0  0.7772015942751977  0.7867319544822281  0.7968498937530202  1.0000
  N   N95       1.0  0.5835794747314152  0.7968481238490951  0.4259474457164533  1.0000
  N   N96       1.0  0.41642037571914886  0.9904721450173711  0.7867288638585637  1.0000
  Cl  Cl1       1.0  0.35519693023871923  0.6962021918007792  0.08697602901312974  1.0000
  Cl  Cl2       1.0  0.6448051326764599  0.5578293002264373  0.6589961680369498  1.0000
  Cl  Cl3       1.0  0.216822248266844  0.658994736323983  0.6962020886801384  1.0000
  Cl  Cl4       1.0  0.7831745915125905  0.08697590491922814  0.5578270307248802  1.0000
  Cl  Cl5       1.0  0.22793981113763814  0.83013394033037  0.011063000549065073  1.0000
  Cl  Cl6       1.0  0.7720602093978781  0.7609960970022839  0.3978090456416014  1.0000
  Cl  Cl7       1.0  0.15880812303008443  0.39780956504630893  0.8301303593929037  1.0000
  Cl  Cl8       1.0  0.8411926465327609  0.011064419074280322  0.7609958925935773  1.0000
  Cl  Cl9       1.0  0.15612442638253293  0.0007057536495977647  0.844796736917104  1.0000
  Cl  Cl10      1.0  0.8438748939418375  0.9990781243043971  0.15541670749354364  1.0000
  Cl  Cl11      1.0  0.1544989534096644  0.1554199671512677  0.0007061084842235255  1.0000
  Cl  Cl12      1.0  0.8455049939894507  0.8447977707033587  0.9990746110295917  1.0000
  Cl  Cl13      1.0  0.15762826440239752  0.16710206420809467  0.6034964952246967  1.0000
  Cl  Cl14      1.0  0.8423741556763173  0.23887782609745048  0.9905230539051857  1.0000
  Cl  Cl15      1.0  0.22940271042931223  0.9905245392744604  0.16710186801940108  1.0000
  Cl  Cl16      1.0  0.7705967669774978  0.6034944186198034  0.23888002279714027  1.0000
  Cl  Cl17      1.0  0.2173507438878843  0.3032521963038235  0.3412690034897069  1.0000
  Cl  Cl18      1.0  0.7826522149521938  0.4413817331333621  0.9140954929727414  1.0000
  Cl  Cl19      1.0  0.3554782675743555  0.914098782681265  0.303253493237435  1.0000
  Cl  Cl20      1.0  0.644524232610543  0.3412690006882926  0.4413802971321133  1.0000
  Cl  Cl21      1.0  0.00047703261220279167  0.2598196154129297  0.31700283391689515  1.0000
  Cl  Cl22      1.0  0.9995208258009002  0.6825176127878693  0.74065919505324  1.0000
  Cl  Cl23      1.0  0.4231739325751035  0.7406608233669373  0.25982001835547675  1.0000
  Cl  Cl24      1.0  0.5768275819688639  0.3170059483884772  0.6825157192638688  1.0000
