data_image0
_chemical_formula_structural       Ag4H40C32N12O12
_chemical_formula_sum              "Ag4 H40 C32 N12 O12"
_cell_length_a       5.011659465341463
_cell_length_b       13.58504319347112
_cell_length_c       14.036831116099124
_cell_angle_alpha    90.00047754327646
_cell_angle_beta     89.99916424720114
_cell_angle_gamma    89.99836492083578

_space_group_name_H-M_alt    "P 1"
_space_group_IT_number       1

loop_
  _space_group_symop_operation_xyz
  'x, y, z'

loop_
  _atom_site_type_symbol
  _atom_site_label
  _atom_site_symmetry_multiplicity
  _atom_site_fract_x
  _atom_site_fract_y
  _atom_site_fract_z
  _atom_site_occupancy
  Ag  Ag1       1.0  0.7017816425582949  0.2517991489476827  0.8827993793343154  1.0000
  Ag  Ag2       1.0  0.20175223419671784  0.248178852289108  0.1171881932643331  1.0000
  Ag  Ag3       1.0  0.29823164400519886  0.751818059706423  0.6172038806256026  1.0000
  Ag  Ag4       1.0  0.7982457133511003  0.748199441859363  0.38279515069381626  1.0000
  H   H1        1.0  0.24734982600237027  0.13372310599565648  0.7486946064169826  1.0000
  H   H2        1.0  0.747335496100561  0.3662799971985322  0.2512985952803035  1.0000
  H   H3        1.0  0.7526611048004169  0.6337196603558651  0.7513078023606852  1.0000
  H   H4        1.0  0.2526448541109829  0.8662889338477909  0.2486912992747747  1.0000
  H   H5        1.0  0.5800965100145845  0.8635465213171829  0.8411388488017764  1.0000
  H   H6        1.0  0.08017203805463419  0.6364379197979414  0.1588612314189177  1.0000
  H   H7        1.0  0.41984884738844386  0.3635613285606991  0.6588587667178416  1.0000
  H   H8        1.0  0.9198519358035426  0.1364548865279218  0.34114912939118364  1.0000
  H   H9        1.0  0.0140851183312805  0.08562776935062291  0.9480336192576572  1.0000
  H   H10       1.0  0.5140760868442058  0.4143375855224534  0.051946406480063  1.0000
  H   H11       1.0  0.9859403750388576  0.5856651368285666  0.5519539047173936  1.0000
  H   H12       1.0  0.48591364468060044  0.9143591221972613  0.44804412448281267  1.0000
  H   H13       1.0  0.018425815301526396  0.9551184957982314  0.94698927781986  1.0000
  H   H14       1.0  0.5184424885613765  0.5448442822876699  0.0529966492796703  1.0000
  H   H15       1.0  0.9815739004330836  0.4551577071926332  0.5529974393303547  1.0000
  H   H16       1.0  0.4815371039503019  0.04486618476970958  0.4470032374543464  1.0000
  H   H17       1.0  0.9582344941054044  0.017938299006814894  0.1043961612523319  1.0000
  H   H18       1.0  0.4582133226756112  0.48203698955153823  0.8955874533536486  1.0000
  H   H19       1.0  0.041805054261175194  0.5179710867884778  0.39559268307213813  1.0000
  H   H20       1.0  0.5417603587505581  0.9820564884584327  0.6044081690526256  1.0000
  H   H21       1.0  0.3852987011203338  0.7665122566969913  0.1135489231850784  1.0000
  H   H22       1.0  0.8852726855933708  0.7334687144523355  0.8864741955008952  1.0000
  H   H23       1.0  0.6147344614800544  0.2665379851442608  0.3864667220507201  1.0000
  H   H24       1.0  0.11470338941494869  0.2334824354293517  0.6135359458547569  1.0000
  H   H25       1.0  0.6318737630469684  0.7434987500723552  0.20347984700605792  1.0000
  H   H26       1.0  0.1318355717735429  0.7564936741875312  0.7965422381784675  1.0000
  H   H27       1.0  0.36817972228566015  0.24351336031795506  0.29653549341808366  1.0000
  H   H28       1.0  0.8681301575238506  0.25650370413235624  0.7034682080347495  1.0000
  H   H29       1.0  0.6673930658350216  0.6900407074717093  0.08815714065596582  1.0000
  H   H30       1.0  0.1673406472424475  0.8099410583083967  0.9118698765149702  1.0000
  H   H31       1.0  0.33267061076743687  0.19006265176104617  0.4118603416157285  1.0000
  H   H32       1.0  0.8326168856714345  0.3099562379011402  0.5881427022597023  1.0000
  H   H33       1.0  0.4311845842398654  0.9289982885386079  0.081108168327134  1.0000
  H   H34       1.0  0.9311747637295296  0.570990108283226  0.9188970692694125  1.0000
  H   H35       1.0  0.5688341170736776  0.4290115386607382  0.4188946676768239  1.0000
  H   H36       1.0  0.06880779151237698  0.07099409529978119  0.5811087833993511  1.0000
  H   H37       1.0  0.24070086320194403  0.948098210088396  0.7285914759487325  1.0000
  H   H38       1.0  0.7407467305482952  0.5519041250473009  0.271409781296029  1.0000
  H   H39       1.0  0.7592664290617461  0.44809485821937756  0.7714093962190915  1.0000
  H   H40       1.0  0.2592652856724911  0.051913768141403686  0.2285937608688684  1.0000
  C   C1        1.0  0.6209390263366288  0.1096656346538367  0.08294774325656108  1.0000
  C   C2        1.0  0.12092983576423676  0.3903148456783612  0.9170435162049131  1.0000
  C   C3        1.0  0.37910101521875106  0.6096874078708723  0.4170444527928652  1.0000
  C   C4        1.0  0.8790473428613054  0.8903298228208884  0.5829523164967442  1.0000
  C   C5        1.0  0.3717026821958527  0.08264081796433229  0.7876238990067322  1.0000
  C   C6        1.0  0.8717026513144713  0.41735184624074856  0.21236839822348938  1.0000
  C   C7        1.0  0.6283006498585734  0.5826484271324117  0.712376408645241  1.0000
  C   C8        1.0  0.12828529749064188  0.9173669255431631  0.2876243098444178  1.0000
  C   C9        1.0  0.6778991880783278  0.019814971896458592  0.8808743508479182  1.0000
  C   C10       1.0  0.17790598671398067  0.4801630251501903  0.1191175330614271  1.0000
  C   C11       1.0  0.32210369723016896  0.5198375729070291  0.6191222753791692  1.0000
  C   C12       1.0  0.8220764224590766  0.9801836137759637  0.3808795687890126  1.0000
  C   C13       1.0  0.5511689372043875  0.9424425471959665  0.8360342526079378  1.0000
  C   C14       1.0  0.051214592460652894  0.5575383649441292  0.16396302262469217  1.0000
  C   C15       1.0  0.448803942420845  0.4424608992060968  0.6639644075779784  1.0000
  C   C16       1.0  0.9487918361597634  0.057559580798319084  0.33603988181273076  1.0000
  C   C17       1.0  0.8889703926200097  0.01959617152291321  0.9551965168811947  1.0000
  C   C18       1.0  0.388990360596999  0.4803709352541146  0.0447921914490337  1.0000
  C   C19       1.0  0.11102848703860957  0.519629433214334  0.5447965444648872  1.0000
  C   C20       1.0  0.6110040354013646  0.9803938103675875  0.4552056255717432  1.0000
  C   C21       1.0  0.7803548539417234  0.0170782427118041  0.0586936699033842  1.0000
  C   C22       1.0  0.2803445296901756  0.48289882064444356  0.9412959186078635  1.0000
  C   C23       1.0  0.21967864734050113  0.5171049800993686  0.4412973002321934  1.0000
  C   C24       1.0  0.7196292125711565  0.9829149316121712  0.5586975779529411  1.0000
  C   C25       1.0  0.7653656904181928  0.8421395812358412  0.09671698384156  1.0000
  C   C26       1.0  0.2653490166106706  0.6578435958301226  0.9032970586542959  1.0000
  C   C27       1.0  0.2346608425412597  0.34216156001312464  0.4032939634656074  1.0000
  C   C28       1.0  0.7346356836855675  0.15785812680957179  0.5967106565231292  1.0000
  C   C29       1.0  0.5986822712459982  0.7554586163497774  0.12648037895854  1.0000
  C   C30       1.0  0.09864585721641109  0.744528200914182  0.8735410450168642  1.0000
  C   C31       1.0  0.4013620824087809  0.2554768630918929  0.3735329826230682  1.0000
  C   C32       1.0  0.90132301750603  0.2445377113025913  0.6264692427553769  1.0000
  N   N1        1.0  0.6344046901822294  0.927446407978614  0.0797244980422604  1.0000
  N   N2        1.0  0.13439477545449557  0.57253563273796  0.9202740735647481  1.0000
  N   N3        1.0  0.36561789269475037  0.427467367161931  0.4202719057577013  1.0000
  N   N4        1.0  0.8655878894187623  0.07254756723968817  0.5797268127403257  1.0000
  N   N5        1.0  0.35860545874787414  0.9837562840856433  0.7780757242490423  1.0000
  N   N6        1.0  0.8586422741893215  0.5162350740778833  0.2219232136748985  1.0000
  N   N7        1.0  0.6413663482372697  0.4837652287003209  0.721924907734568  1.0000
  N   N8        1.0  0.14136123656025748  0.0162506941722285  0.2780784314184075  1.0000
  N   N9        1.0  0.563208833522772  0.10704790944716078  0.8490060005756204  1.0000
  N   N10       1.0  0.0631853034817595  0.39294023048733356  0.15098463565975348  1.0000
  N   N11       1.0  0.436818171734032  0.6070597299411702  0.6509917806147881  1.0000
  N   N12       1.0  0.9367909440945323  0.8929542579877321  0.3490077491754633  1.0000
  O   O1        1.0  0.3825812950790277  0.09884125687188573  0.1165644173349065  1.0000
  O   O2        1.0  0.8825892837216143  0.401138559808956  0.883429287832719  1.0000
  O   O3        1.0  0.6174320421450614  0.5988622413566772  0.38343190987311  1.0000
  O   O4        1.0  0.11740262679729338  0.9011505004521181  0.6165674005660122  1.0000
  O   O5        1.0  0.7269871653382437  0.1918727780889995  0.0679982501893335  1.0000
  O   O6        1.0  0.22698509439706527  0.3081059219036461  0.9319942703612085  1.0000
  O   O7        1.0  0.2730367347248688  0.6919007945629686  0.4319971716550555  1.0000
  O   O8        1.0  0.7730062303017248  0.8081196887117628  0.5680018986142983  1.0000
  O   O9        1.0  0.014103568549629098  0.8368813266060682  0.09092562337966109  1.0000
  O   O10       1.0  0.5140849752660868  0.6631007233207525  0.9090888070076062  1.0000
  O   O11       1.0  0.9859205976873966  0.3369060461200632  0.4090859667343167  1.0000
  O   O12       1.0  0.4858941106194762  0.16311918458172403  0.5909154157523844  1.0000
