data_image0
_chemical_formula_structural       Cu2H24C28N20
_chemical_formula_sum              "Cu2 H24 C28 N20"
_cell_length_a       7.199735375238726
_cell_length_b       7.547701154314039
_cell_length_c       14.334225488141833
_cell_angle_alpha    90.00006049996135
_cell_angle_beta     90.0004866473553
_cell_angle_gamma    99.55388479201653

_space_group_name_H-M_alt    "P 1"
_space_group_IT_number       1

loop_
  _space_group_symop_operation_xyz
  'x, y, z'

loop_
  _atom_site_type_symbol
  _atom_site_label
  _atom_site_symmetry_multiplicity
  _atom_site_fract_x
  _atom_site_fract_y
  _atom_site_fract_z
  _atom_site_occupancy
  Cu  Cu1       1.0  0.9999992958477792  0.49999965537350016  0.4999985478097314  1.0000
  Cu  Cu2       1.0  0.4999959103840865  0.4999998746783233  1.8945128914999996e-06  1.0000
  H   H1        1.0  0.9891167367244693  0.8663364858295708  0.4325175065309351  1.0000
  H   H2        1.0  0.5108816482140314  0.13366128332219057  0.9325216829127283  1.0000
  H   H3        1.0  0.0108875033597542  0.1336617127847717  0.5674803186129581  1.0000
  H   H4        1.0  0.4891195880343345  0.8663355495428106  0.0674845137963658  1.0000
  H   H5        1.0  0.07762533436867607  0.39466682353686616  0.304472947612254  1.0000
  H   H6        1.0  0.4223801963770057  0.6053302102773301  0.8044763359025352  1.0000
  H   H7        1.0  0.9223791279472808  0.6053327185679221  0.6955227846394862  1.0000
  H   H8        1.0  0.577622875202188  0.39466932071592  0.19552986081118454  1.0000
  H   H9        1.0  0.08513466832201287  0.5377856929623233  0.14613448549430785  1.0000
  H   H10       1.0  0.4148714880991521  0.4622146189124408  0.646138462506684  1.0000
  H   H11       1.0  0.9148681809135156  0.4622124945097639  0.8538612467536452  1.0000
  H   H12       1.0  0.5851359782205492  0.5377862889877745  0.3538677342167418  1.0000
  H   H13       1.0  0.034774078391585264  0.8559164787767911  0.13202906296628208  1.0000
  H   H14       1.0  0.465228822658439  0.1440823983147155  0.6320330828226729  1.0000
  H   H15       1.0  0.9652213721991671  0.1440789660202171  0.8679673668962025  1.0000
  H   H16       1.0  0.5347786436550379  0.8559185095837946  0.3679724162697581  1.0000
  H   H17       1.0  0.9251323015303187  0.11493663112291588  0.3362824607430355  1.0000
  H   H18       1.0  0.5748680957901087  0.8850580136003285  0.8362866156651945  1.0000
  H   H19       1.0  0.07486453990291145  0.8850588248146349  0.6637153643844016  1.0000
  H   H20       1.0  0.4251345312696486  0.11493883039668158  0.16371748815387116  1.0000
  H   H21       1.0  0.9384909685875513  0.10910354242519556  0.21728547572592294  1.0000
  H   H22       1.0  0.5615095871550864  0.890895905196203  0.7172874841266861  1.0000
  H   H23       1.0  0.061506095077412136  0.890893257002794  0.782710256509361  1.0000
  H   H24       1.0  0.438492315813356  0.10910495814694339  0.2827152244299356  1.0000
  C   C1        1.0  0.332590151016845  0.2967120796181248  0.4547222505517752  1.0000
  C   C2        1.0  0.1674108245061419  0.7032923399674686  0.9547225151567105  1.0000
  C   C3        1.0  0.6674070775707933  0.7032941131416661  0.5452734816863867  1.0000
  C   C4        1.0  0.8325864041125968  0.2967138528008561  0.04527670523643219  1.0000
  C   C5        1.0  0.6253459140615121  0.21154152906738938  0.4356342703756297  1.0000
  C   C6        1.0  0.8746495224970446  0.788454889554906  0.9356347638531446  1.0000
  C   C7        1.0  0.3746445826263098  0.7884659515022959  0.5643614618485769  1.0000
  C   C8        1.0  0.12534564855292268  0.21154726159301154  0.0643658517965306  1.0000
  C   C9        1.0  0.00791301953711347  0.8893130667649984  0.28132414085252583  1.0000
  C   C10       1.0  0.4920865352088555  0.11068380924068318  0.7813275592498738  1.0000
  C   C11       1.0  0.9920875498543751  0.1106797355842986  0.7186701961271352  1.0000
  C   C12       1.0  0.5079141992048053  0.8893183864677212  0.21867793982860206  1.0000
  C   C13       1.0  0.008346582276260462  0.7982679026334267  0.36714110132692906  1.0000
  C   C14       1.0  0.4916503298799739  0.20172935984231793  0.8671466597527909  1.0000
  C   C15       1.0  0.9916553779577127  0.20172491085642008  0.6328546309176841  1.0000
  C   C16       1.0  0.5083471783728299  0.7982701266006912  0.13285883931810355  1.0000
  C   C17       1.0  0.05655292787567836  0.5328544637411026  0.2954030394362235  1.0000
  C   C18       1.0  0.4434484909263432  0.467143835777584  0.7954050476575956  1.0000
  C   C19       1.0  0.9434506454325063  0.4671397043797326  0.7045919951811896  1.0000
  C   C20       1.0  0.5565529675537562  0.5328543405778561  0.20459905615934557  1.0000
  C   C21       1.0  0.059884144729856814  0.6139621633779697  0.20796409222284495  1.0000
  C   C22       1.0  0.44011916370466503  0.3860397610945298  0.7079681355490236  1.0000
  C   C23       1.0  0.9401173136756285  0.3860360129569854  0.7920316400221452  1.0000
  C   C24       1.0  0.5598855209549499  0.6139611245314145  0.2920380611684833  1.0000
  C   C25       1.0  0.03426992025723759  0.7914458386969656  0.20009829606596696  1.0000
  C   C26       1.0  0.46573141262098977  0.208553349162365  0.700102352747592  1.0000
  C   C27       1.0  0.9657294805608246  0.20854829601246647  0.7998967385425714  1.0000
  C   C28       1.0  0.5342716589644142  0.7914461818325901  0.29990454159712227  1.0000
  N   N1        1.0  0.21896311680732347  0.3864713846413322  0.4734422634047845  1.0000
  N   N2        1.0  0.281039303679364  0.6135398440093309  0.9734408696936538  1.0000
  N   N3        1.0  0.7810391733217372  0.6135402155257593  0.5265590498935495  1.0000
  N   N4        1.0  0.7189607066118954  0.3864663710366755  0.0265597459673899  1.0000
  N   N5        1.0  0.4427041040377376  0.18590128620881782  0.43133507320993647  1.0000
  N   N6        1.0  0.0572892781703658  0.8141016197733393  0.9313370223742792  1.0000
  N   N7        1.0  0.5572921781771072  0.8141075823930137  0.5686557756099615  1.0000
  N   N8        1.0  0.9427091190155893  0.18590324063314506  0.06866080275899829  1.0000
  N   N9        1.0  0.02919509594144633  0.62569565048544  0.37287074257007896  1.0000
  N   N10       1.0  0.4708033091824504  0.3743016511591293  0.8728756076174518  1.0000
  N   N11       1.0  0.9708084773667381  0.37429851763539546  0.6271242920473341  1.0000
  N   N12       1.0  0.5291951454058363  0.6256951594316005  0.12713058908572347  1.0000
  N   N13       1.0  0.7904551927108869  0.21860484866333246  0.4345414353254426  1.0000
  N   N14       1.0  0.7095314348781088  0.7813888107964077  0.934541223343295  1.0000
  N   N15       1.0  0.209536028093126  0.7813986125670453  0.5654584826851874  1.0000
  N   N16       1.0  0.29046073228004593  0.21861197458680687  0.06546148519261409  1.0000
  N   N17       1.0  0.9857501486428292  0.06637278758771  0.2789435873094845  1.0000
  N   N18       1.0  0.5142496709688373  0.9336242635810451  0.7789461154985131  1.0000
  N   N19       1.0  0.01424925219388478  0.933621347126838  0.7210535401920382  1.0000
  N   N20       1.0  0.48575295608470287  0.0663725804142601  0.22105729068955773  1.0000
