data_image0
_chemical_formula_structural       Zn4Hg4H56C56N8O16
_chemical_formula_sum              "Zn4 Hg4 H56 C56 N8 O16"
_cell_length_a       8.010194241
_cell_length_b       10.146008604814044
_cell_length_c       21.984
_cell_angle_alpha    90.0
_cell_angle_beta     90.0
_cell_angle_gamma    106.16587347035197

_space_group_name_H-M_alt    "P 1"
_space_group_IT_number       1

loop_
  _space_group_symop_operation_xyz
  'x, y, z'

loop_
  _atom_site_type_symbol
  _atom_site_label
  _atom_site_symmetry_multiplicity
  _atom_site_fract_x
  _atom_site_fract_y
  _atom_site_fract_z
  _atom_site_occupancy
  Zn  Zn1       1.0  0.9747126795128835  0.0494497993544769  0.6637231622998527  1.0000
  Zn  Zn2       1.0  0.5252888906840809  0.4505547025188079  0.1637217976710303  1.0000
  Zn  Zn3       1.0  0.025291845258912867  0.9505530472825185  0.3362777474526908  1.0000
  Zn  Zn4       1.0  0.4747111650797962  0.5494460917483224  0.8362782023289698  1.0000
  Hg  Hg1       1.0  0.1833154146163736  0.722593248618935  0.9196738537117924  1.0000
  Hg  Hg2       1.0  0.31668493616538035  0.7774089689666965  0.4196733988355135  1.0000
  Hg  Hg3       1.0  0.8166799729879911  0.2774013885386282  0.08032660116448652  1.0000
  Hg  Hg4       1.0  0.6833201132352045  0.2225918253004409  0.5803270560407583  1.0000
  H   H1        1.0  0.43597092475282306  0.8261281246517811  0.026966885007276203  1.0000
  H   H2        1.0  0.06402016253591111  0.6738761453037085  0.5269659752547327  1.0000
  H   H3        1.0  0.5640102057218073  0.1738685648756331  0.9730340247452676  1.0000
  H   H4        1.0  0.9359793685991847  0.3261267013332869  0.4730331149927238  1.0000
  H   H5        1.0  0.5669721180708153  0.7194726202501087  0.10905112809315652  1.0000
  H   H6        1.0  0.9330188016577736  0.7805326758903063  0.609050218340613  1.0000
  H   H7        1.0  0.43301456708231  0.2805292002019542  0.890949781659387  1.0000
  H   H8        1.0  0.06697662235959  0.21946914456175648  0.39094887190684363  1.0000
  H   H9        1.0  0.2722831626765086  0.32891074104542634  0.06357077874817921  1.0000
  H   H10       1.0  0.22771696478123002  0.1710917084579933  0.5635712336244509  1.0000
  H   H11       1.0  0.7277209637921018  0.6710838961121297  0.9364305858806434  1.0000
  H   H12       1.0  0.7722859496911952  0.8289101119940696  0.43642967612809264  1.0000
  H   H13       1.0  0.12807545312565344  0.41689378448059944  0.9784520560407586  1.0000
  H   H14       1.0  0.371923064032714  0.0831076388379017  0.47845342066958113  1.0000
  H   H15       1.0  0.8719234805546492  0.5830967479372475  0.0215479439592414  1.0000
  H   H16       1.0  0.6280832337770477  0.9168931554292357  0.5215488537117922  1.0000
  H   H17       1.0  0.1957316287297459  0.0318702253372578  0.8784697962154269  1.0000
  H   H18       1.0  0.3042701090273639  0.4681332503510944  0.3784693413391551  1.0000
  H   H19       1.0  0.8042689516629267  0.9681285165600144  0.12153065866084492  1.0000
  H   H20       1.0  0.6957299467365133  0.531867543916043  0.6215311135371168  1.0000
  H   H21       1.0  0.1251437459137819  0.1340802966268839  0.7839310407569116  1.0000
  H   H22       1.0  0.3748560196537625  0.36592112669161736  0.2839310407569116  1.0000
  H   H23       1.0  0.8748584447782618  0.865919471455328  0.216069868995632  1.0000
  H   H24       1.0  0.6251408155113722  0.634077615205662  0.7160694141193602  1.0000
  H   H25       1.0  0.9391933892965341  0.7533982939999859  0.7018408842794771  1.0000
  H   H26       1.0  0.5608060701447002  0.7466028974007201  0.2018404294032052  1.0000
  H   H27       1.0  0.060808801395509704  0.246601474082226  0.2981586608442512  1.0000
  H   H28       1.0  0.4391948721381596  0.2533968706814846  0.7981600254730739  1.0000
  H   H29       1.0  0.017266995173734815  0.6341422648561803  0.7913541666666646  1.0000
  H   H30       1.0  0.4827365762067615  0.8658620050993021  0.2913537117903929  1.0000
  H   H31       1.0  0.9827343089993192  0.36585852941095  0.20864537845705663  1.0000
  H   H32       1.0  0.5172672247846463  0.1341387891678281  0.708646743085879  1.0000
  H   H33       1.0  0.052057208096698636  0.5339937990887478  0.6669236717612819  1.0000
  H   H34       1.0  0.4479427807948682  0.9660073923119511  0.16692367176128192  1.0000
  H   H35       1.0  0.9479428476671857  0.4660069951783825  0.333074508733624  1.0000
  H   H36       1.0  0.5520565511886275  0.033991349585321  0.8330754184861747  1.0000
  H   H37       1.0  0.26651054650019296  0.5368445408212708  0.6464901746724863  1.0000
  H   H38       1.0  0.23348835672079105  0.9631535720246447  0.1464901746724863  1.0000
  H   H39       1.0  0.7334902330440728  0.4631583058157247  0.3535080058224196  1.0000
  H   H40       1.0  0.7665095277019277  0.0368410651329185  0.8535089155749632  1.0000
  H   H41       1.0  0.19117283246301753  0.4893198643934369  0.7222207059679775  1.0000
  H   H42       1.0  0.3088276568849153  0.0106836112949154  0.22222025109170573  1.0000
  H   H43       1.0  0.8088299192708135  0.5106850346134094  0.2777779294032002  1.0000
  H   H44       1.0  0.6911707885795977  0.9893161567872893  0.777778384279479  1.0000
  H   H45       1.0  0.38906013699385517  0.952990236488688  0.651027565502183  1.0000
  H   H46       1.0  0.11093949000751731  0.5470099287270855  0.15102756550218294  1.0000
  H   H47       1.0  0.6109415290693931  0.0470115839633749  0.3489728893740889  1.0000
  H   H48       1.0  0.8890609276465541  0.4529918917249773  0.8489724344978171  1.0000
  H   H49       1.0  0.3980932564473322  0.8274919244223115  0.7067435407569107  1.0000
  H   H50       1.0  0.10190512214485642  0.672508240793462  0.2067435407569107  1.0000
  H   H51       1.0  0.6019096580250932  0.1725098960297515  0.2932569141193611  1.0000
  H   H52       1.0  0.898093685209844  0.3274925534736681  0.7932564592430824  1.0000
  H   H53       1.0  0.3662093833801023  0.7785808721555156  0.6292453602620114  1.0000
  H   H54       1.0  0.13379149203044696  0.7214192930602578  0.12924536026201142  1.0000
  H   H55       1.0  0.6337931692021356  0.22141992211162176  0.3707550946142675  1.0000
  H   H56       1.0  0.8662101740328012  0.27858252739180495  0.8707550946142676  1.0000
  C   C1        1.0  0.2657820223559852  0.631346937109825  0.9953957423580775  1.0000
  C   C2        1.0  0.23421619349761616  0.8686563066607391  0.4953966521106281  1.0000
  C   C3        1.0  0.7342108684300328  0.3686477000477382  0.0046042576419225  1.0000
  C   C4        1.0  0.7657867209748161  0.1313455137913238  0.5046051673944661  1.0000
  C   C5        1.0  0.3904607381016163  0.7154510015136992  0.0338473435225595  1.0000
  C   C6        1.0  0.10953498093362414  0.7845522422568649  0.5338477983988383  1.0000
  C   C7        1.0  0.6095287693470582  0.28454466182878946  0.9661526564774406  1.0000
  C   C8        1.0  0.8904654367204472  0.21544957819520497  0.46615265647744053  1.0000
  C   C9        1.0  0.46371868348924755  0.6580072215629897  0.0803666302765649  1.0000
  C   C10       1.0  0.03627453872764621  0.8419960222075672  0.5803661754002931  1.0000
  C   C11       1.0  0.5362697747018501  0.3419925465192151  0.9196347343522576  1.0000
  C   C12       1.0  0.963724268627061  0.15800477205956298  0.4196342794759858  1.0000
  C   C13       1.0  0.29971906614412097  0.4385688625491042  0.054460971615718314  1.0000
  C   C14       1.0  0.20027928827565233  0.0614356393241806  0.5544618813682689  1.0000
  C   C15       1.0  0.7002811523583575  0.5614288531632425  0.9455403930130972  1.0000
  C   C16       1.0  0.7997248746059498  0.9385661811278823  0.4455394832605535  1.0000
  C   C17       1.0  0.22120808896641364  0.489804223679883  0.006894104803493  1.0000
  C   C18       1.0  0.2787907900821409  0.010198225823536699  0.5068959243085871  1.0000
  C   C19       1.0  0.7787889089373223  0.5101914396626057  0.9931054403202354  1.0000
  C   C20       1.0  0.7212158696178151  0.9898035946285262  0.493105895196507  1.0000
  C   C21       1.0  0.11310121878309334  0.821260929533949  0.8440433951965078  1.0000
  C   C22       1.0  0.3869007422980388  0.6787423142366151  0.3440443049490511  1.0000
  C   C23       1.0  0.8868984750905968  0.1787388385482558  0.1559561499272206  1.0000
  C   C24       1.0  0.6131030586933762  0.3212584800305223  0.6559575145560431  1.0000
  C   C25       1.0  0.1425708845285669  0.9639406558651231  0.8405417576419227  1.0000
  C   C26       1.0  0.35743019003357557  0.5360636140903665  0.3405422125181943  1.0000
  C   C27       1.0  0.8574300577542999  0.0360591122170817  0.1594577874818057  1.0000
  C   C28       1.0  0.6425714760296729  0.46393820636169647  0.6594582423580775  1.0000
  C   C29       1.0  0.1026542289660242  0.0235447870089871  0.787459970887916  1.0000
  C   C30       1.0  0.3973462603819087  0.47645868867936503  0.287459970887916  1.0000
  C   C31       1.0  0.8973470752070369  0.9764560072581502  0.21254048398835584  1.0000
  C   C32       1.0  0.6026525469727915  0.523542105587765  0.7125404839883558  1.0000
  C   C33       1.0  0.0006649642614391345  0.8109395615189356  0.7415211062591  1.0000
  C   C34       1.0  0.4993350246301277  0.6890616298817633  0.2415211062590998  1.0000
  C   C35       1.0  0.9993359780214277  0.1890602065632692  0.2584788937409002  1.0000
  C   C36       1.0  0.500665555762545  0.310937112015516  0.7584798034934508  1.0000
  C   C37       1.0  0.04066113175802856  0.7450410439389117  0.7925054585152866  1.0000
  C   C38       1.0  0.45934046743290224  0.7549611736467199  0.2925054585152864  1.0000
  C   C39       1.0  0.9593398105248312  0.2549587241432931  0.2074940866084418  1.0000
  C   C40       1.0  0.5406617232591344  0.2450385944354849  0.7074954512372643  1.0000
  C   C41       1.0  0.08815647424633971  0.3359339506989087  0.6519659752547328  1.0000
  C   C42       1.0  0.411842404802222  0.1640684988045109  0.15196506550218203  1.0000
  C   C43       1.0  0.9118468021162798  0.6640688959380795  0.3480331149927238  1.0000
  C   C44       1.0  0.5881549549917082  0.8359281907229031  0.8480322052401733  1.0000
  C   C45       1.0  0.1544195070107293  0.4825685937461158  0.6741693959243094  1.0000
  C   C46       1.0  0.34557864825744394  0.0174318033874528  0.174168031295487  1.0000
  C   C47       1.0  0.8455825209427132  0.5174342528908724  0.3258296943231472  1.0000
  C   C48       1.0  0.6544183496462921  0.9825638599550429  0.825830149199419  1.0000
  C   C49       1.0  0.6276872537248722  0.8900378958395763  0.6533560771470165  1.0000
  C   C50       1.0  0.8723127303451506  0.6099612431912718  0.153354712518194  1.0000
  C   C51       1.0  0.3723156607475531  0.10996392461248658  0.3466448326055343  1.0000
  C   C52       1.0  0.12768893571809772  0.3900405772607911  0.8466448326055345  1.0000
  C   C53       1.0  0.4329676016127237  0.8617665010480094  0.6597775655021821  1.0000
  C   C54       1.0  0.06703327379782562  0.638233664167764  0.15977711062591032  1.0000
  C   C55       1.0  0.5670353128597087  0.1382353194040533  0.3402228893740897  1.0000
  C   C56       1.0  0.9329683922654226  0.361768156284306  0.8402228893740897  1.0000
  N   N1        1.0  0.4193234316378351  0.5214917880998015  0.09094068413391912  1.0000
  N   N2        1.0  0.08067301117779378  0.9785135080406205  0.5909402292576403  1.0000
  N   N3        1.0  0.5806737654174939  0.4785079799824103  0.9090611353711823  1.0000
  N   N4        1.0  0.9193286548854614  0.0214883124114422  0.4090597707423598  1.0000
  N   N5        1.0  0.03238509335659507  0.9484001113016589  0.7384998180494905  1.0000
  N   N6        1.0  0.46761489553497176  0.55160108009904  0.23849890829693982  1.0000
  N   N7        1.0  0.9676146005170879  0.0515996567805459  0.26150063682678143  1.0000
  N   N8        1.0  0.5323872951570721  0.4483986879831647  0.7615010917030531  1.0000
  O   O1        1.0  0.0775776985284722  0.24010982822191806  0.6921106259097556  1.0000
  O   O2        1.0  0.42242939475553243  0.2598946736513668  0.1921083515283826  1.0000
  O   O3        1.0  0.9224305714708549  0.7598930184150773  0.3078893740902444  1.0000
  O   O4        1.0  0.5775711856371332  0.7401040682459126  0.8078884643377009  1.0000
  O   O5        1.0  0.04563941807688822  0.3129628010651899  0.5971310953420641  1.0000
  O   O6        1.0  0.4543546300735671  0.1870365698834533  0.09712518195050991  1.0000
  O   O7        1.0  0.9543618860961729  0.6870379932019475  0.4028689046579359  1.0000
  O   O8        1.0  0.5456387853412396  0.8129560149042518  0.9028693595342079  1.0000
  O   O9        1.0  0.718631471672893  0.0177098995031884  0.660898380640468  1.0000
  O   O10       1.0  0.7813695374822842  0.48228947144545486  0.16089701601164563  1.0000
  O   O11       1.0  0.2813726912087091  0.9822919209488815  0.3391029839883544  1.0000
  O   O12       1.0  0.21863176669076984  0.5177113228216825  0.8391038937409051  1.0000
  O   O13       1.0  0.6930945106245545  0.7941439927874113  0.6431018013100456  1.0000
  O   O14       1.0  0.8069029766271143  0.7058551462434294  0.1430995269286726  1.0000
  O   O15       1.0  0.3069087657380649  0.2058588538495769  0.3568986535662333  1.0000
  O   O16       1.0  0.19309707913676283  0.2941456480237079  0.8568986535662333  1.0000
