data_image0
_chemical_formula_structural       Co16H96C96N64
_chemical_formula_sum              "Co16 H96 C96 N64"
_cell_length_a       15.649038717051527
_cell_length_b       15.783126153052015
_cell_length_c       18.35022501611717
_cell_angle_alpha    90.00029169443282
_cell_angle_beta     89.99971027612226
_cell_angle_gamma    89.99996356863927

_space_group_name_H-M_alt    "P 1"
_space_group_IT_number       1

loop_
  _space_group_symop_operation_xyz
  'x, y, z'

loop_
  _atom_site_type_symbol
  _atom_site_label
  _atom_site_symmetry_multiplicity
  _atom_site_fract_x
  _atom_site_fract_y
  _atom_site_fract_z
  _atom_site_occupancy
  Co  Co1       1.0  0.8652996774198485  0.6889461685373419  0.40103177153557107  1.0000
  Co  Co2       1.0  0.6792915810401327  0.9963363052333919  0.3229188206094946  1.0000
  Co  Co3       1.0  0.13470057514093267  0.8110523368381662  0.9010356682149875  1.0000
  Co  Co4       1.0  0.3207091315803154  0.5036655398659775  0.8229194722295502  1.0000
  Co  Co5       1.0  0.36530000490216  0.31104755191264394  0.09896270806895298  1.0000
  Co  Co6       1.0  0.1792916403574978  0.0036632379053216  0.17708300595637635  1.0000
  Co  Co7       1.0  0.6346965877177553  0.1889514582811174  0.598967713461519  1.0000
  Co  Co8       1.0  0.8207070482623067  0.4963375012745317  0.6770787423009563  1.0000
  Co  Co9       1.0  0.1347035378010659  0.31105290603574076  0.5989657967141183  1.0000
  Co  Co10      1.0  0.32070524399888006  0.0036634029426779  0.677083107275024  1.0000
  Co  Co11      1.0  0.8653020010494644  0.1889492721001744  0.09896625966121059  1.0000
  Co  Co12      1.0  0.6792915275662352  0.49633480189045537  0.17708027583825003  1.0000
  Co  Co13      1.0  0.634701293267078  0.688949621898537  0.9010354051331857  1.0000
  Co  Co14      1.0  0.8207083797673533  0.996337103856149  0.8229183769701507  1.0000
  Co  Co15      1.0  0.3653008763363418  0.8110488834844033  0.40103475937544175  1.0000
  Co  Co16      1.0  0.17929233285669713  0.5036634740639131  0.3229188259612243  1.0000
  H   H1        1.0  0.964695442818453  0.8708499565736146  0.4212208077803439  1.0000
  H   H2        1.0  0.8753510247964302  0.0178452343761748  0.3870151916202786  1.0000
  H   H3        1.0  0.7180147122138578  0.8056770529458602  0.3479256413929903  1.0000
  H   H4        1.0  0.9245341534972907  0.7710019514780483  0.5527068021599604  1.0000
  H   H5        1.0  0.9022749283628289  0.6796433779776195  0.681218970794113  1.0000
  H   H6        1.0  0.811722967829688  0.5349465813256417  0.5042150261160003  1.0000
  H   H7        1.0  0.9755010779353769  0.7538447855059472  0.264314005033647  1.0000
  H   H8        1.0  0.11872081224537108  0.6616021185756296  0.22092164431352046  1.0000
  H   H9        1.0  0.0097896496364456  0.5466330828175219  0.40629973702630906  1.0000
  H   H10       1.0  0.5783174668472598  0.5487855851138262  0.3231077021774453  1.0000
  H   H11       1.0  0.6637524063803822  0.6432893273558093  0.4286088824997875  1.0000
  H   H12       1.0  0.8355602799600704  0.5802873135800369  0.2602654766279926  1.0000
  H   H13       1.0  0.03530213478346409  0.6291505689081377  0.9212199788660627  1.0000
  H   H14       1.0  0.1246470664132815  0.48215484515274193  0.8870171573124779  1.0000
  H   H15       1.0  0.2819858531207089  0.6943211384705066  0.8479289318490897  1.0000
  H   H16       1.0  0.07546495546629471  0.7289982961635673  0.05270868979497578  1.0000
  H   H17       1.0  0.09772406273479112  0.8203563622394088  0.1812217072755402  1.0000
  H   H18       1.0  0.18827642672093964  0.9650546468223026  0.00421963871446  1.0000
  H   H19       1.0  0.024497423754809202  0.7461510108583624  0.7643219102716116  1.0000
  H   H20       1.0  0.881281140104143  0.8383940548320153  0.7209251444969026  1.0000
  H   H21       1.0  0.9902080158392935  0.9533724231601398  0.9062999986615522  1.0000
  H   H22       1.0  0.4216819666465383  0.9512111923802139  0.8231022482211756  1.0000
  H   H23       1.0  0.3362515178833618  0.8567068066808972  0.9286066548286552  1.0000
  H   H24       1.0  0.1644350504963299  0.9197116267834816  0.7602708104919103  1.0000
  H   H25       1.0  0.46469600275850104  0.1291430659778143  0.07877814488640669  1.0000
  H   H26       1.0  0.3753534067940337  0.9821491131756873  0.11298578377449787  1.0000
  H   H27       1.0  0.21801352176454  0.1943161292350695  0.1520700225756642  1.0000
  H   H28       1.0  0.42453503679597304  0.2289965873409514  0.9472866019981508  1.0000
  H   H29       1.0  0.40227906756755527  0.3203602439531608  0.8187756199071429  1.0000
  H   H30       1.0  0.3117221401125576  0.4650520305120409  0.995782682461339  1.0000
  H   H31       1.0  0.4754948895877646  0.2461545659077373  0.23567563655944918  1.0000
  H   H32       1.0  0.6187137537003338  0.3383961965673236  0.2790733608397531  1.0000
  H   H33       1.0  0.5097931963666795  0.453370371515753  0.09369356120927817  1.0000
  H   H34       1.0  0.0783204429348814  0.4512070539147429  0.17689892234637475  1.0000
  H   H35       1.0  0.1637515897136979  0.356703256377493  0.07139519132287828  1.0000
  H   H36       1.0  0.33556482267683657  0.4197038917738282  0.2397329467369076  1.0000
  H   H37       1.0  0.5352975136422343  0.37085519131341727  0.5787876490026064  1.0000
  H   H38       1.0  0.6246447081321946  0.5178502236563818  0.6129889927709016  1.0000
  H   H39       1.0  0.7819833971113185  0.3056831949047378  0.6520689058423415  1.0000
  H   H40       1.0  0.5754639774695819  0.27100511568647084  0.44729031781043455  1.0000
  H   H41       1.0  0.5977219816030015  0.1796432336855958  0.3187799284524644  1.0000
  H   H42       1.0  0.6882759495209995  0.03495122638882008  0.49578432867023986  1.0000
  H   H43       1.0  0.5244938686572809  0.2538477868803071  0.7356835846762946  1.0000
  H   H44       1.0  0.3812766660130507  0.16160387841966178  0.7790777116377896  1.0000
  H   H45       1.0  0.49020726138212467  0.046630508295152105  0.593700204780994  1.0000
  H   H46       1.0  0.9216808028282629  0.04879178342089569  0.6768977077626771  1.0000
  H   H47       1.0  0.8362470823339623  0.1432943236475026  0.5713947619431392  1.0000
  H   H48       1.0  0.6644360530123097  0.0802915155112487  0.7397351668480139  1.0000
  H   H49       1.0  0.03530393829953481  0.12914911800231008  0.5787773054301155  1.0000
  H   H50       1.0  0.12464516123250749  0.9821532066175749  0.612984556453064  1.0000
  H   H51       1.0  0.2819865859638071  0.19431885368118174  0.6520697470441446  1.0000
  H   H52       1.0  0.075465866638794  0.22899839027214602  0.4472907660994423  1.0000
  H   H53       1.0  0.09772317472059913  0.32035823095089455  0.31877914242468103  1.0000
  H   H54       1.0  0.1882796083757512  0.46505312683407857  0.49578199718401805  1.0000
  H   H55       1.0  0.024502137297588395  0.24615682340640888  0.7356792036020393  1.0000
  H   H56       1.0  0.8812817639614678  0.3383982231705219  0.7790748340354483  1.0000
  H   H57       1.0  0.9902058973882719  0.4533710604543232  0.5936951064889087  1.0000
  H   H58       1.0  0.421685109333488  0.4512109551314508  0.6768980403547643  1.0000
  H   H59       1.0  0.33625208685443664  0.3567065792975798  0.5713957701219812  1.0000
  H   H60       1.0  0.16444101819754306  0.4197111274185019  0.7397364512440419  1.0000
  H   H61       1.0  0.9646991633856034  0.37085230719381473  0.0787775893961253  1.0000
  H   H62       1.0  0.875354870766252  0.517848030955449  0.11298259075810078  1.0000
  H   H63       1.0  0.718018001105264  0.30567983687776495  0.1520724510705023  1.0000
  H   H64       1.0  0.924534425644282  0.2710039463590164  0.9472916032322161  1.0000
  H   H65       1.0  0.9022778744407276  0.17964397952144393  0.8187796756468302  1.0000
  H   H66       1.0  0.8117235933999112  0.034948229294556696  0.9957828341225151  1.0000
  H   H67       1.0  0.9755000402948752  0.2538480637359016  0.23568219741991206  1.0000
  H   H68       1.0  0.1187169629630134  0.16160311899791682  0.27907896318907177  1.0000
  H   H69       1.0  0.0097920042883715  0.04662918577419361  0.09370029436286127  1.0000
  H   H70       1.0  0.578319331514507  0.04879168372978878  0.176898044803238  1.0000
  H   H71       1.0  0.6637529753574966  0.1432954358448626  0.0713952730447787  1.0000
  H   H72       1.0  0.8355636915829193  0.08029061575380331  0.23973438710867606  1.0000
  H   H73       1.0  0.5353040173751679  0.8708547414234288  0.9212205132723309  1.0000
  H   H74       1.0  0.6246485303822666  0.0178486942329954  0.887015599142309  1.0000
  H   H75       1.0  0.7819877763980829  0.8056816781705933  0.8479302704376364  1.0000
  H   H76       1.0  0.5754649833391027  0.7710018536467304  0.052711511209530194  1.0000
  H   H77       1.0  0.5977209525687287  0.6796394642089965  0.18122194835087405  1.0000
  H   H78       1.0  0.6882810751033475  0.5349476776539106  0.004216520647084099  1.0000
  H   H79       1.0  0.524503852512744  0.7538464094325265  0.7643224766565664  1.0000
  H   H80       1.0  0.38128243232621634  0.6616047787802091  0.7209269321915954  1.0000
  H   H81       1.0  0.490206823764396  0.5466306038273175  0.9063056419088582  1.0000
  H   H82       1.0  0.9216808552379733  0.5487888527171377  0.8230981009480941  1.0000
  H   H83       1.0  0.8362509864867036  0.643292016672369  0.9286040117772101  1.0000
  H   H84       1.0  0.6644358364707019  0.5802932820423976  0.7602668013239507  1.0000
  H   H85       1.0  0.46469867235781953  0.6291432497093369  0.42122190821476113  1.0000
  H   H86       1.0  0.37535595100030866  0.482148850938465  0.3870156598661366  1.0000
  H   H87       1.0  0.21801726204044772  0.6943158796707819  0.34792920736534677  1.0000
  H   H88       1.0  0.4245347646196933  0.7289958596650622  0.5527116100726983  1.0000
  H   H89       1.0  0.4022761214693844  0.8203577416661504  0.6812219994320612  1.0000
  H   H90       1.0  0.3117208755238395  0.9650503825449376  0.5042154194086592  1.0000
  H   H91       1.0  0.47549848327517447  0.7461557228125815  0.264313983606705  1.0000
  H   H92       1.0  0.6187169639527852  0.8384008984488958  0.22091985664521016  1.0000
  H   H93       1.0  0.5097921197234214  0.9533672991175806  0.4063022680462537  1.0000
  H   H94       1.0  0.07832049533659102  0.9512091919217626  0.3231014953526809  1.0000
  H   H95       1.0  0.1637510207448472  0.8567066516977988  0.42860498613159587  1.0000
  H   H96       1.0  0.33556460613163347  0.9197069254842843  0.2602656711205142  1.0000
  C   C1        1.0  0.9000033469969679  0.8791233106223899  0.4010784340456083  1.0000
  C   C2        1.0  0.8558211087103089  0.9519858985670169  0.3837535615190717  1.0000
  C   C3        1.0  0.7730225068010554  0.8436321721909367  0.3632752807259436  1.0000
  C   C4        1.0  0.8988258586740372  0.7079979910971163  0.561578000716743  1.0000
  C   C5        1.0  0.8878090343055407  0.6629602102774328  0.6251825955464908  1.0000
  C   C6        1.0  0.8403834078493659  0.5865074239531793  0.534868651994806  1.0000
  C   C7        1.0  0.0037627465319190006  0.696912846510763  0.28707810824381136  1.0000
  C   C8        1.0  0.07447834981027769  0.6511645355277624  0.2655925593404049  1.0000
  C   C9        1.0  0.0197641822211452  0.5905887513883812  0.3615690250882792  1.0000
  C   C10       1.0  0.6443822136196928  0.5695945033957345  0.3256743304071605  1.0000
  C   C11       1.0  0.6866479004050633  0.6164998001472953  0.3777968630957105  1.0000
  C   C12       1.0  0.7769150503752157  0.5848112439453105  0.2916488802336516  1.0000
  C   C13       1.0  0.09999562726606828  0.6208777293698803  0.9010783779143591  1.0000
  C   C14       1.0  0.14417732856548326  0.5480144054212985  0.883755718900886  1.0000
  C   C15       1.0  0.22697796813522328  0.6563667435541589  0.8632770087316857  1.0000
  C   C16       1.0  0.1011744760753359  0.792002308990078  0.06158005295988999  1.0000
  C   C17       1.0  0.1121896478050246  0.8370391986592126  0.1251853423683258  1.0000
  C   C18       1.0  0.15961516715156424  0.9134933518241299  0.0348720730629068  1.0000
  C   C19       1.0  0.9962356210956785  0.8030843515998853  0.7870831343712366  1.0000
  C   C20       1.0  0.9255227004335398  0.8488325355537965  0.7655948233124689  1.0000
  C   C21       1.0  0.9802350247310158  0.909413322208593  0.8615702272121621  1.0000
  C   C22       1.0  0.3556152877013475  0.9304035564540314  0.8256707068934686  1.0000
  C   C23       1.0  0.31335184999671384  0.8834979342640211  0.8777959421875607  1.0000
  C   C24       1.0  0.22308137328940356  0.91518724835597  0.791651214901364  1.0000
  C   C25       1.0  0.40000251543523996  0.12087292173742982  0.09892134443203557  1.0000
  C   C26       1.0  0.355823415689848  0.0480084616173997  0.11624531885151868  1.0000
  C   C27       1.0  0.2730214304412186  0.1563622415768791  0.13672341415399095  1.0000
  C   C28       1.0  0.3988254768480887  0.29200119795092405  0.9384166049580924  1.0000
  C   C29       1.0  0.38781155502970693  0.33704215384113917  0.8748126029088894  1.0000
  C   C30       1.0  0.34038343187800285  0.4134911693347334  0.9651283872043731  1.0000
  C   C31       1.0  0.5037599337769905  0.30308681019022987  0.21291303635212697  1.0000
  C   C32       1.0  0.5744728258740254  0.34883444183466855  0.23440263788118898  1.0000
  C   C33       1.0  0.5197649368783673  0.40941089496725175  0.13842586469983328  1.0000
  C   C34       1.0  0.14438585683618751  0.4303974592869153  0.17433091740134188  1.0000
  C   C35       1.0  0.1866480457898518  0.3834927687654357  0.12220602142351568  1.0000
  C   C36       1.0  0.2769191417300334  0.4151799993647458  0.2083508876342748  1.0000
  C   C37       1.0  0.5999921603763382  0.3791260882137167  0.5989267892833111  1.0000
  C   C38       1.0  0.6441743531863509  0.4519906507391553  0.6162470766822279  1.0000
  C   C39       1.0  0.7269755788148871  0.3436376254280021  0.6367237925281372  1.0000
  C   C40       1.0  0.601173589658636  0.2080017198130335  0.4384199329385865  1.0000
  C   C41       1.0  0.6121891641110081  0.16296165507819896  0.3748156856069471  1.0000
  C   C42       1.0  0.6596148382949778  0.08651190634248712  0.46513038389017675  1.0000
  C   C43       1.0  0.4962327926349701  0.1969147744350508  0.7129197676620009  1.0000
  C   C44       1.0  0.42551849594606495  0.15116663624091592  0.7344072958056174  1.0000
  C   C45       1.0  0.48023270135520596  0.09058898211488751  0.6384305644807069  1.0000
  C   C46       1.0  0.8556147650337778  0.06960009569220918  0.6743300808588016  1.0000
  C   C47       1.0  0.8133509660208702  0.11650574523513767  0.622205573996645  1.0000
  C   C48       1.0  0.7230812797691896  0.08481648956879438  0.7083528729830917  1.0000
  C   C49       1.0  0.0999966731343065  0.12087703113263612  0.5989207690711353  1.0000
  C   C50       1.0  0.14417635535381382  0.0480131760127591  0.6162456416004429  1.0000
  C   C51       1.0  0.22697879136979537  0.15636500161863157  0.6367222875237458  1.0000
  C   C52       1.0  0.10117671752978911  0.29200171706420974  0.4384195675357318  1.0000
  C   C53       1.0  0.11219034681345619  0.337040765061012  0.374814972715697  1.0000
  C   C54       1.0  0.15961852933757828  0.4134922842083597  0.4651289162590544  1.0000
  C   C55       1.0  0.9962379126316918  0.3030893959920747  0.7129156453512591  1.0000
  C   C56       1.0  0.9255235873780733  0.3488358062202011  0.7344044639623915  1.0000
  C   C57       1.0  0.9802339208656861  0.4094122239488627  0.6384279982242376  1.0000
  C   C58       1.0  0.35561908452849184  0.4304033040244307  0.6743308671781563  1.0000
  C   C59       1.0  0.31335531479758316  0.3834961065049001  0.6222072445763869  1.0000
  C   C60       1.0  0.2230856087659134  0.415185929877353  0.7083530476369828  1.0000
  C   C61       1.0  0.9000063099150709  0.37912514673669767  0.098920825203777  1.0000
  C   C62       1.0  0.855824608614256  0.4519878370988407  0.11624402916830688  1.0000
  C   C63       1.0  0.7730252470752745  0.34363486538074994  0.1367238292382353  1.0000
  C   C64       1.0  0.8988249050336421  0.2079999335341114  0.9384207850197439  1.0000
  C   C65       1.0  0.8878103723214323  0.16296114310064516  0.8748154956057589  1.0000
  C   C66       1.0  0.8403842139542023  0.0865088907032856  0.9651298548216188  1.0000
  C   C67       1.0  0.0037618429590083  0.19691408940150273  0.2129193384615604  1.0000
  C   C68       1.0  0.0744760416567303  0.15116527185752912  0.23440710456372219  1.0000
  C   C69       1.0  0.019764995395242107  0.0905876531393091  0.138430610763308  1.0000
  C   C70       1.0  0.6443847324239229  0.0696005868340777  0.17433013108894355  1.0000
  C   C71       1.0  0.686647531106857  0.1165062090291329  0.12220653065357817  1.0000
  C   C72       1.0  0.7769180078127607  0.08481626135075258  0.2083518028908316  1.0000
  C   C73       1.0  0.5999975046966242  0.8791255192534706  0.9010778586805444  1.0000
  C   C74       1.0  0.6441778824727749  0.9519893457882632  0.8837549741617821  1.0000
  C   C75       1.0  0.7269792287043231  0.8436361994170413  0.8632768788620877  1.0000
  C   C76       1.0  0.6011745432851825  0.7079978766264076  0.0615820532034306  1.0000
  C   C77       1.0  0.6121897431369377  0.6629581879118619  0.1251860552526338  1.0000
  C   C78       1.0  0.6596191443240258  0.5865091724162426  0.034869726001929294  1.0000
  C   C79       1.0  0.496239447335789  0.6969135315666152  0.7870867117184515  1.0000
  C   C80       1.0  0.4255252772035761  0.6511652663361573  0.7655976551432174  1.0000
  C   C81       1.0  0.480235083253298  0.590588179611693  0.8615733384141322  1.0000
  C   C82       1.0  0.8556154413320413  0.569597813761753  0.8256677407490683  1.0000
  C   C83       1.0  0.8133532523767785  0.6165025042848383  0.8777931816793441  1.0000
  C   C84       1.0  0.7230821564359999  0.5848171744496539  0.7916483154727556  1.0000
  C   C85       1.0  0.40000530366711473  0.6208723527989549  0.4010794982166104  1.0000
  C   C86       1.0  0.3558256669342796  0.5480077902630216  0.3837559410974691  1.0000
  C   C87       1.0  0.2730244413137655  0.6563608155661173  0.3632765004893344  1.0000
  C   C88       1.0  0.3988232353831904  0.791999255535906  0.5615809050438187  1.0000
  C   C89       1.0  0.38780829994789917  0.837038686682483  0.6251851523726797  1.0000
  C   C90       1.0  0.3403800697015953  0.9134871682381132  0.5348688192348873  1.0000
  C   C91       1.0  0.5037621153654328  0.8030874680809249  0.2870778006126642  1.0000
  C   C92       1.0  0.5744751340171561  0.8488362398667421  0.26559136237810316  1.0000
  C   C93       1.0  0.5197641236870184  0.9094107260579632  0.3615702734989199  1.0000
  C   C94       1.0  0.1443858941111742  0.9304002460658369  0.325670212161441  1.0000
  C   C95       1.0  0.18664777607282448  0.883496497287652  0.3777947190319253  1.0000
  C   C96       1.0  0.2769193793729414  0.9151825850163887  0.2916485099392716  1.0000
  N   N1        1.0  0.8469694784597265  0.8106729713340713  0.3879810120379615  1.0000
  N   N2        1.0  0.7752852494214153  0.928986607651055  0.3597201931621399  1.0000
  N   N3        1.0  0.8687264296477439  0.6591418581260771  0.5044822013244215  1.0000
  N   N4        1.0  0.8506886184778963  0.5860013994476247  0.6078317665070543  1.0000
  N   N5        1.0  0.9694698198287954  0.6581250879300596  0.3480588304280089  1.0000
  N   N6        1.0  0.0842142920039279  0.5838212335980657  0.3131727335645563  1.0000
  N   N7        1.0  0.7021661211586974  0.5497389416737021  0.271222513087899  1.0000
  N   N8        1.0  0.7707298039917491  0.6260098646001137  0.35585637101689827  1.0000
  N   N9        1.0  0.15302957293820904  0.6893273576431228  0.8879821156694944  1.0000
  N   N10       1.0  0.22471396841827132  0.5710129206657585  0.8597221017416599  1.0000
  N   N11       1.0  0.1312723243183385  0.8408587380078244  0.004484882045410599  1.0000
  N   N12       1.0  0.14931016581757464  0.9139985405046929  0.1078357794819098  1.0000
  N   N13       1.0  0.0305294666832623  0.8418756386298225  0.8480633144731938  1.0000
  N   N14       1.0  0.9157871170346894  0.9161792867065871  0.8131731552429784  1.0000
  N   N15       1.0  0.29783042281204086  0.950259429865511  0.7712235871039538  1.0000
  N   N16       1.0  0.22927071463890775  0.8739896408728569  0.8558579532528084  1.0000
  N   N17       1.0  0.34697044408321887  0.1893226617504524  0.11201627190865789  1.0000
  N   N18       1.0  0.2752893175438231  0.0710084382420035  0.14027958178964178  1.0000
  N   N19       1.0  0.36872504203557094  0.3408554496356899  0.9955119900669587  1.0000
  N   N20       1.0  0.350690349947797  0.41399972151955927  0.8921641380509583  1.0000
  N   N21       1.0  0.46946981608804345  0.3418774353298559  0.15193247219950473  1.0000
  N   N22       1.0  0.5842134793685076  0.41617837105017935  0.18682242138145705  1.0000
  N   N23       1.0  0.20217070932673656  0.45025488436607464  0.22877866919770903  1.0000
  N   N24       1.0  0.2707304651213462  0.373983283476413  0.14414287876227408  1.0000
  N   N25       1.0  0.6530260716589638  0.3106757920245613  0.6120206414802496  1.0000
  N   N26       1.0  0.7247102268378285  0.4289908161955722  0.6402792543008786  1.0000
  N   N27       1.0  0.6312736882037839  0.15914717208217877  0.4955155181406852  1.0000
  N   N28       1.0  0.6493102670049994  0.0860029227992882  0.3921656322942297  1.0000
  N   N29       1.0  0.5305271035727729  0.1581263231369334  0.651939429529868  1.0000
  N   N30       1.0  0.4157845128483615  0.08382115855772551  0.6868268263298204  1.0000
  N   N31       1.0  0.797830869899741  0.0497429925051946  0.7287790863628201  1.0000
  N   N32       1.0  0.7292677784653138  0.12601345945768122  0.6441455628141313  1.0000
  N   N33       1.0  0.1530318197119342  0.18932673682605378  0.612016011264835  1.0000
  N   N34       1.0  0.22471285365978846  0.07101183334046371  0.6402790099545965  1.0000
  N   N35       1.0  0.1312767855747765  0.3408572164453858  0.4955148219728327  1.0000
  N   N36       1.0  0.14931140165959533  0.4139995758890009  0.39216525680129166  1.0000
  N   N37       1.0  0.0305308393340269  0.34187968892495496  0.6519349231726109  1.0000
  N   N38       1.0  0.9157850891180884  0.4161803753252045  0.6868237447941254  1.0000
  N   N39       1.0  0.297835176998916  0.45025949932483667  0.7287794147841281  1.0000
  N   N40       1.0  0.22927341121652492  0.3739885763978066  0.6441455568509724  1.0000
  N   N41       1.0  0.8469730032584124  0.3106748848768106  0.11201763239831308  1.0000
  N   N42       1.0  0.7752886077737317  0.4289886882709696  0.1402792811820959  1.0000
  N   N43       1.0  0.8687264177735585  0.15914413810461536  0.9955159559370018  1.0000
  N   N44       1.0  0.8506898543070777  0.08600243484482209  0.8921656034460098  1.0000
  N   N45       1.0  0.9694705534417879  0.15812406954361083  0.1519380684519476  1.0000
  N   N46       1.0  0.0842122640736704  0.08381978787900832  0.186828227682156  1.0000
  N   N47       1.0  0.702168958290514  0.049742812665122906  0.22877943068546353  1.0000
  N   N48       1.0  0.7707305835157144  0.12601323524359737  0.14414451958139549  1.0000
  N   N49       1.0  0.6530295760502511  0.810675779238842  0.8879823862514725  1.0000
  N   N50       1.0  0.724712619634083  0.9289893691650661  0.8597212561747225  1.0000
  N   N51       1.0  0.6312775341652497  0.6591436249408176  0.004486668089015198  1.0000
  N   N52       1.0  0.6493115872343295  0.5859999866468044  0.10783506506023599  1.0000
  N   N53       1.0  0.530530843063133  0.6581235400097897  0.848065641012347  1.0000
  N   N54       1.0  0.4157871797760465  0.583823237883948  0.813177871641571  1.0000
  N   N55       1.0  0.7978293108101367  0.5497429230319496  0.7712188990561373  1.0000
  N   N56       1.0  0.729270194027997  0.6260132567501558  0.8558563243447492  1.0000
  N   N57       1.0  0.34697394846025986  0.689322015391184  0.38798292125050426  1.0000
  N   N58       1.0  0.275292349356576  0.5710082583873728  0.35972158366487855  1.0000
  N   N59       1.0  0.36872441487000884  0.8408544368559987  0.5044858647927768  1.0000
  N   N60       1.0  0.3506859190201369  0.9139974189618129  0.6078352056881754  1.0000
  N   N61       1.0  0.4694697214722651  0.8418746522087872  0.3480603185476453  1.0000
  N   N62       1.0  0.5842129512151644  0.9161798167861689  0.3131723767938581  1.0000
  N   N63       1.0  0.20217106727737644  0.9502573492540449  0.2712217516071007  1.0000
  N   N64       1.0  0.27073096362455823  0.8739856151297263  0.3558563650648381  1.0000
