data_image0
_chemical_formula_structural       Mn4H18C26N10O16
_chemical_formula_sum              "Mn4 H18 C26 N10 O16"
_cell_length_a       10.143791413750225
_cell_length_b       10.458878801378027
_cell_length_c       11.210960966087224
_cell_angle_alpha    116.7860880519585
_cell_angle_beta     96.18668045473653
_cell_angle_gamma    112.30033051959275

_space_group_name_H-M_alt    "P 1"
_space_group_IT_number       1

loop_
  _space_group_symop_operation_xyz
  'x, y, z'

loop_
  _atom_site_type_symbol
  _atom_site_label
  _atom_site_symmetry_multiplicity
  _atom_site_fract_x
  _atom_site_fract_y
  _atom_site_fract_z
  _atom_site_occupancy
  Mn  Mn1       1.0  0.3356512325849436  0.6048005523688358  0.2906294260547142  1.0000
  Mn  Mn2       1.0  0.6643485299260447  0.3951990488893101  0.7093704968459492  1.0000
  Mn  Mn3       1.0  0.49999926741718764  0.5000001349021514  4.833786844538295e-07  1.0000
  Mn  Mn4       1.0  0.49999956757025643  0.9999997033569843  0.4999993909109508  1.0000
  H   H1        1.0  0.09113056763192154  0.4464207702201718  0.934859754091157  1.0000
  H   H2        1.0  0.9088701850856892  0.5535788279322489  0.06514026630989632  1.0000
  H   H3        1.0  0.8025636685965478  0.9233870169072843  0.7189548615376467  1.0000
  H   H4        1.0  0.19743510370781786  0.0766125874565944  0.2810449638626197  1.0000
  H   H5        1.0  0.008112951949350092  0.9175756068788984  0.8630507380472425  1.0000
  H   H6        1.0  0.9918868128111455  0.08242398823550448  0.136947398532655  1.0000
  H   H7        1.0  0.25154662727410937  0.18301960712540216  0.031517988843525295  1.0000
  H   H8        1.0  0.7484540210090102  0.8169775364990173  0.9684792121857131  1.0000
  H   H9        1.0  0.9158613388104083  0.6606399126324901  0.30753007983580716  1.0000
  H   H10       1.0  0.08414051079784461  0.339362130798449  0.6924710711166996  1.0000
  H   H11       1.0  0.1389816054836998  0.7273298498882708  0.4942433236682148  1.0000
  H   H12       1.0  0.8610198023632378  0.27267341928766337  0.5057582950596142  1.0000
  H   H13       1.0  0.09028286107107412  0.695595262446396  0.6985564801875982  1.0000
  H   H14       1.0  0.9097174487604818  0.3044055645228879  0.30144490114916783  1.0000
  H   H15       1.0  0.6383323771414451  0.5657212266743625  0.5555118333545082  1.0000
  H   H16       1.0  0.36166837557616555  0.434278371478058  0.4444881870465522  1.0000
  H   H17       1.0  0.6448849532843679  0.9886428813036258  0.25816643638204784  1.0000
  H   H18       1.0  0.3551153565471877  0.011357945665658101  0.7418349449547181  1.0000
  C   C1        1.0  0.9310208643879107  0.1836172629208406  0.8141802642937892  1.0000
  C   C2        1.0  0.06897944769315253  0.8163835579047004  0.18581933072221088  1.0000
  C   C3        1.0  0.7614390503135836  0.608098752663338  0.41619659963936334  1.0000
  C   C4        1.0  0.23856225197410194  0.3919020650564633  0.5838030928770408  1.0000
  C   C5        1.0  0.6268186435129762  0.5729519030355235  0.3104333032219344  1.0000
  C   C6        1.0  0.3731826576499557  0.4270489177561529  0.6895672824548457  1.0000
  C   C7        1.0  0.06519055091571602  0.32495818491857154  0.9109302097571402  1.0000
  C   C8        1.0  0.9348092127200329  0.6750414132677064  0.08906881998314017  1.0000
  C   C9        1.0  0.9090817471000533  0.033458329657136694  0.7934033284127724  1.0000
  C   C10       1.0  0.09091801653569577  0.9665412685291412  0.20659570132750812  1.0000
  C   C11       1.0  0.0228983754755703  0.0306490044850136  0.8722854480948854  1.0000
  C   C12       1.0  0.9771018310462337  0.9693493648844012  0.12771222070968233  1.0000
  C   C13       1.0  0.15636152473319243  0.17334646933527154  0.9667465905366868  1.0000
  C   C14       1.0  0.8436376927067356  0.8266519000680005  0.0332500876071079  1.0000
  C   C15       1.0  0.9035487705649954  0.6538351438149874  0.3997886946051922  1.0000
  C   C16       1.0  0.09645208883662792  0.34616690272168416  0.6002123588469175  1.0000
  C   C17       1.0  0.5741488831161945  0.8570985907689276  0.2180745273146697  1.0000
  C   C18       1.0  0.4258514267153614  0.14290223620035644  0.7819268540221033  1.0000
  C   C19       1.0  0.025791316435608325  0.690020942850559  0.5021997423421283  1.0000
  C   C20       1.0  0.9742095429660154  0.30998110368611254  0.4978013111099814  1.0000
  C   C21       1.0  0.003514515280215719  0.6747789460257675  0.6156882145604001  1.0000
  C   C22       1.0  0.9964888729799808  0.32522431693870146  0.3843135991682233  1.0000
  C   C23       1.0  0.8134171992313737  0.19413851595691511  0.7306729232533514  1.0000
  C   C24       1.0  0.18658256215486088  0.8058610883731063  0.269327892807695  1.0000
  C   C25       1.0  0.743985054253727  0.5973437429341361  0.5331495950023779  1.0000
  C   C26       1.0  0.2560152567025823  0.40265708096327296  0.466850893174005  1.0000
  N   N1        1.0  0.17520197556319766  0.31651788325014957  0.9821539210871039  1.0000
  N   N2        1.0  0.8247977880725443  0.6834817149361284  0.017845108653176463  1.0000
  N   N3        1.0  0.39209404069320897  0.7800619973951937  0.515738188372559  1.0000
  N   N4        1.0  0.6079067120244089  0.21993760075721974  0.4842618320284942  1.0000
  N   N5        1.0  0.46239567528684933  0.7847904149900202  0.6140811964949223  1.0000
  N   N6        1.0  0.5376036465875842  0.21521040894124607  0.38591830102068064  1.0000
  N   N7        1.0  0.5290768905594162  0.7917813774605518  0.7100419162582625  1.0000
  N   N8        1.0  0.47092341927213965  0.2082194495087322  0.2899594650785033  1.0000
  N   N9        1.0  0.8634453100919046  0.6269730827666463  0.6289451088871657  1.0000
  N   N10       1.0  0.13655499973965138  0.37302774420263046  0.3710562724496  1.0000
  O   O1        1.0  0.306042246877169  0.45336674145777767  0.0699783029523999  1.0000
  O   O2        1.0  0.6939575156338191  0.5466328598003685  0.9300216199482636  1.0000
  O   O3        1.0  0.5102001364094946  0.8258954711051629  0.30114396665649684  1.0000
  O   O4        1.0  0.4897980863248037  0.1741029136913212  0.698856186628433  1.0000
  O   O5        1.0  0.5101357282594989  0.5592414755607606  0.3468298689256884  1.0000
  O   O6        1.0  0.489865570653933  0.44075935137465894  0.6531725030718576  1.0000
  O   O7        1.0  0.6432521981058769  0.5627080470136788  0.19652846637975324  1.0000
  O   O8        1.0  0.35674756328036483  0.43729155731634245  0.803472349681286  1.0000
  O   O9        1.0  0.5644572216251688  0.7541455796913681  0.09756542294738318  1.0000
  O   O10       1.0  0.43554506861963194  0.245855241066451  0.9024361533901767  1.0000
  O   O11       1.0  0.8264522722203436  0.33546516459571046  0.7758423941656362  1.0000
  O   O12       1.0  0.17354749029064462  0.6645344366624357  0.22415752873502734  1.0000
  O   O13       1.0  0.7130950488914889  0.06043666162718609  0.6205290894831138  1.0000
  O   O14       1.0  0.2869042729829444  0.9395641623040801  0.3794704080324961  1.0000
  O   O15       1.0  0.8459401150632501  0.6120737171109737  0.7380941712510279  1.0000
  O   O16       1.0  0.15405865611636216  0.38792589032477304  0.2619065473096214  1.0000
