data_image0
_chemical_formula_structural       K4Sm4H36C36N4O48
_chemical_formula_sum              "K4 Sm4 H36 C36 N4 O48"
_cell_length_a       6.76260348412371
_cell_length_b       13.989549309
_cell_length_c       14.2651
_cell_angle_alpha    90.0
_cell_angle_beta     92.49496579773397
_cell_angle_gamma    90.0

_space_group_name_H-M_alt    "P 1"
_space_group_IT_number       1

loop_
  _space_group_symop_operation_xyz
  'x, y, z'

loop_
  _atom_site_type_symbol
  _atom_site_label
  _atom_site_symmetry_multiplicity
  _atom_site_fract_x
  _atom_site_fract_y
  _atom_site_fract_z
  _atom_site_occupancy
  K   K1        1.0  0.72854788049127  0.28704427221372697  0.2562607359846183  1.0000
  K   K2        1.0  0.7714107775865673  0.7870217801024353  0.2437482600599594  1.0000
  K   K3        1.0  0.2714220913547507  0.712975077301685  0.7437503512213508  1.0000
  K   K4        1.0  0.2285769557417225  0.2129789841108902  0.7562463694099504  1.0000
  Sm  Sm1       1.0  0.7766193322631239  0.2534241755536186  0.932612924926353  1.0000
  Sm  Sm2       1.0  0.7233807692733479  0.7534238428409663  0.5673850091849386  1.0000
  Sm  Sm3       1.0  0.2233802420533522  0.7465744442017765  0.06738755699696239  1.0000
  Sm  Sm4       1.0  0.276621765290173  0.24657692137235895  0.43261413180548647  1.0000
  H   H1        1.0  0.7123242465584099  0.7008617492553739  0.8652430756161278  1.0000
  H   H2        1.0  0.787680295348629  0.200858507871466  0.6347549501305139  1.0000
  H   H3        1.0  0.2876738476345437  0.2991368705000211  0.1347594787967523  1.0000
  H   H4        1.0  0.21231927896783995  0.7991429711611742  0.365242727746562  1.0000
  H   H5        1.0  0.11174340547349712  0.1901562331453093  0.07178469172365709  1.0000
  H   H6        1.0  0.3882556416229832  0.690156615251972  0.4282169359885657  1.0000
  H   H7        1.0  0.888253208595934  0.8098423866100859  0.928215729109432  1.0000
  H   H8        1.0  0.6117394923229257  0.3098420045034231  0.5717827532878488  1.0000
  H   H9        1.0  0.07964840700619653  0.1037152783089681  0.005012054285870699  1.0000
  H   H10       1.0  0.4203491599667615  0.6037135159577004  0.49498743984656096  1.0000
  H   H11       1.0  0.9203496871867571  0.8962847710850426  0.994987696080777  1.0000
  H   H12       1.0  0.5796548547202818  0.3962865334363173  0.5050138347236626  1.0000
  H   H13       1.0  0.5186071600244802  0.1270441213468274  0.0802000130400842  1.0000
  H   H14       1.0  0.9814018222531262  0.6270430738148676  0.41979670231877714  1.0000
  H   H15       1.0  0.48139241429199603  0.8729559280471904  0.9198004688832312  1.0000
  H   H16       1.0  0.0185992321868724  0.37295554594052754  0.5802024081265316  1.0000
  H   H17       1.0  0.45080418157085234  0.1102844677782002  0.9758656364554097  1.0000
  H   H18       1.0  0.0491993058961953  0.6102862795234854  0.5241311758112346  1.0000
  H   H19       1.0  0.5491939126221013  0.8897148667965027  0.02413481492278889  1.0000
  H   H20       1.0  0.9508017485438034  0.3897123402319025  0.4758686356456394  1.0000
  H   H21       1.0  0.7201866627112566  0.4883566903477572  0.3875229469877936  1.0000
  H   H22       1.0  0.7798119587016928  0.9883542131771748  0.11247986365930267  1.0000
  H   H23       1.0  0.2798129116052195  0.5116447886848761  0.61247823594708  1.0000
  H   H24       1.0  0.2201876156147762  0.0116465510361508  0.8875220202871361  1.0000
  H   H25       1.0  0.7951830414854513  0.5202183315025053  0.48488910347868597  1.0000
  H   H26       1.0  0.7048155799275051  0.0202193790344651  0.015115109191533797  1.0000
  H   H27       1.0  0.2048150527075023  0.4797788586142673  0.5151141519457525  1.0000
  H   H28       1.0  0.2951825142654485  0.9797799555402376  0.9848867442097884  1.0000
  H   H29       1.0  0.9309399709920287  0.10072876322709587  0.16539713182805826  1.0000
  H   H30       1.0  0.5690645709150104  0.6007284305144437  0.3346079040341792  1.0000
  H   H31       1.0  0.0690581232009251  0.8992727158055445  0.8346033195501403  1.0000
  H   H32       1.0  0.43093796364851045  0.3992709040602591  0.6653954430256092  1.0000
  H   H33       1.0  0.8305017489852986  0.0554206560107815  0.25582147467445526  1.0000
  H   H34       1.0  0.6695057531687922  0.5554188936595139  0.24418292126645716  1.0000
  H   H35       1.0  0.169496345207655  0.944580108202544  0.7441789767037504  1.0000
  H   H36       1.0  0.3304997416417734  0.4445768668186361  0.7558204868835645  1.0000
  C   C1        1.0  0.7527597410764033  0.4379419139727787  0.07535051853097488  1.0000
  C   C2        1.0  0.7472388803365462  0.9379422960794415  0.4246466840236422  1.0000
  C   C3        1.0  0.2472398332400729  0.5620574206019242  0.9246534684501384  1.0000
  C   C4        1.0  0.2527695747210643  0.062065616326997  0.5753469710547703  1.0000
  C   C5        1.0  0.757574582895906  0.4893195519598449  0.9819938247004883  1.0000
  C   C6        1.0  0.7424210782699988  0.9893177896085703  0.5180033167638953  1.0000
  C   C7        1.0  0.2424235112970479  0.510676208518305  0.0180073276892685  1.0000
  C   C8        1.0  0.2575814562935221  0.0106836894240629  0.48199512321497195  1.0000
  C   C9        1.0  0.7347732800279516  0.5886265395771061  0.9706428767823283  1.0000
  C   C10       1.0  0.7652238612614752  0.0886232981931983  0.5293514911809395  1.0000
  C   C11       1.0  0.2652233340414796  0.4113706505396593  0.029357544050761  1.0000
  C   C12       1.0  0.23477719317852325  0.911377466020127  0.4706462172412528  1.0000
  C   C13       1.0  0.7350337817679531  0.6247056146674906  0.8792398503980576  1.0000
  C   C14       1.0  0.764967799892041  0.12470237328358277  0.6207567122352344  1.0000
  C   C15       1.0  0.2649657925485158  0.3752915754492818  0.1207606315252576  1.0000
  C   C16       1.0  0.2350347346714798  0.8752983909297425  0.3792424287551981  1.0000
  C   C17       1.0  0.7621555651988174  0.5641561300993843  0.8030219690273626  1.0000
  C   C18       1.0  0.7378430562141318  0.0641521738961686  0.6969752335272617  1.0000
  C   C19       1.0  0.2378410488706137  0.43584320447531866  0.1969777507941686  1.0000
  C   C20       1.0  0.262159478349389  0.9358485903171567  0.3030239074631709  1.0000
  C   C21       1.0  0.7879763200531829  0.4665110973804829  0.8207870947228881  1.0000
  C   C22       1.0  0.712016380865677  0.9665079053905926  0.6792106866628274  1.0000
  C   C23       1.0  0.2120202940162486  0.5334875223749052  0.179214027121759  1.0000
  C   C24       1.0  0.2879846735743214  0.0334935736420476  0.3207877227709232  1.0000
  C   C25       1.0  0.8227518222201838  0.3931699212398101  0.7453195169110599  1.0000
  C   C26       1.0  0.6772423588222054  0.893163155153367  0.7546726869273002  1.0000
  C   C27       1.0  0.1772477520962923  0.6068301281542006  0.25467886197758105  1.0000
  C   C28       1.0  0.3227601757413154  0.106836179421343  0.24532435102845077  1.0000
  C   C29       1.0  0.7197766684954559  0.6593464733038914  0.05001948069823209  1.0000
  C   C30       1.0  0.7802278734115902  0.1593468060165364  0.44998064808308397  1.0000
  C   C31       1.0  0.2802184654504529  0.3406521464515038  0.9499809095897402  1.0000
  C   C32       1.0  0.2197805816460203  0.8406546730160969  0.5500172130646844  1.0000
  C   C33       1.0  0.7604030989478829  0.6075799736115712  0.7068897369867669  1.0000
  C   C34       1.0  0.7396014429591633  0.1075788766856007  0.7931068867367512  1.0000
  C   C35       1.0  0.23960387598620517  0.3924200757824394  0.29311159867368264  1.0000
  C   C36       1.0  0.2604010916043578  0.892421172708417  0.20689085223055764  1.0000
  N   N1        1.0  0.782576829442192  0.4322612449072735  0.9080833954959289  1.0000
  N   N2        1.0  0.7174114311061005  0.9322587677366911  0.5919135932428787  1.0000
  N   N3        1.0  0.21741830450371685  0.5677366600288067  0.0919169947920437  1.0000
  N   N4        1.0  0.2825881432103756  0.0677419964766344  0.40808478564575507  1.0000
  O   O1        1.0  0.7743236606793431  0.3462456075610518  0.0727853866777224  1.0000
  O   O2        1.0  0.7256705203630389  0.8462438452097842  0.4272124252531099  1.0000
  O   O3        1.0  0.2256714732665657  0.6537501529170981  0.927218508668048  1.0000
  O   O4        1.0  0.274346815435706  0.1537576338228561  0.5727849181537934  1.0000
  O   O5        1.0  0.7278640634237591  0.4855481652743521  0.1479501523325553  1.0000
  O   O6        1.0  0.7721375182362422  0.9855442584651469  0.352051317381651  1.0000
  O   O7        1.0  0.2721369910162394  0.5144490248424205  0.8520489581127604  1.0000
  O   O8        1.0  0.2278605759567114  0.0144593650254237  0.6479519380427872  1.0000
  O   O9        1.0  0.5526203985772682  0.6807395856472169  0.0799632853100221  1.0000
  O   O10       1.0  0.9473856234533005  0.1807349146246864  0.42003687401641077  1.0000
  O   O11       1.0  0.4473806558627303  0.3192618933854163  0.9200351241237356  1.0000
  O   O12       1.0  0.0526139508631758  0.8192679940465695  0.5799636079069046  1.0000
  O   O13       1.0  0.880236859596721  0.699101864111384  0.07794199047928879  1.0000
  O   O14       1.0  0.619770642557363  0.19910791537851938  0.42206030242694226  1.0000
  O   O15       1.0  0.1197641948432704  0.3008989001019415  0.922057119966027  1.0000
  O   O16       1.0  0.38022597151206844  0.8008935636541139  0.5779387163830307  1.0000
  O   O17       1.0  0.9183618812957022  0.6459629113417051  0.6799905923652148  1.0000
  O   O18       1.0  0.581647100981904  0.14596252923504238  0.8200054219820955  1.0000
  O   O19       1.0  0.08164657376190831  0.3540392825102429  0.3200142788981565  1.0000
  O   O20       1.0  0.418352473334572  0.8540382349782831  0.17999085387186398  1.0000
  O   O21       1.0  0.5953574851731318  0.6143085677871838  0.6607738819908491  1.0000
  O   O22       1.0  0.9046574175985713  0.11431175977708108  0.8392180484675577  1.0000
  O   O23       1.0  0.4046568903785683  0.3856914816068269  0.33922129729113937  1.0000
  O   O24       1.0  0.0953406765943825  0.8856882896169367  0.16078170189908286  1.0000
  O   O25       1.0  0.8473588757858936  0.4213981358361139  0.663100254282547  1.0000
  O   O26       1.0  0.6526353052564959  0.9213935142076011  0.8368989596714014  1.0000
  O   O27       1.0  0.1526510593952466  0.5786026283772117  0.3369004414565778  1.0000
  O   O28       1.0  0.3473598286894132  0.0786065351864167  0.16310143061656387  1.0000
  O   O29       1.0  0.8229708805015505  0.305591688879474  0.7721818934741549  1.0000
  O   O30       1.0  0.6770262607878834  0.8055899265282064  0.7278131755006638  1.0000
  O   O31       1.0  0.1770257335678806  0.694406930875914  0.22781432128957133  1.0000
  O   O32       1.0  0.3229777538991598  0.19441155250443384  0.2721852950233199  1.0000
  O   O33       1.0  0.0052707198645123  0.1534738505563382  0.0408599751427445  1.0000
  O   O34       1.0  0.494728327231968  0.6534720882050706  0.4591388485232386  1.0000
  O   O35       1.0  0.9947273743284415  0.8465247691990498  0.9591397752238959  1.0000
  O   O36       1.0  0.5052727272080304  0.3465286760082549  0.540859560910512  1.0000
  O   O37       1.0  0.5636443585747061  0.1367485083146533  0.0153570302197465  1.0000
  O   O38       1.0  0.9363631435793849  0.6367510348792462  0.4846389535824399  1.0000
  O   O39       1.0  0.4363537356182476  0.8632515410793644  0.9846427201468939  1.0000
  O   O40       1.0  0.0636379108606135  0.3632475848761487  0.5153608578744268  1.0000
  O   O41       1.0  0.7463108428877803  0.4622936634448535  0.4515702105211474  1.0000
  O   O42       1.0  0.7536892586486914  0.9622926159128936  0.04843192965950749  1.0000
  O   O43       1.0  0.2536902115522111  0.5377049563105416  0.5484303019472847  1.0000
  O   O44       1.0  0.2463088355442622  0.0377060038425014  0.9515692227302566  1.0000
  O   O45       1.0  0.8067354055805112  0.0910608320441355  0.1967881343869067  1.0000
  O   O46       1.0  0.6932735766971021  0.5910526363190625  0.3032183951337969  1.0000
  O   O47       1.0  0.1932626886124424  0.9089406469884977  0.803211615979734  1.0000
  O   O48       1.0  0.3067319181134636  0.4089416945204576  0.6967871160508992  1.0000
