data_image0
_chemical_formula_structural       Zn8H28C68O26F8
_chemical_formula_sum              "Zn8 H28 C68 O26 F8"
_cell_length_a       18.527881368750286
_cell_length_b       18.527998355446737
_cell_length_c       22.346990555597564
_cell_angle_alpha    114.44024111600915
_cell_angle_beta     114.4388690606445
_cell_angle_gamma    90.05744550420656

_space_group_name_H-M_alt    "P 1"
_space_group_IT_number       1

loop_
  _space_group_symop_operation_xyz
  'x, y, z'

loop_
  _atom_site_type_symbol
  _atom_site_label
  _atom_site_symmetry_multiplicity
  _atom_site_fract_x
  _atom_site_fract_y
  _atom_site_fract_z
  _atom_site_occupancy
  Zn  Zn1       1.0  0.44661977080391324  0.029798232504454274  0.5634789628796639  1.0000
  Zn  Zn2       1.0  0.029800085877973007  0.4466214014706081  0.5634813122870879  1.0000
  Zn  Zn3       1.0  0.46891701011909964  0.8816085926024756  0.438140187937691  1.0000
  Zn  Zn4       1.0  0.8816109059807077  0.4689130970200566  0.4381398972281332  1.0000
  Zn  Zn5       1.0  0.6184351263764969  0.031953821365718234  0.5628036080973403  1.0000
  Zn  Zn6       1.0  0.031954282835585  0.6184338203547882  0.5628055177858187  1.0000
  Zn  Zn7       1.0  0.46970687086313495  0.0567622307750355  0.4382822287249226  1.0000
  Zn  Zn8       1.0  0.05676557436871121  0.46970265469582273  0.4382816743647808  1.0000
  H   H1        1.0  0.8038385613751586  0.18022231521229776  0.5787444358315739  1.0000
  H   H2        1.0  0.18021472890622903  0.803840230015254  0.57873940672021  1.0000
  H   H3        1.0  0.8987259072660976  0.27511251757857014  0.5786740589220613  1.0000
  H   H4        1.0  0.2751057141071699  0.8987264478192358  0.5786680161838689  1.0000
  H   H5        1.0  0.6483714062222817  0.3719395668951648  0.4233517177063035  1.0000
  H   H6        1.0  0.3719497450754191  0.648368178251374  0.4233578323491329  1.0000
  H   H7        1.0  0.6557915716961346  0.29005204233224896  0.34929784629559885  1.0000
  H   H8        1.0  0.2900621519981997  0.655780374899088  0.34930135113019395  1.0000
  H   H9        1.0  0.5520572272506002  0.27561075996189294  0.42367383245161966  1.0000
  H   H10       1.0  0.27562101046924437  0.5520547181196847  0.4236824565340456  1.0000
  H   H11       1.0  0.5592865944912262  0.19386626808240237  0.349415164932239  1.0000
  H   H12       1.0  0.19387855178352711  0.5592773280404871  0.3494209691794552  1.0000
  H   H13       1.0  0.8036551131494323  0.8985570639455389  0.5790049941648691  1.0000
  H   H14       1.0  0.8985573058673353  0.8036538532314877  0.5790052949877377  1.0000
  H   H15       1.0  0.6563412496106481  0.5586306801698625  0.3496676936116573  1.0000
  H   H16       1.0  0.5586357770466962  0.6563361511817903  0.3496679844365643  1.0000
  H   H17       1.0  0.2826847193648803  0.38031544810912976  0.4364835678184988  1.0000
  H   H18       1.0  0.38031924791373234  0.28267820975852226  0.4364814518833668  1.0000
  H   H19       1.0  0.7144407813680048  0.38307835257766953  0.04619164214395256  1.0000
  H   H20       1.0  0.3825970424338934  0.713567545774211  0.04616195495393068  1.0000
  H   H21       1.0  0.8980144392408179  0.26878850659989684  0.04520673928701056  1.0000
  H   H22       1.0  0.26975597142269697  0.8980392032179623  0.045221554157393554  1.0000
  H   H23       1.0  0.7861387531786265  0.11756941476093628  0.9548356661780275  1.0000
  H   H24       1.0  0.1180085569639715  0.7869993761311915  0.9548632582893147  1.0000
  H   H25       1.0  0.7082408118852187  0.16740081027481324  0.04702136916264277  1.0000
  H   H26       1.0  0.1669064870325485  0.7090555169055434  0.04704112673606881  1.0000
  H   H27       1.0  0.6029615147706906  0.23150651967005587  0.9559666793794719  1.0000
  H   H28       1.0  0.2305189961723855  0.602935451069264  0.955952759483189  1.0000
  C   C1        1.0  0.40102933231093374  0.9004809254890631  0.30151752742822424  1.0000
  C   C2        1.0  0.9004854208341017  0.40102859009155617  0.30151672955987147  1.0000
  C   C3        1.0  0.25513190657199664  0.31582947998200683  0.4114719256918846  1.0000
  C   C4        1.0  0.31583324354620157  0.2551266035079535  0.4114712768238817  1.0000
  C   C5        1.0  0.7296153899120413  0.323596809410958  0.025574832825661583  1.0000
  C   C6        1.0  0.32332308410416033  0.7291385560565831  0.025562776217874738  1.0000
  C   C7        1.0  0.7739217623225373  0.2956824909464331  0.9764812942264031  1.0000
  C   C8        1.0  0.29593021505389333  0.7734775220161791  0.9764772744219811  1.0000
  C   C9        1.0  0.6403835400401477  0.13909876356658665  0.7792836744711877  1.0000
  C   C10       1.0  0.1391046818335226  0.6403877645052346  0.7792848010207436  1.0000
  C   C11       1.0  0.8610088049261152  0.36150237764584864  0.2220215634675072  1.0000
  C   C12       1.0  0.36150238834161297  0.8610011504765392  0.22202147327602975  1.0000
  C   C13       1.0  0.668623115049229  0.23995035040669413  0.976531648398236  1.0000
  C   C14       1.0  0.23940004803054654  0.6686108968526482  0.976525943585841  1.0000
  C   C15       1.0  0.7111016365718258  0.21128150374406127  0.9243624739610184  1.0000
  C   C16       1.0  0.211239277720459  0.711114061034365  0.9243632810189765  1.0000
  C   C17       1.0  0.7264178467055515  0.20373606336265476  0.0256644228007231  1.0000
  C   C18       1.0  0.2034440294023554  0.7268727236311038  0.025668244400449746  1.0000
  C   C19       1.0  0.7890165737829805  0.2882246180480053  0.07666241160531946  1.0000
  C   C20       1.0  0.2882307006325462  0.7890091527608192  0.07666361364197627  1.0000
  C   C21       1.0  0.7706730489191004  0.17676557515007113  0.9761328846224018  1.0000
  C   C22       1.0  0.17700293334846862  0.7711530880229276  0.9761484818077477  1.0000
  C   C23       1.0  0.6007751952632036  0.09958469918387891  0.6999416455376419  1.0000
  C   C24       1.0  0.0995939634620697  0.6007766368479037  0.6999429638841262  1.0000
  C   C25       1.0  0.8324184180719173  0.2599250237274902  0.025180640794772786  1.0000
  C   C26       1.0  0.26045296798920964  0.8324342874815327  0.025190844421352606  1.0000
  C   C27       1.0  0.6730493994943317  0.17234802794184392  0.8465128430721549  1.0000
  C   C28       1.0  0.1723302264017477  0.6730616663231644  0.8465157350325967  1.0000
  C   C29       1.0  0.8276433348209978  0.32772955750680666  0.15474099188775636  1.0000
  C   C30       1.0  0.32772943181639397  0.8276314247438066  0.1547425323147066  1.0000
  C   C31       1.0  0.6686286246252778  0.23531542105212108  0.45706033693047493  1.0000
  C   C32       1.0  0.23532034511186592  0.6686250470823295  0.4570631228176082  1.0000
  C   C33       1.0  0.6958657081526312  0.194938327823678  0.5002893443756307  1.0000
  C   C34       1.0  0.1949385503184331  0.6958647887075102  0.5002894266555912  1.0000
  C   C35       1.0  0.7805407044570245  0.21072240420271268  0.5441886561677478  1.0000
  C   C36       1.0  0.21071824639886222  0.7805408290275436  0.5441851646285798  1.0000
  C   C37       1.0  0.8337049290939619  0.26392891105322047  0.5441661217399698  1.0000
  C   C38       1.0  0.26392431191497684  0.833704467507289  0.5441618290810197  1.0000
  C   C39       1.0  0.8055135475647717  0.30471722340747215  0.5002408999158376  1.0000
  C   C40       1.0  0.30471797554094593  0.8055104127263776  0.5002390584935128  1.0000
  C   C41       1.0  0.721946879977182  0.28867326144650474  0.4570030731063285  1.0000
  C   C42       1.0  0.28867801602105914  0.7219430717244039  0.4570048258961492  1.0000
  C   C43       1.0  0.6545549595846297  0.3084052963377175  0.4022538569267624  1.0000
  C   C44       1.0  0.3084151425222075  0.6545493939668319  0.40225887793274506  1.0000
  C   C45       1.0  0.36197926444592105  0.8624690296570207  0.5010277446080665  1.0000
  C   C46       1.0  0.8624722548641445  0.36197864649484046  0.5010292207332867  1.0000
  C   C47       1.0  0.5942050754864212  0.24799898429138523  0.40229029009108064  1.0000
  C   C48       1.0  0.2480088635158424  0.5942007056452853  0.4022970765887308  1.0000
  C   C49       1.0  0.6687536552574116  0.7219147581392062  0.45868880242524995  1.0000
  C   C50       1.0  0.7219177291212518  0.6687515406159719  0.4586891025401982  1.0000
  C   C51       1.0  0.6958396396529949  0.8058508324299464  0.500768739098923  1.0000
  C   C52       1.0  0.8058527390877259  0.695837934370381  0.5007687585919597  1.0000
  C   C53       1.0  0.780149589867989  0.8335496651985962  0.5443765180573265  1.0000
  C   C54       1.0  0.8335507572755178  0.7801476734748007  0.544376684407709  1.0000
  C   C55       1.0  0.6549827544712202  0.5942673567004065  0.4024899566108076  1.0000
  C   C56       1.0  0.5942711098512207  0.6549787589381778  0.4024899935937326  1.0000
  C   C57       1.0  0.6395602840911254  0.13851049169795002  0.50097428280408  1.0000
  C   C58       1.0  0.138510638323126  0.6395590762546914  0.5009742420125534  1.0000
  C   C59       1.0  0.6393525053114503  0.863185094800393  0.5008176772422317  1.0000
  C   C60       1.0  0.8631861431713759  0.6393501183032129  0.5008179493881642  1.0000
  C   C61       1.0  0.3629059947478552  0.13700529016904284  0.5007982128062736  1.0000
  C   C62       1.0  0.13700703794213354  0.36290448817796067  0.5007980457272865  1.0000
  C   C63       1.0  0.2882965162505542  0.2352885956418902  0.4589781091156055  1.0000
  C   C64       1.0  0.23529252456454944  0.2882936435060015  0.4589789107412584  1.0000
  C   C65       1.0  0.3033292751788963  0.1913943796118502  0.4996097873444043  1.0000
  C   C66       1.0  0.19139638630075953  0.3033280862247452  0.49961059749501396  1.0000
  C   C67       1.0  0.2575888295196905  0.20363275441053463  0.5385124443321345  1.0000
  C   C68       1.0  0.2036334334905661  0.2575887102197285  0.538512643871904  1.0000
  O   O1        1.0  0.5006376908403638  0.9999030094850525  0.4998588781247618  1.0000
  O   O2        1.0  0.9999045881316561  0.5006353882389617  0.49986012549279485  1.0000
  O   O3        1.0  0.3751510802946427  0.9375525200143217  0.5451284810537443  1.0000
  O   O4        1.0  0.9375551281378736  0.3751508749201521  0.5451301941256688  1.0000
  O   O5        1.0  0.5642257065488111  0.12702357930321986  0.45802086600131287  1.0000
  O   O6        1.0  0.1270257030866091  0.564224440885198  0.45802220674305966  1.0000
  O   O7        1.0  0.41670810701000965  0.8539615003245301  0.33246635701524235  1.0000
  O   O8        1.0  0.8539638964497132  0.41670644428759124  0.3324655620116205  1.0000
  O   O9        1.0  0.6467158108894396  0.08366044890283322  0.6684562693397565  1.0000
  O   O10       1.0  0.0836696059138475  0.6467163266760494  0.6684578198515894  1.0000
  O   O11       1.0  0.41634257573682737  0.9778888802100171  0.33294358309841243  1.0000
  O   O12       1.0  0.9778922408779138  0.4163421410213957  0.3329432527332513  1.0000
  O   O13       1.0  0.5233388905709547  0.08430206341395065  0.6688901614710404  1.0000
  O   O14       1.0  0.08430944769497731  0.5233399790364575  0.6688919109086058  1.0000
  O   O15       1.0  0.39349977739567527  0.8311526296379057  0.45730349180661994  1.0000
  O   O16       1.0  0.8311563803141484  0.3934960505891709  0.45730423633463607  1.0000
  O   O17       1.0  0.6706627819127036  0.10635785267485431  0.5440972252402148  1.0000
  O   O18       1.0  0.10635713430284713  0.6706627488522727  0.544097901127266  1.0000
  O   O19       1.0  0.5647585922776984  0.8317704807534413  0.45547740588735053  1.0000
  O   O20       1.0  0.8317723127408527  0.5647556431301552  0.455477479542985  1.0000
  O   O21       1.0  0.39434104657847513  0.1280317285152961  0.45770610449094556  1.0000
  O   O22       1.0  0.1280355733434675  0.39433791236039173  0.4577067743219842  1.0000
  O   O23       1.0  0.6705394284320505  0.9378358192470202  0.5456918703289729  1.0000
  O   O24       1.0  0.9378369312957276  0.6705373824774837  0.545693792136113  1.0000
  O   O25       1.0  0.37723551184934223  0.10587297283016281  0.5445431481529184  1.0000
  O   O26       1.0  0.10587164597649953  0.3772337881906793  0.5445426106645641  1.0000
  F   F1        1.0  0.26188347674239054  0.16414531406561386  0.5782247590392089  1.0000
  F   F2        1.0  0.16414525856245632  0.26188546818086417  0.5782261634056312  1.0000
  F   F3        1.0  0.6433281168152264  0.5402920399886779  0.4281105181236312  1.0000
  F   F4        1.0  0.540294412506512  0.6433244137825086  0.4281108890499254  1.0000
  F   F5        1.0  0.19234654291581424  0.29494501329805434  0.3415867846834928  1.0000
  F   F6        1.0  0.2949479020359576  0.19233961096480806  0.3415854701442314  1.0000
  F   F7        1.0  0.7975185014676214  0.34227017190211473  0.9509885076176018  1.0000
  F   F8        1.0  0.3427857527374698  0.7966370353472599  0.9509890181846998  1.0000
