data_image0
_chemical_formula_structural       Nd4H24C24N8O32
_chemical_formula_sum              "Nd4 H24 C24 N8 O32"
_cell_length_a       7.463406877958875
_cell_length_b       8.296718191637343
_cell_length_c       17.21267455200439
_cell_angle_alpha    89.9999189472113
_cell_angle_beta     90.00003406701927
_cell_angle_gamma    110.74743492643188

_space_group_name_H-M_alt    "P 1"
_space_group_IT_number       1

loop_
  _space_group_symop_operation_xyz
  'x, y, z'

loop_
  _atom_site_type_symbol
  _atom_site_label
  _atom_site_symmetry_multiplicity
  _atom_site_fract_x
  _atom_site_fract_y
  _atom_site_fract_z
  _atom_site_occupancy
  Nd  Nd1       1.0  0.8175627907671129  0.7562069392727723  0.4152275919460848  1.0000
  Nd  Nd2       1.0  0.18243835710784848  0.7437910125974908  0.9152276727096692  1.0000
  Nd  Nd3       1.0  0.18243371069025474  0.24379704499377647  0.5847713528413222  1.0000
  Nd  Nd4       1.0  0.8175679008524599  0.2562038702659919  0.0847718530493111  1.0000
  H   H1        1.0  0.4545363215703802  0.9011846020852657  0.2099764185992328  1.0000
  H   H2        1.0  0.5454639561255661  0.5988152377215953  0.7099761099089932  1.0000
  H   H3        1.0  0.5454626426090314  0.0988154917880593  0.7900254310260024  1.0000
  H   H4        1.0  0.4545381972988737  0.40118612912027624  0.2900257397162207  1.0000
  H   H5        1.0  0.35657515392458106  0.9275363762614289  0.3481954747039353  1.0000
  H   H6        1.0  0.6434270094794174  0.572464346372989  0.8481963709844393  1.0000
  H   H7        1.0  0.6434206210096608  0.0724624446450122  0.6518052129868366  1.0000
  H   H8        1.0  0.35657915409728264  0.4275369966410949  0.15180547864130026  1.0000
  H   H9        1.0  0.42305457672679136  0.660397461585319  0.4677905845197117  1.0000
  H   H10       1.0  0.5769467944793832  0.8396042134031492  0.967790701923782  1.0000
  H   H11       1.0  0.5769414089204618  0.33960523382664576  0.5322089412353037  1.0000
  H   H12       1.0  0.42306070581452815  0.16039712167084724  0.0322094048004118  1.0000
  H   H13       1.0  0.40201725472320515  0.4958545845545856  0.4191241738707561  1.0000
  H   H14       1.0  0.5979831003653403  0.004145375686135798  0.9191239427663191  1.0000
  H   H15       1.0  0.5979745100587693  0.5041442601796504  0.58087651381949  1.0000
  H   H16       1.0  0.4020262524562526  0.9958572402981715  0.08087674492491459  1.0000
  H   H17       1.0  0.737484471101091  0.07709083105230967  0.47945606354229403  1.0000
  H   H18       1.0  0.2625135301327716  0.42290638566174  0.9794566246427009  1.0000
  H   H19       1.0  0.26250687225429903  0.9229002646775796  0.5205423002815762  1.0000
  H   H20       1.0  0.7374941808741512  0.5770988239177726  0.0205423201457293  1.0000
  H   H21       1.0  0.6585513738923724  0.006087144577328699  0.3977134060075329  1.0000
  H   H22       1.0  0.34144846024643993  0.49391158847159033  0.8977151012906646  1.0000
  H   H23       1.0  0.34144522194868193  0.9939103795377874  0.6022837958803535  1.0000
  H   H24       1.0  0.6585550298950694  0.5060897704318704  0.10228384349853309  1.0000
  C   C1        1.0  0.017534043104362133  0.6589289881025308  0.24760743530492138  1.0000
  C   C2        1.0  0.9824657278149332  0.8410694544703361  0.7476070750698227  1.0000
  C   C3        1.0  0.9824635843572767  0.34107111371756815  0.7523915094839424  1.0000
  C   C4        1.0  0.017536730706268606  0.1589293267247882  0.2523924506873456  1.0000
  C   C5        1.0  0.8141822021941538  0.539501460836469  0.24595065962665794  1.0000
  C   C6        1.0  0.18581726323034786  0.9604995721585536  0.7459500136193284  1.0000
  C   C7        1.0  0.18581460436018923  0.46049993778081705  0.754047704194427  1.0000
  C   C8        1.0  0.8141870478183936  0.039500489948558495  0.2540489311704164  1.0000
  C   C9        1.0  0.2622239346407724  0.84701108092122  0.3045328970165855  1.0000
  C   C10       1.0  0.7377755448468549  0.6529897833509678  0.8045331820998454  1.0000
  C   C11       1.0  0.737771840293398  0.1529877399860595  0.6954672097069476  1.0000
  C   C12       1.0  0.2622284611050604  0.34701286440373735  0.19546750559069176  1.0000
  C   C13       1.0  0.17224195783379764  0.6780450089553368  0.108134643811951  1.0000
  C   C14       1.0  0.8277588112246267  0.8219564130177943  0.6081342567152461  1.0000
  C   C15       1.0  0.827764205742561  0.321956334062925  0.8918643009775948  1.0000
  C   C16       1.0  0.17223614280224103  0.17804370468667224  0.3918652690405082  1.0000
  C   C17       1.0  0.1653788726209555  0.7132788224405145  0.1924428537408645  1.0000
  C   C18       1.0  0.8346222217731809  0.7867197710681281  0.6924424922578962  1.0000
  C   C19       1.0  0.834620912465333  0.2867199746406399  0.807556091048717  1.0000
  C   C20       1.0  0.16537993165091083  0.2132815957779286  0.3075564525311236  1.0000
  C   C21       1.0  0.08922431875939194  0.5789695398633723  0.511386931673691  1.0000
  C   C22       1.0  0.9107740587364648  0.9210295909848014  0.0113873443005161  1.0000
  C   C23       1.0  0.9107541732324691  0.4210229241403809  0.4886154989187332  1.0000
  C   C24       1.0  0.0892438302001892  0.07897426619349088  0.9886162482275864  1.0000
  N   N1        1.0  0.31739123589544255  0.8331130769848798  0.2308110710987066  1.0000
  N   N2        1.0  0.6826098677092106  0.6668854060201923  0.7308107516172839  1.0000
  N   N3        1.0  0.6826066966634415  0.16688443918261697  0.7691896165927901  1.0000
  N   N4        1.0  0.3173928015252799  0.3331172496771017  0.2691899360730829  1.0000
  N   N5        1.0  0.08081115564414885  0.7469924868855031  0.3160064295210105  1.0000
  N   N6        1.0  0.919188842407948  0.7530096331957735  0.8160066935774921  1.0000
  N   N7        1.0  0.9191832825723911  0.25300634196688077  0.6839919343006357  1.0000
  N   N8        1.0  0.08081567935408172  0.2469943034135156  0.183993413145437  1.0000
  O   O1        1.0  0.7075328093163763  0.555939118259424  0.3013232088054352  1.0000
  O   O2        1.0  0.2924653326832853  0.9440617631999686  0.8013231823264704  1.0000
  O   O3        1.0  0.29246542833940486  0.4440558122596485  0.6986763169525004  1.0000
  O   O4        1.0  0.7075351789265554  0.05594219723627699  0.19867750536317894  1.0000
  O   O5        1.0  0.7526777290410608  0.4285643239679473  0.1924017769601321  1.0000
  O   O6        1.0  0.24732308743163867  0.0714375781052397  0.692401410103038  1.0000
  O   O7        1.0  0.24732041423056475  0.5714370667084125  0.8075954249266459  1.0000
  O   O8        1.0  0.7526801919965821  0.9285599062960441  0.3075963727529683  1.0000
  O   O9        1.0  0.09012823367331178  0.7257946272935172  0.49000089708953715  1.0000
  O   O10       1.0  0.909873447961772  0.7742043980755254  0.9900023063376366  1.0000
  O   O11       1.0  0.9098580679098519  0.2741939145516453  0.510000952537979  1.0000
  O   O12       1.0  0.0901411573460393  0.22580464628732239  0.0100018671555304  1.0000
  O   O13       1.0  0.06663679116727651  0.5343794401176893  0.0812783063170741  1.0000
  O   O14       1.0  0.9333634556340659  0.965620770348501  0.5812790110856483  1.0000
  O   O15       1.0  0.9333688565984704  0.4656206140518434  0.9187171526694086  1.0000
  O   O16       1.0  0.06663149839252472  0.034379347359312404  0.41871819080115097  1.0000
  O   O17       1.0  0.46903952437342866  0.6245732774875562  0.4197678506315938  1.0000
  O   O18       1.0  0.5309613194944092  0.875427246956498  0.9197679319594839  1.0000
  O   O19       1.0  0.5309562505607418  0.37542554341971623  0.5802322560919463  1.0000
  O   O20       1.0  0.4690453598923412  0.1245753849130082  0.08023275573140859  1.0000
  O   O21       1.0  0.2210000906645179  0.5506479549536111  0.548412000311309  1.0000
  O   O22       1.0  0.7789996324368433  0.9493510613168965  0.04841235986992129  1.0000
  O   O23       1.0  0.7789827165766496  0.4493418995722535  0.4515904302825504  1.0000
  O   O24       1.0  0.22101527796800016  0.050655397395850295  0.9515918136241622  1.0000
  O   O25       1.0  0.6570798157960952  0.9705130644553391  0.4520253826928951  1.0000
  O   O26       1.0  0.3429173307602226  0.5294848052610489  0.9520262307559831  1.0000
  O   O27       1.0  0.3429090648375352  0.029481921664427094  0.5479724001620953  1.0000
  O   O28       1.0  0.6570906853436753  0.47051781866920084  0.04797213306612489  1.0000
  O   O29       1.0  0.28370786858005204  0.7960751958615261  0.0645934475570513  1.0000
  O   O30       1.0  0.716292069118687  0.7039276483116552  0.5645919497364174  1.0000
  O   O31       1.0  0.7163039469633007  0.20392352973290429  0.9354078211030554  1.0000
  O   O32       1.0  0.2836964120343736  0.29607638360797484  0.4354087379516542  1.0000
