data_image0
_chemical_formula_structural       Zn4H49C69N17O4
_chemical_formula_sum              "Zn4 H49 C69 N17 O4"
_cell_length_a       14.519762518393053
_cell_length_b       14.671000475420653
_cell_length_c       14.878941060124584
_cell_angle_alpha    103.71353086168033
_cell_angle_beta     112.09189004164625
_cell_angle_gamma    111.8512789950865

_space_group_name_H-M_alt    "P 1"
_space_group_IT_number       1

loop_
  _space_group_symop_operation_xyz
  'x, y, z'

loop_
  _atom_site_type_symbol
  _atom_site_label
  _atom_site_symmetry_multiplicity
  _atom_site_fract_x
  _atom_site_fract_y
  _atom_site_fract_z
  _atom_site_occupancy
  Zn  Zn1       1.0  0.8691554925367342  0.8628359390574615  0.5019015361458798  1.0000
  Zn  Zn2       1.0  0.1502816040307096  0.14344202469553838  0.4966707172842533  1.0000
  Zn  Zn3       1.0  0.14922371299542184  0.9984511742510022  0.6323291700877076  1.0000
  Zn  Zn4       1.0  0.8669902960731121  0.004276443922698442  0.3623485220061368  1.0000
  H   H1        1.0  0.8214754021084473  0.005137493004362094  0.6613984967401904  1.0000
  H   H2        1.0  0.39157081559658025  0.4439031206706687  0.3183422324020526  1.0000
  H   H3        1.0  0.3449244963365671  0.5689124640209825  0.2526292953119905  1.0000
  H   H4        1.0  0.19776016115753953  0.3482731857201671  0.681791955745865  1.0000
  H   H5        1.0  0.5059622759859651  0.657432657384305  0.6417168202723218  1.0000
  H   H6        1.0  0.24796559376338217  0.7379996631556338  0.4155223407049319  1.0000
  H   H7        1.0  0.4064899107033071  0.8911894440935625  0.21173936686855643  1.0000
  H   H8        1.0  0.057164084184776705  0.7773215918022628  0.1104654312032949  1.0000
  H   H9        1.0  0.9701482260352989  0.84745096076243  0.9860885253443499  1.0000
  H   H10       1.0  0.09407573772226396  0.026662759534921917  0.9974711258080404  1.0000
  H   H11       1.0  0.305262199520513  0.1342644593970661  0.13265376460169157  1.0000
  H   H12       1.0  0.1749585188312253  0.006744229005874955  0.31118141388849097  1.0000
  H   H13       1.0  0.3922700877084253  0.0621987143911866  0.2551944499647831  1.0000
  H   H14       1.0  0.8505076647229542  0.352049209845127  0.6431821994599644  1.0000
  H   H15       1.0  0.4083014822512041  0.17004524858142392  0.8521780794368183  1.0000
  H   H16       1.0  0.22959823858847267  0.6861588355903407  0.6474762926193662  1.0000
  H   H17       1.0  0.3033235537000606  0.7348505006918556  0.7906119806816887  1.0000
  H   H18       1.0  0.23199089003183096  0.5141642243941432  0.6254142641159888  1.0000
  H   H19       1.0  0.30581610199082127  0.5615772416022367  0.7685752536321572  1.0000
  H   H20       1.0  0.7820283071532899  0.6626117655876341  0.9982514906405553  1.0000
  H   H21       1.0  0.6308967044682631  0.49737850428134317  0.8307668062302014  1.0000
  H   H22       1.0  0.4514299356423662  0.32685821507467233  0.043718069399652386  1.0000
  H   H23       1.0  0.19961089668890952  0.8346825887484854  0.7400102501213367  1.0000
  H   H24       1.0  0.5448447276322952  0.27221537248735217  0.05825127875748138  1.0000
  H   H25       1.0  0.6067789291649816  0.4936414151005194  0.2137756491474292  1.0000
  H   H26       1.0  0.5877975903272413  0.9387127157584626  0.25587587623310526  1.0000
  H   H27       1.0  0.7018638042253613  0.4408464616336473  0.2295982525467579  1.0000
  H   H28       1.0  0.17133944860011496  0.29638533100745684  0.17069276552780366  1.0000
  H   H29       1.0  0.786125590796182  0.9087016334644102  0.94747659988257  1.0000
  H   H30       1.0  0.7171569595833348  0.987187983036051  0.9334792451211911  1.0000
  H   H31       1.0  0.7904707296586152  0.9003926238126424  0.779400526010896  1.0000
  H   H32       1.0  0.7217894500364964  0.9791339505634227  0.7646957564379235  1.0000
  H   H33       1.0  0.41493019112443347  0.36828803846265135  0.678201620111764  1.0000
  H   H34       1.0  0.8180850162011025  0.04187989140073269  0.1405792820394538  1.0000
  H   H35       1.0  0.6003281295846321  0.7577405571177351  0.4471504051943285  1.0000
  H   H36       1.0  0.8227013982984772  0.1780178113858142  0.5000238513575112  1.0000
  H   H37       1.0  0.196862120667589  0.1764576733431723  0.846786043012777  1.0000
  H   H38       1.0  0.8373834055536448  0.6512776064093302  0.33957049786272353  1.0000
  H   H39       1.0  0.500464412079502  0.8873368331444097  0.7329758093054507  1.0000
  H   H40       1.0  0.7653540639495516  0.44823257628274843  0.6495883645819304  1.0000
  H   H41       1.0  0.7572035534313032  0.5994697128720502  0.7353267259773303  1.0000
  H   H42       1.0  0.8981150715668134  0.6897478912821593  0.7659259096426678  1.0000
  H   H43       1.0  0.8804304498665516  0.6053513555906561  0.8339660504173665  1.0000
  H   H44       1.0  0.25844358877733237  0.4162495844036868  0.9616354839824978  1.0000
  H   H45       1.0  0.1924961141735864  0.23208651112678064  0.3182449565953219  1.0000
  H   H46       1.0  0.825399983762594  0.6501226512730796  0.5672874765657027  1.0000
  H   H47       1.0  0.8338663746123558  0.8365505325345524  0.1516652463598831  1.0000
  H   H48       1.0  0.1659591097142226  0.8079445978016435  0.4856383294758544  1.0000
  H   H49       1.0  0.4724450299808254  0.4870347065729561  0.5149895920999157  1.0000
  C   C1        1.0  0.9134139420157226  0.03818670857329919  0.6924294107905737  1.0000
  C   C2        1.0  0.9165114479928035  0.7095580148793984  0.6046005420256932  1.0000
  C   C3        1.0  0.8427653325923997  0.8065597206365068  0.21273382483732914  1.0000
  C   C4        1.0  0.10544467249741982  0.2917033248218032  0.6277356958531327  1.0000
  C   C5        1.0  0.16338872292102738  0.865678646368721  0.45209191423187167  1.0000
  C   C6        1.0  0.8134744523409693  0.7003884627160845  0.203080439676306  1.0000
  C   C7        1.0  0.1855442922652203  0.8801093001138651  0.37030059313263314  1.0000
  C   C8        1.0  0.01368205315212375  0.7054029857592141  0.6688155413682891  1.0000
  C   C9        1.0  0.004184874933542894  0.1455894297694371  0.18906637916145289  1.0000
  C   C10       1.0  0.40652122537563423  0.5176348843326294  0.3755191884543194  1.0000
  C   C11       1.0  0.3805949280752116  0.5885972747999375  0.33811141379750603  1.0000
  C   C12       1.0  0.012023984907585794  0.3065902098745638  0.6164439350701868  1.0000
  C   C13       1.0  0.4009286457779595  0.6860250677682274  0.4085327367227265  1.0000
  C   C14       1.0  0.44730353434076864  0.7103016347606753  0.5190742182983854  1.0000
  C   C15       1.0  0.470340624886596  0.6371346676122727  0.5560956424525827  1.0000
  C   C16       1.0  0.39266545031163963  0.20391720255899765  0.7943463479228043  1.0000
  C   C17       1.0  0.45143733131284586  0.541883751151829  0.4849662933785621  1.0000
  C   C18       1.0  0.2824698114605226  0.772569024342836  0.3701803239827867  1.0000
  C   C19       1.0  0.2436491413160695  0.8357925215620982  0.32779332947278306  1.0000
  C   C20       1.0  0.28188044345875346  0.8686205384637375  0.2597885464570311  1.0000
  C   C21       1.0  0.3730591516137451  0.8581557316541788  0.25836195552871993  1.0000
  C   C22       1.0  0.4251137215660279  0.8108321822413487  0.3159010396642471  1.0000
  C   C23       1.0  0.45995357282686206  0.3088787978173571  0.8063199850757385  1.0000
  C   C24       1.0  0.36932143787116434  0.7572191474459656  0.3636416142153891  1.0000
  C   C25       1.0  0.11121772340704439  0.8554827843810031  0.11487928047817768  1.0000
  C   C26       1.0  0.06275131596108709  0.8952506695848044  0.04554494746350458  1.0000
  C   C27       1.0  0.1321777161761588  0.9954168525077732  0.0513238455627629  1.0000
  C   C28       1.0  0.6083527390146486  0.8981559770828368  0.3061948923935986  1.0000
  C   C29       1.0  0.2508116950732884  0.055440836104828875  0.1269154100541527  1.0000
  C   C30       1.0  0.29970496383175765  0.015095548024959259  0.19562463395990187  1.0000
  C   C31       1.0  0.23060353665624686  0.9147531422849652  0.19070111437527254  1.0000
  C   C32       1.0  0.11793350006770723  0.5088425755145991  0.6930758968223928  1.0000
  C   C33       1.0  0.01975351146956685  0.4109481968546902  0.6604274836769476  1.0000
  C   C34       1.0  0.5388699933594693  0.8307029313642288  0.33576526474766405  1.0000
  C   C35       1.0  0.9272854314289846  0.4229871066213348  0.6596118231273776  1.0000
  C   C36       1.0  0.9262721961994558  0.5211847171833668  0.6750332227961309  1.0000
  C   C37       1.0  0.02023906887936278  0.6151061418282068  0.6895317465689956  1.0000
  C   C38       1.0  0.11672240505692605  0.6054411064121579  0.7058134093464544  1.0000
  C   C39       1.0  0.2326153316841726  0.6634882492942397  0.7134521732227982  1.0000
  C   C40       1.0  0.3969008055440568  0.3046668245576071  0.7053921581334421  1.0000
  C   C41       1.0  0.23415976265169997  0.5542456789044365  0.6994121943951512  1.0000
  C   C42       1.0  0.6739697474998537  0.5001966128727773  0.102090858016993  1.0000
  C   C43       1.0  0.7443761829706118  0.5983151180556946  0.10513404498004768  1.0000
  C   C44       1.0  0.7274150329763955  0.5909713555806135  0.0028877868292625  1.0000
  C   C45       1.0  0.8433944635283624  0.7117375443489422  0.3083857464619086  1.0000
  C   C46       1.0  0.6406110632945783  0.49652448006202105  0.9069765204523321  1.0000
  C   C47       1.0  0.5629202985215258  0.4011123758747743  0.9045914255343632  1.0000
  C   C48       1.0  0.5871737964241817  0.4063166916970927  0.006570411802705703  1.0000
  C   C49       1.0  0.5394466996279093  0.3459593689320569  0.0633814360001779  1.0000
  C   C50       1.0  0.6381937066722115  0.4522396057773148  0.17164102613390497  1.0000
  C   C51       1.0  0.9073764467528491  0.0763683677865289  0.8958343820797623  1.0000
  C   C52       1.0  0.6143535703067754  0.8062099115593284  0.40376510140738725  1.0000
  C   C53       1.0  0.003999040221337702  0.1453945087602334  0.8948880220933971  1.0000
  C   C54       1.0  0.09730359749205063  0.22976565534700902  0.9998205671461733  1.0000
  C   C55       1.0  0.09475531986250023  0.2315432219972422  0.09383760580552548  1.0000
  C   C56       1.0  0.1680082232294779  0.9671405842697209  0.36316267257926427  1.0000
  C   C57       1.0  0.00033350705423630867  0.1545025601195817  0.0928017266367007  1.0000
  C   C58       1.0  0.9048704283275625  0.08056056875922456  0.9892397391365433  1.0000
  C   C59       1.0  0.7869072547853762  0.9771350664863476  0.9288299005773765  1.0000
  C   C60       1.0  0.7896543063241168  0.9719523220696401  0.8227405930817183  1.0000
  C   C61       1.0  0.9140010332086845  0.2045330607281314  0.5357616470717659  1.0000
  C   C62       1.0  0.10511914441054428  0.1266128972118636  0.7867993868751029  1.0000
  C   C63       1.0  0.008945509514255412  0.11389049271636505  0.7970359742069562  1.0000
  C   C64       1.0  0.4840423326358517  0.8183062359037122  0.599268393789515  1.0000
  C   C65       1.0  0.8422128860223168  0.6085719416146063  0.7558251680030351  1.0000
  C   C66       1.0  0.20318235715159008  0.3222253211900891  0.019717213644049998  1.0000
  C   C67       1.0  0.10744734762344889  0.8029362966037823  0.6920197959941845  1.0000
  C   C68       1.0  0.9102335013933994  0.08568431633104712  0.19899343220313168  1.0000
  C   C69       1.0  0.10107952019440351  0.18410151295011445  0.29017098118031726  1.0000
  N   N1        1.0  0.9509890797092951  0.008291636447282374  0.6271231182698358  1.0000
  N   N2        1.0  0.29822696486868233  0.14269688504319325  0.694741039017785  1.0000
  N   N3        1.0  0.7150106715229114  0.9122498860149975  0.3525564504465422  1.0000
  N   N4        1.0  0.3003902778389076  0.2054388049187849  0.6392803844356577  1.0000
  N   N5        1.0  0.7183416723871687  0.8547862828757785  0.41320332072578475  1.0000
  N   N6        1.0  0.9479246549675936  0.13644396557647542  0.5012493945319889  1.0000
  N   N7        1.0  0.06857271962751806  0.06236748103308527  0.6852402822578723  1.0000
  N   N8        1.0  0.8848740094752898  0.8157501521996692  0.3738243965444781  1.0000
  N   N9        1.0  0.8272549797171964  0.5232138765555163  0.6673762101184266  1.0000
  N   N10       1.0  0.14051647247439555  0.0015376646142258043  0.4360791930293431  1.0000
  N   N11       1.0  0.06927215978547704  0.8592775530171861  0.6449134809426836  1.0000
  N   N12       1.0  0.9482003490976255  0.08889343953593712  0.29776469332672656  1.0000
  N   N13       1.0  0.0671244066646821  0.14989775803282868  0.3545090771654245  1.0000
  N   N14       1.0  0.9503949270130008  0.8012439805523498  0.5904372101811433  1.0000
  N   N15       1.0  0.8840240906414748  0.8740250087631336  0.3151676520962353  1.0000
  N   N16       1.0  0.1377040749239384  0.9394218962612583  0.4907650437873059  1.0000
  N   N17       1.0  0.06549098686968337  0.1899629230089913  0.5579299843520644  1.0000
  O   O1        1.0  0.5272623231086726  0.9055596220368685  0.5958087752345591  1.0000
  O   O2        1.0  0.4689894459509318  0.8117518411732405  0.6836898200209874  1.0000
  O   O3        1.0  0.2990230628361132  0.37072323961146475  0.10222879674974189  1.0000
  O   O4        1.0  0.18402649657910078  0.35387221172062755  0.9387225686124692  1.0000
