data_image0
_chemical_formula_structural       Cu2H16C16N8Cl4O16
_chemical_formula_sum              "Cu2 H16 C16 N8 Cl4 O16"
_cell_length_a       8.499510890499083
_cell_length_b       8.499491965333982
_cell_length_c       9.820646576908254
_cell_angle_alpha    84.40134746469911
_cell_angle_beta     84.4012273142077
_cell_angle_gamma    69.40817073579521

_space_group_name_H-M_alt    "P 1"
_space_group_IT_number       1

loop_
  _space_group_symop_operation_xyz
  'x, y, z'

loop_
  _atom_site_type_symbol
  _atom_site_label
  _atom_site_symmetry_multiplicity
  _atom_site_fract_x
  _atom_site_fract_y
  _atom_site_fract_z
  _atom_site_occupancy
  Cu  Cu1       1.0  0.749956976215401  0.2500451272456203  0.7499998450363139  1.0000
  Cu  Cu2       1.0  0.25005541133856474  0.7499444823727117  0.25000034203689847  1.0000
  H   H1        1.0  0.8218910627737019  0.8979218603115698  0.8794217397056413  1.0000
  H   H2        1.0  0.10208089608220663  0.17810981635014397  0.6205775543726733  1.0000
  H   H3        1.0  0.17812790551114688  0.1020827976972498  0.120604152178295  1.0000
  H   H4        1.0  0.8979191919812666  0.8218710461176287  0.37939891626623284  1.0000
  H   H5        1.0  0.006052375829632697  0.28082502328543063  0.9346771215009254  1.0000
  H   H6        1.0  0.7191764566205879  0.9939486526248018  0.5653245007335174  1.0000
  H   H7        1.0  0.9939561495747998  0.7191481937495611  0.06534306909114208  1.0000
  H   H8        1.0  0.2808528360580809  0.006043474603849599  0.4346577881321352  1.0000
  H   H9        1.0  0.3908628260580898  0.3404341781832301  0.8648798146993144  1.0000
  H   H10       1.0  0.6595639257145366  0.6091417165258902  0.6351173983699071  1.0000
  H   H11       1.0  0.6091417386431032  0.6595780836065613  0.13513238370422445  1.0000
  H   H12       1.0  0.3404222330781437  0.3908555207529291  0.3648680344719892  1.0000
  H   H13       1.0  0.7878233989108098  0.49187477846052025  0.9487242725052385  1.0000
  H   H14       1.0  0.508125230947023  0.2121761852340356  0.5512770209226617  1.0000
  H   H15       1.0  0.21215851700062419  0.508131252262153  0.051276058076112505  1.0000
  H   H16       1.0  0.49186934899633167  0.7878411583292005  0.4487192906289722  1.0000
  C   C1        1.0  0.9021110564767199  0.9436413575737247  0.9324017466756446  1.0000
  C   C2        1.0  0.056357913272400105  0.0978911414183088  0.5675997286486236  1.0000
  C   C3        1.0  0.0978862135656229  0.0563646235271662  0.06761055592261302  1.0000
  C   C4        1.0  0.9436367159007445  0.9021123673731992  0.4323895766077541  1.0000
  C   C5        1.0  0.00042677304401199  0.15641753120657856  0.9641841240216849  1.0000
  C   C6        1.0  0.8435855137248398  0.999572025564696  0.5358184528536968  1.0000
  C   C7        1.0  0.9995661970193056  0.8435871964864886  0.0358296560187981  1.0000
  C   C8        1.0  0.1564129785391373  0.0004339928060019997  0.4641713437519713  1.0000
  C   C9        1.0  0.44074772211263286  0.41196726113214777  0.9240530954603372  1.0000
  C   C10       1.0  0.5880338435649933  0.5592527567217969  0.5759432088417711  1.0000
  C   C11       1.0  0.5592649067118601  0.5880148012282475  0.07594362263109392  1.0000
  C   C12       1.0  0.41198414032486136  0.4407343234991714  0.4240577429075286  1.0000
  C   C13       1.0  0.6596970624832325  0.49322430955515273  0.9712436375916128  1.0000
  C   C14       1.0  0.5067729514563126  0.3403029381641502  0.528756959651453  1.0000
  C   C15       1.0  0.3403127672790872  0.5067590166107296  0.028753207442583993  1.0000
  C   C16       1.0  0.4932418018485691  0.6596866673928262  0.47124303214729946  1.0000
  N   N1        1.0  0.9023793715311966  0.1002167458531602  0.8973675978526289  1.0000
  N   N2        1.0  0.8997849072175015  0.09762136399154292  0.6026329590616016  1.0000
  N   N3        1.0  0.097663141949802  0.8997400118305166  0.10267049042854384  1.0000
  N   N4        1.0  0.10025967104938625  0.9023367815674632  0.3973294920544675  1.0000
  N   N5        1.0  0.6007850021328166  0.40497108179561553  0.8961474161626202  1.0000
  N   N6        1.0  0.5950298765081214  0.3992164085187611  0.6038517112285078  1.0000
  N   N7        1.0  0.39918034708253464  0.595058844688836  0.10388285642529384  1.0000
  N   N8        1.0  0.4049409404457478  0.6008186483685519  0.3961186256360065  1.0000
  Cl  Cl1       1.0  0.4443729758248693  0.0080422630759074  0.7787723395353013  1.0000
  Cl  Cl2       1.0  0.9919547116827372  0.5556283890437757  0.7212289174153312  1.0000
  Cl  Cl3       1.0  0.5555706968366749  0.9919512504552372  0.2212281150568743  1.0000
  Cl  Cl4       1.0  0.008048148161648835  0.4444266977867457  0.2787707166464629  1.0000
  O   O1        1.0  0.5893216661990338  0.06120639062437049  0.7932664332874071  1.0000
  O   O2        1.0  0.9387929259893256  0.4106779084395669  0.7067346864121475  1.0000
  O   O3        1.0  0.41066727207685727  0.9387617954040552  0.20677208508730158  1.0000
  O   O4        1.0  0.06123710815839445  0.5893293523611476  0.2932310158628724  1.0000
  O   O5        1.0  0.45781889197972  0.9528752919370973  0.6406004815345696  1.0000
  O   O6        1.0  0.04712340230742736  0.5421810954157638  0.8594016770416886  1.0000
  O   O7        1.0  0.5421688517486486  0.0471067684078292  0.3594237509788699  1.0000
  O   O8        1.0  0.95289348347886  0.4578299452738648  0.14057600078820803  1.0000
  O   O9        1.0  0.2905220090147367  0.15357100131275564  0.7974228144884492  1.0000
  O   O10       1.0  0.8464255693824896  0.7094788619005216  0.7025798338831707  1.0000
  O   O11       1.0  0.7094729588141815  0.8464211633688379  0.20257452859615202  1.0000
  O   O12       1.0  0.15358043556084774  0.29052586667813063  0.297419630846889  1.0000
  O   O13       1.0  0.44524341019548797  0.8720872023521054  0.8801477025752292  1.0000
  O   O14       1.0  0.1279094733200026  0.5547603141329989  0.6198552640853451  1.0000
  O   O15       1.0  0.5546806914336885  0.1279012962499309  0.11986191274511532  1.0000
  O   O16       1.0  0.8721000226976158  0.4453098764659701  0.38013849937735245  1.0000
