data_image0
_chemical_formula_structural       MnH16C8Br2O2
_chemical_formula_sum              "Mn1 H16 C8 Br2 O2"
_cell_length_a       3.8853294008987445
_cell_length_b       7.651941881010239
_cell_length_c       9.274062401755728
_cell_angle_alpha    94.08310157307929
_cell_angle_beta     100.30027570749947
_cell_angle_gamma    90.05433506326337

_space_group_name_H-M_alt    "P 1"
_space_group_IT_number       1

loop_
  _space_group_symop_operation_xyz
  'x, y, z'

loop_
  _atom_site_type_symbol
  _atom_site_label
  _atom_site_symmetry_multiplicity
  _atom_site_fract_x
  _atom_site_fract_y
  _atom_site_fract_z
  _atom_site_occupancy
  Mn  Mn1       1.0  0.5001185863708386  2.226977134260013e-05  8.865974095301254e-06  1.0000
  H   H1        1.0  0.8634386146810724  0.616223025634362  0.14237931493020275  1.0000
  H   H2        1.0  0.5997396140557997  0.4077471466219863  0.9145608044180091  1.0000
  H   H3        1.0  0.13677068391712063  0.38377049472889274  0.8576694474581216  1.0000
  H   H4        1.0  0.4005046420409073  0.592251611169516  0.08540478460238889  1.0000
  H   H5        1.0  0.3153055028106948  0.551154646625804  0.33201046940863677  1.0000
  H   H6        1.0  0.2654317736754308  0.540869965172128  0.6578439357195547  1.0000
  H   H7        1.0  0.6846994145636175  0.44870418039132437  0.6678770801114097  1.0000
  H   H8        1.0  0.7347609590286481  0.4591955975515063  0.34220693083076265  1.0000
  H   H9        1.0  0.9975368643878183  0.7088068288864167  0.49342603579948724  1.0000
  H   H10       1.0  0.4279783113231375  0.23581105390052673  0.48403805756306884  1.0000
  H   H11       1.0  0.0018155337129997034  0.29126229646188767  0.5068389128295364  1.0000
  H   H12       1.0  0.5710632115418548  0.7642993007908175  0.515760201844806  1.0000
  H   H13       1.0  0.6236138340509927  0.008825525909046  0.37078849642539774  1.0000
  H   H14       1.0  0.9781668050909363  0.0763937712620191  0.6732284951710241  1.0000
  H   H15       1.0  0.3767651636096545  0.9912551339201631  0.6291424209069446  1.0000
  H   H16       1.0  0.0221107861219991  0.9233954324556565  0.32681604085682636  1.0000
  C   C1        1.0  0.6081559783348708  0.6431471114596479  0.17421787087758384  1.0000
  C   C2        1.0  0.39196166025914175  0.3568519390159751  0.8257643497886632  1.0000
  C   C3        1.0  0.5873947420157323  0.580245316889247  0.32433048857476615  1.0000
  C   C4        1.0  0.41258111866805075  0.41975115443096206  0.6756518880741922  1.0000
  C   C5        1.0  0.7361331438399503  0.7357097433013422  0.4328872261685602  1.0000
  C   C6        1.0  0.2634653602744237  0.2643302708235425  0.56711062764888  1.0000
  C   C7        1.0  0.752538120085191  0.8894752106830027  0.3363955157460693  1.0000
  C   C8        1.0  0.24758085067705335  0.1104939265032385  0.6635993987271362  1.0000
  Br  Br1       1.0  0.9450871638808139  0.8011307438989306  0.8726728282396647  1.0000
  Br  Br2       1.0  0.055119836097631505  0.19887587580138444  0.12737637504303478  1.0000
  O   O1        1.0  0.5627435378144696  0.8315024202020996  0.1913259991101626  1.0000
  O   O2        1.0  0.437410495848809  0.16849807865964547  0.8086657357712851  1.0000
