data_image0
_chemical_formula_structural       Zn8H64C100N32O12F4
_chemical_formula_sum              "Zn8 H64 C100 N32 O12 F4"
_cell_length_a       15.181186291771256
_cell_length_b       15.16703080838967
_cell_length_c       22.806842007747125
_cell_angle_alpha    90.00020971400446
_cell_angle_beta     90.00397531079228
_cell_angle_gamma    82.27926836797455

_space_group_name_H-M_alt    "P 1"
_space_group_IT_number       1

loop_
  _space_group_symop_operation_xyz
  'x, y, z'

loop_
  _atom_site_type_symbol
  _atom_site_label
  _atom_site_symmetry_multiplicity
  _atom_site_fract_x
  _atom_site_fract_y
  _atom_site_fract_z
  _atom_site_occupancy
  Zn  Zn1       1.0  0.46755974573953557  0.4334849582141301  0.5806751935576954  1.0000
  Zn  Zn2       1.0  0.5993666892800819  0.5871165915619799  0.5771416097589891  1.0000
  Zn  Zn3       1.0  0.9006836319846628  0.9128636770512698  0.07703128937406939  1.0000
  Zn  Zn4       1.0  0.03240044516982721  0.06652427636410609  0.08068405675631139  1.0000
  Zn  Zn5       1.0  0.5994993125942828  0.587376112727604  0.4281258098764055  1.0000
  Zn  Zn6       1.0  0.45232918907490216  0.4476854362548011  0.4368844753312259  1.0000
  Zn  Zn7       1.0  0.047696350415897405  0.0523197799835629  0.9369206305437388  1.0000
  Zn  Zn8       1.0  0.9005802429976981  0.9125708645542548  0.9280623010856816  1.0000
  H   H1        1.0  0.9759964258587248  0.47068053223824785  0.4060612092519874  1.0000
  H   H2        1.0  0.13748497392237627  0.5625336607970938  0.375852624121265  1.0000
  H   H3        1.0  0.3624285654063613  0.9373872578547378  0.8758020091449481  1.0000
  H   H4        1.0  0.5241492251310192  0.02897267997337853  0.9058659029689408  1.0000
  H   H5        1.0  0.9737773970319452  0.5763236747155105  0.37047418756610273  1.0000
  H   H6        1.0  0.14207838484795593  0.4576481000877095  0.4121167494099396  1.0000
  H   H7        1.0  0.3580862655372671  0.04227563811391378  0.9120256334508383  1.0000
  H   H8        1.0  0.5261567849335905  0.9232824733153961  0.8703594948010005  1.0000
  H   H9        1.0  0.19620976035991336  0.6635223241947942  0.3400415895675124  1.0000
  H   H10       1.0  0.8374732424781755  0.3360591987225306  0.2980246599375462  1.0000
  H   H11       1.0  0.6623824348329919  0.16408895407798946  0.7982658385699891  1.0000
  H   H12       1.0  0.30372116829173734  0.8365329312426796  0.8399753329415346  1.0000
  H   H13       1.0  0.8680814449497805  0.3015570079604117  0.6683180616865627  1.0000
  H   H14       1.0  0.23463921425453557  0.601974913233633  0.7032100086830368  1.0000
  H   H15       1.0  0.265267544044832  0.8979799597831359  0.2031877057646057  1.0000
  H   H16       1.0  0.6317518755816282  0.19836359558006927  0.16821178804879366  1.0000
  H   H17       1.0  0.3878426576190322  0.7960238929742545  0.24630112782122635  1.0000
  H   H18       1.0  0.5754602246723196  0.2690384312720298  0.26076818781736216  1.0000
  H   H19       1.0  0.9244222708571856  0.23089287178686385  0.7608767274525049  1.0000
  H   H20       1.0  0.11207852491198621  0.7039745438126914  0.7462733586822949  1.0000
  H   H21       1.0  0.48186864222536496  0.9225036563793196  0.5973670620712709  1.0000
  H   H22       1.0  0.46260011172518745  0.08580560135652598  0.5943252083234754  1.0000
  H   H23       1.0  0.0369532342699088  0.4143165868565077  0.0942736577128116  1.0000
  H   H24       1.0  0.01788543643210262  0.5776217525293532  0.0973529411715006  1.0000
  H   H25       1.0  0.49343612776468865  0.7232983073846243  0.3270164035290293  1.0000
  H   H26       1.0  0.5538780710318321  0.2820627757298197  0.3700306216089899  1.0000
  H   H27       1.0  0.946085734565678  0.2179832073936083  0.8701583651408099  1.0000
  H   H28       1.0  0.006471377030457919  0.7768098086722618  0.8268877405713152  1.0000
  H   H29       1.0  0.4331487820850343  0.7499409445095396  0.5990617322720553  1.0000
  H   H30       1.0  0.4087550324467984  0.23163569669086564  0.6026542542349915  1.0000
  H   H31       1.0  0.0909682597391068  0.2684312302909504  0.10277860223503409  1.0000
  H   H32       1.0  0.06689756928839333  0.7501907256002838  0.09906691031998349  1.0000
  H   H33       1.0  0.2773029307168997  0.582084486807048  0.42592430648613794  1.0000
  H   H34       1.0  0.8187316341573735  0.5973608401007837  0.41390576066940804  1.0000
  H   H35       1.0  0.6814272008931822  0.9023968410964898  0.9137659093353534  1.0000
  H   H36       1.0  0.22269510512469995  0.9179033860542916  0.9259375409610371  1.0000
  H   H37       1.0  0.27958678415762966  0.5486051268706901  0.6140890907068766  1.0000
  H   H38       1.0  0.7967893119270358  0.6348558510972852  0.601456777738079  1.0000
  H   H39       1.0  0.7032867471470752  0.8649832072277804  0.10133047988138338  1.0000
  H   H40       1.0  0.22050748152229002  0.9515779377951006  0.11409106277029929  1.0000
  H   H41       1.0  0.30992284696116457  0.5295131649920821  0.3348854391882269  1.0000
  H   H42       1.0  0.7466033224782793  0.46664980360190356  0.35433442742441196  1.0000
  H   H43       1.0  0.7533092236633152  0.033441620137267675  0.8545095777888674  1.0000
  H   H44       1.0  0.19009876700583564  0.9704604750407171  0.8349178848464474  1.0000
  H   H45       1.0  0.5068915900748083  0.704005899674648  0.6888327914889985  1.0000
  H   H46       1.0  0.5975041915412831  0.2545797755084322  0.5818818724132625  1.0000
  H   H47       1.0  0.90237488332415  0.24538625100242936  0.0818077418454379  1.0000
  H   H48       1.0  0.99297645482352  0.7960091495703239  0.18882566610785284  1.0000
  H   H49       1.0  0.1147720261233118  0.6547163631359538  0.6048241934198301  1.0000
  H   H50       1.0  0.9531922718638626  0.6680707678532727  0.5994357627180094  1.0000
  H   H51       1.0  0.5469323024498536  0.8318353632548112  0.09935576700089399  1.0000
  H   H52       1.0  0.38536793504299277  0.845292906017896  0.1047887251041359  1.0000
  H   H53       1.0  0.32484874571468936  0.47668323055644624  0.7370004209936168  1.0000
  H   H54       1.0  0.7898027075094944  0.43264986757831303  0.6795949806817703  1.0000
  H   H55       1.0  0.7100018765470253  0.06730014252078578  0.17940356408252706  1.0000
  H   H56       1.0  0.17508968293302732  0.023307118652432696  0.23699790366269716  1.0000
  H   H57       1.0  0.5736158429075928  0.27604738918397237  0.6735250156432215  1.0000
  H   H58       1.0  0.4814642808068329  0.6868420425309979  0.7874979243619931  1.0000
  H   H59       1.0  0.018463784234640523  0.813213017381493  0.2874540355217405  1.0000
  H   H60       1.0  0.9262101742361395  0.22403898537678657  0.1733311226342025  1.0000
  H   H61       1.0  0.3387839945687077  0.14179475848197143  0.40600264240818257  1.0000
  H   H62       1.0  0.3235921040514711  0.952632512278562  0.391382641296083  1.0000
  H   H63       1.0  0.1770226619390201  0.5474465588947907  0.8916520818063487  1.0000
  H   H64       1.0  0.16156633833568895  0.35822227556936065  0.9061670267797977  1.0000
  C   C1        1.0  0.4186925942707589  0.5193646130555294  0.694506836624157  1.0000
  C   C2        1.0  0.7040146894649125  0.4190089183469681  0.6212611461609043  1.0000
  C   C3        1.0  0.7958501154128186  0.08093652396465965  0.12111581903344158  1.0000
  C   C4        1.0  0.08127921270581606  0.9805994461067302  0.1944680390320244  1.0000
  C   C5        1.0  0.3721866028594719  0.654072311585793  0.3186934781518787  1.0000
  C   C6        1.0  0.6672669141540197  0.3530034778704518  0.3401589734447441  1.0000
  C   C7        1.0  0.8326184374392656  0.147102631674727  0.840342658716956  1.0000
  C   C8        1.0  0.12775745810901643  0.8459753547565754  0.8186388855680276  1.0000
  C   C9        1.0  0.4510714526805443  0.8106795171322503  0.5105274424561941  1.0000
  C   C10       1.0  0.40005301578664654  0.19346471493161496  0.5075868276315347  1.0000
  C   C11       1.0  0.0998214392828629  0.3066130955053907  0.0077101107494286  1.0000
  C   C12       1.0  0.04915643169258029  0.6894061520810978  0.010532414162660998  1.0000
  C   C13       1.0  0.23678690226207522  0.5787496203503367  0.5205962457885603  1.0000
  C   C14       1.0  0.849818632084542  0.6166113618441929  0.5093076647736439  1.0000
  C   C15       1.0  0.6502844738832465  0.8831663385399435  0.0091682363816119  1.0000
  C   C16       1.0  0.26328800674139075  0.9213132528553558  0.0205987895093003  1.0000
  C   C17       1.0  0.09397439247156571  0.5725797327794383  0.4694577816390434  1.0000
  C   C18       1.0  0.001825743083273325  0.5795707339896553  0.466438854027281  1.0000
  C   C19       1.0  0.4982318232096645  0.9202179287711942  0.9663267859572499  1.0000
  C   C20       1.0  0.4060780147743515  0.9273073810076725  0.9693854212850823  1.0000
  C   C21       1.0  0.14008026484030014  0.597300486539666  0.5185370327600862  1.0000
  C   C22       1.0  0.9459876687888383  0.6129079542445623  0.5122842744746805  1.0000
  C   C23       1.0  0.5541078897868275  0.8868819774490504  0.012163080121410999  1.0000
  C   C24       1.0  0.359993466603811  0.9026819191518384  0.0184991619595039  1.0000
  C   C25       1.0  0.08450375418028241  0.6323370315622868  0.5650213986750214  1.0000
  C   C26       1.0  0.9917358130566215  0.6399431462782845  0.5618739064880882  1.0000
  C   C27       1.0  0.5083826115226913  0.859933889022905  0.061784467460782394  1.0000
  C   C28       1.0  0.41561374007782353  0.8676151766712223  0.06496234384418638  1.0000
  C   C29       1.0  0.0027915478940557068  0.534542882537437  0.40685193117246843  1.0000
  C   C30       1.0  0.10738410188391609  0.5261259372520896  0.4105124355072788  1.0000
  C   C31       1.0  0.3926571566143977  0.9737465461179582  0.9104301824053991  1.0000
  C   C32       1.0  0.49724591034709686  0.9651676572612617  0.9067143896774184  1.0000
  C   C33       1.0  0.21271619824253923  0.7134583718832348  0.3091047537938252  1.0000
  C   C34       1.0  0.7909151010643286  0.3070465806367366  0.26990659830148184  1.0000
  C   C35       1.0  0.7089221684442749  0.19305642619924154  0.7701108734996751  1.0000
  C   C36       1.0  0.2872045512460418  0.7865876962536903  0.8090491535664837  1.0000
  C   C37       1.0  0.6766862016980184  0.23379143325462345  0.718195167202367  1.0000
  C   C38       1.0  0.35656357588885607  0.7275255679393595  0.7859063981473824  1.0000
  C   C39       1.0  0.14335465892910557  0.7725192201200527  0.2859504373701043  1.0000
  C   C40       1.0  0.8231360541850209  0.26625652407855677  0.21800696587168028  1.0000
  C   C41       1.0  0.7328369194814357  0.27556711760247066  0.6805273892361825  1.0000
  C   C42       1.0  0.33964716706994846  0.6602328224534945  0.746307625718117  1.0000
  C   C43       1.0  0.16027606448376727  0.8397658046933569  0.24631772280876155  1.0000
  C   C44       1.0  0.7669981411698713  0.22440367192162108  0.1803754102196677  1.0000
  C   C45       1.0  0.4596858422941352  0.6655420638738647  0.3336513483746941  1.0000
  C   C46       1.0  0.5939028003175649  0.3360054976181033  0.37376955923988936  1.0000
  C   C47       1.0  0.9060544717824683  0.1640491460195506  0.8739009541204296  1.0000
  C   C48       1.0  0.040232696346784315  0.8345533523884966  0.8335444214662786  1.0000
  C   C49       1.0  0.8221046731255583  0.2737318230170018  0.6977454887715098  1.0000
  C   C50       1.0  0.2500101205379295  0.6522763139102353  0.7344680584889999  1.0000
  C   C51       1.0  0.24990725597167807  0.8477128039879318  0.23447097660432795  1.0000
  C   C52       1.0  0.6777394346350576  0.22622503708642233  0.19761407614763019  1.0000
  C   C53       1.0  0.3194669097803456  0.7893111590480545  0.2580172962583518  1.0000
  C   C54       1.0  0.6455663959114804  0.26652517939022863  0.24964787596221777  1.0000
  C   C55       1.0  0.8542979923353827  0.23345769519829673  0.749782652666191  1.0000
  C   C56       1.0  0.18045316625638466  0.7107017038804672  0.7579900706984333  1.0000
  C   C57       1.0  0.30167880865300134  0.7189825229598342  0.2944851008094815  1.0000
  C   C58       1.0  0.7020744448358941  0.3075524012825425  0.28677520503409676  1.0000
  C   C59       1.0  0.7977778472858149  0.1925286911674036  0.7869540805278844  1.0000
  C   C60       1.0  0.19824405668664014  0.78105296029144  0.7944363507753777  1.0000
  C   C61       1.0  0.3681728780581182  0.047114333923239826  0.4637325907130076  1.0000
  C   C62       1.0  0.3788691784290918  0.9533341194089574  0.46574745050691035  1.0000
  C   C63       1.0  0.1213296739459722  0.546680400984748  0.9658878355533246  1.0000
  C   C64       1.0  0.1319818592620621  0.4528999979460337  0.9638791813094727  1.0000
  C   C65       1.0  0.4222842035640824  0.9067188600459489  0.5130391062848075  1.0000
  C   C66       1.0  0.3996400384758445  0.09698518769198475  0.5091414944915015  1.0000
  C   C67       1.0  0.10026493573351303  0.4030862151626878  0.009229084227889898  1.0000
  C   C68       1.0  0.0777930080945097  0.5933410912799175  0.013113513309583897  1.0000
  C   C69       1.0  0.44778369629850806  0.9572736554562196  0.5602884263153882  1.0000
  C   C70       1.0  0.4370741272135348  0.049336077509266836  0.5583722029396299  1.0000
  C   C71       1.0  0.06263768676111432  0.4507793831348153  0.05838024789515119  1.0000
  C   C72       1.0  0.052027317186322405  0.5428379418023822  0.06030513957130519  1.0000
  C   C73       1.0  0.4585568063825889  0.7450957111500217  0.5545538053210776  1.0000
  C   C74       1.0  0.4088139311887318  0.24872736866858955  0.5564257607390032  1.0000
  C   C75       1.0  0.0909887509558303  0.2513560025173334  0.056543180088588885  1.0000
  C   C76       1.0  0.04157544144018743  0.7550150804752108  0.054536647903411485  1.0000
  C   C77       1.0  0.2927701536146259  0.5672914370493133  0.4714594268165015  1.0000
  C   C78       1.0  0.797778521946512  0.606878114911602  0.4592259714076548  1.0000
  C   C79       1.0  0.7023422937144873  0.892864238505119  0.9590939328927134  1.0000
  C   C80       1.0  0.20727217471390705  0.9327337105944481  0.9714707085271568  1.0000
  C   C81       1.0  0.4953411237555018  0.7645264267915125  0.4636373162427673  1.0000
  C   C82       1.0  0.4038364779458733  0.2544319212021833  0.4617307680898506  1.0000
  C   C83       1.0  0.0961362630831104  0.24564486053240847  0.9618449269202781  1.0000
  C   C84       1.0  0.005042599956695414  0.7355450165391559  0.9635729907513095  1.0000
  C   C85       1.0  0.29402626847689123  0.5524493231458508  0.5676896638388484  1.0000
  C   C86       1.0  0.7868016557852116  0.6280965569435681  0.5546518869295625  1.0000
  C   C87       1.0  0.7132916987521869  0.8717262144732913  0.05452662005136229  1.0000
  C   C88       1.0  0.2060658863996707  0.9476576529005385  0.06769158221540289  1.0000
  C   C89       1.0  0.36530087025369085  0.5677141357512312  0.3387577559805166  1.0000
  C   C90       1.0  0.6929165257391932  0.4295036587797157  0.3663644424214779  1.0000
  C   C91       1.0  0.8070192441654667  0.07056744196052023  0.8665210332749991  1.0000
  C   C92       1.0  0.13468446408603543  0.9323028203158827  0.8387480800077115  1.0000
  C   C93       1.0  0.48580630914516126  0.6383400771645639  0.6868716777290799  1.0000
  C   C94       1.0  0.6254831241530782  0.315276973836646  0.5917869119174312  1.0000
  C   C95       1.0  0.8744084102066625  0.18467657632808712  0.09169632434534947  1.0000
  C   C96       1.0  0.014111482124462818  0.8616538844067352  0.18685250921144808  1.0000
  C   C97       1.0  0.41248589732282437  0.6077892967109975  0.714597927523222  1.0000
  C   C98       1.0  0.6938129409946399  0.3287926811917075  0.6310993577059065  1.0000
  C   C99       1.0  0.8060338358812729  0.1711605442247618  0.13096205057536278  1.0000
  C   C100      1.0  0.08744053145047564  0.892191795449797  0.21458505574942416  1.0000
  N   N1        1.0  0.4871939392276232  0.49948514666659344  0.6573813597000394  1.0000
  N   N2        1.0  0.6470136676333739  0.455344213289294  0.580419912735408  1.0000
  N   N3        1.0  0.8529168343691396  0.044601427957907405  0.08031576549065989  1.0000
  N   N4        1.0  0.0127889306568392  0.0004811468029188997  0.15732924071073026  1.0000
  N   N5        1.0  0.5003123512798524  0.5936020064999924  0.3622289377550841  1.0000
  N   N6        1.0  0.5765723837379538  0.3987128815975608  0.41572876605485476  1.0000
  N   N7        1.0  0.9234538792606132  0.10128670994977544  0.91582096464262  1.0000
  N   N8        1.0  0.9996313216550023  0.9064804729784939  0.8621399539600246  1.0000
  N   N9        1.0  0.5030341474681849  0.6675860919055481  0.534246617960278  1.0000
  N   N10       1.0  0.41730669920355024  0.332050588362783  0.5397683959543611  1.0000
  N   N11       1.0  0.08256384937844533  0.16802370894996702  0.039866252786282495  1.0000
  N   N12       1.0  0.9971479000056223  0.8325157121098384  0.034170882115205393  1.0000
  N   N13       1.0  0.3762061099601013  0.5346680884068038  0.48794383727152985  1.0000
  N   N14       1.0  0.7112598191659815  0.6128869355412405  0.47356918028222583  1.0000
  N   N15       1.0  0.7888617930204378  0.8868819013802991  0.9734574606555739  1.0000
  N   N16       1.0  0.1238486956824758  0.9653781345508391  0.9879575449212793  1.0000
  N   N17       1.0  0.5248894927919211  0.6802046887615633  0.47698201307378685  1.0000
  N   N18       1.0  0.4140547776046831  0.33615691163286243  0.4795240906739267  1.0000
  N   N19       1.0  0.08591271497558492  0.16391185815833614  0.9796238239609207  1.0000
  N   N20       1.0  0.9754376701760564  0.8198717992284515  0.9768789927948089  1.0000
  N   N21       1.0  0.37666741518292923  0.5257428487957297  0.5473132310891984  1.0000
  N   N22       1.0  0.7044195824409273  0.6260667914811363  0.5332611846753109  1.0000
  N   N23       1.0  0.7956842324302686  0.8737556302297804  0.033157347506247  1.0000
  N   N24       1.0  0.12341803316184044  0.974361066701789  0.047320593322894  1.0000
  N   N25       1.0  0.4411919579491794  0.5319894738395661  0.3651199738171016  1.0000
  N   N26       1.0  0.6373494487416098  0.4569148310854273  0.41094666985974726  1.0000
  N   N27       1.0  0.8626697975389845  0.04308984886058199  0.9110563640219452  1.0000
  N   N28       1.0  0.05879651635687822  0.9680483800687227  0.8650967989927594  1.0000
  N   N29       1.0  0.5294770976984895  0.5748636919039284  0.6527555841182036  1.0000
  N   N30       1.0  0.5967626603179214  0.39150388607611575  0.5618888032725522  1.0000
  N   N31       1.0  0.9031843300297313  0.10844720752069752  0.06182026768744458  1.0000
  N   N32       1.0  0.9704783555109133  0.9251238820674387  0.15270612142616358  1.0000
  O   O1        1.0  0.3658445343187538  0.455575802532003  0.7055491931934413  1.0000
  O   O2        1.0  0.7581421537502139  0.4695733897482129  0.6490154021770421  1.0000
  O   O3        1.0  0.7416787754084453  0.030382517919619555  0.14883175733143617  1.0000
  O   O4        1.0  0.13416551282327296  0.04436338689485811  0.2054921495781485  1.0000
  O   O5        1.0  0.588320541579215  0.2345197141794628  0.7062285908721861  1.0000
  O   O6        1.0  0.44147656785748524  0.7378651468016885  0.8024439303992991  1.0000
  O   O7        1.0  0.058432376503120116  0.7622408255328637  0.30249639842399023  1.0000
  O   O8        1.0  0.9114970570440805  0.26555158128917355  0.20604081187702405  1.0000
  O   O9        1.0  0.3245061123869277  0.08214037348533056  0.41407440985329197  1.0000
  O   O10       1.0  0.3479528461783872  0.907985139067918  0.42013122373546  1.0000
  O   O11       1.0  0.15244179892938092  0.5920528189115045  0.920355108226026  1.0000
  O   O12       1.0  0.1758774363322502  0.41784158868017585  0.914313200667138  1.0000
  F   F1        1.0  0.5160953793141944  0.798097891686986  0.41163138651015874  1.0000
  F   F2        1.0  0.3992357744653178  0.23927328434345435  0.4027331994733103  1.0000
  F   F3        1.0  0.10079741247888309  0.26084261766127526  0.9028586059391654  1.0000
  F   F4        1.0  0.984481811814817  0.7019511591595844  0.911533762781154  1.0000
