data_image0
_chemical_formula_structural       Cu3H24C24N4O14
_chemical_formula_sum              "Cu3 H24 C24 N4 O14"
_cell_length_a       6.392168816026385
_cell_length_b       10.703435101049525
_cell_length_c       11.882159639505243
_cell_angle_alpha    69.44857472922737
_cell_angle_beta     74.22736625796738
_cell_angle_gamma    81.0832008113307

_space_group_name_H-M_alt    "P 1"
_space_group_IT_number       1

loop_
  _space_group_symop_operation_xyz
  'x, y, z'

loop_
  _atom_site_type_symbol
  _atom_site_label
  _atom_site_symmetry_multiplicity
  _atom_site_fract_x
  _atom_site_fract_y
  _atom_site_fract_z
  _atom_site_occupancy
  Cu  Cu1       1.0  0.0009945471258206002  0.0015852583198849998  0.4994474719746195  1.0000
  Cu  Cu2       1.0  0.9208794959185412  0.30298312216150697  0.4197083423737523  1.0000
  Cu  Cu3       1.0  0.07863954146663592  0.6965386688722079  0.5801692593547045  1.0000
  H   H1        1.0  0.40653098436677493  0.15834291102614637  0.4074950170567888  1.0000
  H   H2        1.0  0.5929756005508438  0.8408188998227075  0.5932000068013962  1.0000
  H   H3        1.0  0.3225958339964096  0.13638784829904443  0.5483697844964155  1.0000
  H   H4        1.0  0.6780902735984287  0.8628729501267077  0.45249072055801054  1.0000
  H   H5        1.0  0.60258971734379  0.509442747033745  0.3769180697014392  1.0000
  H   H6        1.0  0.3971900321156455  0.4908443824238803  0.6229152030077215  1.0000
  H   H7        1.0  0.49361417761042503  0.3757269364274549  0.4663267409289986  1.0000
  H   H8        1.0  0.5068621104776625  0.6242752603206297  0.5333674206372905  1.0000
  H   H9        1.0  0.6614978689486933  0.12864392098673966  0.562086648354935  1.0000
  H   H10       1.0  0.3395621112647262  0.8707867369388256  0.43802551831113573  1.0000
  H   H11       1.0  0.15213953049681814  0.3959617289118356  0.03624353006567561  1.0000
  H   H12       1.0  0.8481635264589118  0.6042342219121368  0.9636381749900023  1.0000
  H   H13       1.0  0.27106230647330426  0.421659037891594  0.8127380821448256  1.0000
  H   H14       1.0  0.7292748932089878  0.5784906013892056  0.1870506916244992  1.0000
  H   H15       1.0  0.2822808851424767  0.9958216420387488  0.9003808048505633  1.0000
  H   H16       1.0  0.7174507088685971  0.0042900138935522015  0.09968030022830734  1.0000
  H   H17       1.0  0.16091906540656717  0.9711325616686256  0.12649991239799607  1.0000
  H   H18       1.0  0.838458055824731  0.029149569559685104  0.8736252675486184  1.0000
  H   H19       1.0  0.23789656718460622  0.8310655974435548  0.283270571778054  1.0000
  H   H20       1.0  0.7621629426747634  0.1683718033709667  0.717652296346003  1.0000
  H   H21       1.0  0.2902622700491051  0.7355738820674916  0.10780742871410345  1.0000
  H   H22       1.0  0.7094670298231591  0.2646674969592199  0.8924761538920905  1.0000
  H   H23       1.0  0.17838795091176254  0.4979260650258582  0.16614684848792644  1.0000
  H   H24       1.0  0.8212652079023285  0.5024516313160489  0.8334859150288949  1.0000
  C   C1        1.0  0.08427807511482403  0.16725051557046566  0.2314891682436127  1.0000
  C   C2        1.0  0.9161523389903722  0.833495364266966  0.768238477164587  1.0000
  C   C3        1.0  0.15205792521788206  0.18143095177337903  0.09588501273557169  1.0000
  C   C4        1.0  0.8478478436472373  0.8189561086446205  0.9039173901009717  1.0000
  C   C5        1.0  0.18177495901682053  0.3083877321644977  0.0061481301623018654  1.0000
  C   C6        1.0  0.8184847560652744  0.6919109631436912  0.9936070683744233  1.0000
  C   C7        1.0  0.2465102315405261  0.32242963556250004  0.8809114119491781  1.0000
  C   C8        1.0  0.7536440201785269  0.6777591803675664  0.11889922259243954  1.0000
  C   C9        1.0  0.28221953003104266  0.20926396681142734  0.8424983051690447  1.0000
  C   C10       1.0  0.717747465549401  0.7908043986570804  0.15751017143553261  1.0000
  C   C11       1.0  0.2532594272774915  0.08252889583150141  0.9318401850367763  1.0000
  C   C12       1.0  0.7466237382922714  0.9175636508280154  0.06821241069409459  1.0000
  C   C13       1.0  0.1879906297845224  0.0689835667019878  0.05705750289381941  1.0000
  C   C14       1.0  0.8117022171372456  0.931218085820163  0.9429713730565297  1.0000
  C   C15       1.0  0.3516187812031221  0.22092779843270446  0.7076348804771015  1.0000
  C   C16       1.0  0.6484968064559239  0.7789954952766325  0.29241233742632033  1.0000
  C   C17       1.0  0.0506701016393052  0.5370728990546001  0.43657747457912416  1.0000
  C   C18       1.0  0.949279955668992  0.4621999439870664  0.5634585461314784  1.0000
  C   C19       1.0  0.1963952879627087  0.7303143006830342  0.29871210210616533  1.0000
  C   C20       1.0  0.8035974687282917  0.2692320395529039  0.7017911516171438  1.0000
  C   C21       1.0  0.22269389691034291  0.6776068575744106  0.2033942207497929  1.0000
  C   C22       1.0  0.777003463708056  0.322413162904347  0.7968163485853877  1.0000
  C   C23       1.0  0.1607064720351019  0.5483232791531237  0.2338099461743113  1.0000
  C   C24       1.0  0.8389353632452129  0.4517608486433532  0.7660550696094075  1.0000
  N   N1        1.0  0.1148819438241375  0.6576216077447088  0.416461364663597  1.0000
  N   N2        1.0  0.8854907332556723  0.3414357122407523  0.5838743137740465  1.0000
  N   N3        1.0  0.06978618187264371  0.4790339603607877  0.350979920034483  1.0000
  N   N4        1.0  0.9296964884769496  0.5207557459500763  0.6487882911401215  1.0000
  O   O1        1.0  0.08305705042469924  0.049805556088678316  0.3086831125080423  1.0000
  O   O2        1.0  0.9173794964893888  0.9510055221564926  0.6910986335163969  1.0000
  O   O3        1.0  0.03729701292116519  0.277498496682938  0.25499979045579824  1.0000
  O   O4        1.0  0.9640145421011471  0.7232468815323333  0.7446959485069937  1.0000
  O   O5        1.0  0.3552396382194942  0.3376131675520925  0.6272666055569545  1.0000
  O   O6        1.0  0.6448065248209858  0.6622439079708898  0.37270916024742456  1.0000
  O   O7        1.0  0.405010655618625  0.11313824058851908  0.6814610775457695  1.0000
  O   O8        1.0  0.5952833684489746  0.8866652936698433  0.31873449496305273  1.0000
  O   O9        1.0  0.272220049217708  0.15686420131268622  0.4709332313796537  1.0000
  O   O10       1.0  0.7277038271577962  0.8418241782125193  0.5301636544071542  1.0000
  O   O11       1.0  0.5885383998657829  0.4157582987231266  0.38317565028452083  1.0000
  O   O12       1.0  0.4117968349458892  0.5844562515304262  0.616563299673075  1.0000
  O   O13       1.0  0.774755258777951  0.14056503774297377  0.4842174122401132  1.0000
  O   O14       1.0  0.2221274334585814  0.8595851635354425  0.5141238262223523  1.0000
