data_image0
_chemical_formula_structural       Sr4H16C4N24O16
_chemical_formula_sum              "Sr4 H16 C4 N24 O16"
_cell_length_a       6.524690873099334
_cell_length_b       8.807385096691362
_cell_length_c       13.418326614264442
_cell_angle_alpha    84.83338617077857
_cell_angle_beta     75.92983925535714
_cell_angle_gamma    68.26299702832755

_space_group_name_H-M_alt    "P 1"
_space_group_IT_number       1

loop_
  _space_group_symop_operation_xyz
  'x, y, z'

loop_
  _atom_site_type_symbol
  _atom_site_label
  _atom_site_symmetry_multiplicity
  _atom_site_fract_x
  _atom_site_fract_y
  _atom_site_fract_z
  _atom_site_occupancy
  Sr  Sr1       1.0  0.7605860247265281  0.8414540893702093  0.8590069728337967  1.0000
  Sr  Sr2       1.0  0.4610224421457901  0.1584955908394008  0.14098747262701752  1.0000
  Sr  Sr3       1.0  0.3695702868228067  0.3414953615522052  0.6409896393196989  1.0000
  Sr  Sr4       1.0  0.3519649648090421  0.6585222111811219  0.35899515726566034  1.0000
  H   H1        1.0  0.4100185482054074  0.7194093015834753  0.794366523903321  1.0000
  H   H2        1.0  0.9238238348704186  0.2806657559027457  0.20571240681776712  1.0000
  H   H3        1.0  0.9543547206462148  0.2193470012357821  0.7057217656445759  1.0000
  H   H4        1.0  0.8794384739057288  0.7805721516690839  0.2943183238949699  1.0000
  H   H5        1.0  0.44565152263541574  0.8608905227144844  0.7164491202658354  1.0000
  H   H6        1.0  0.023036770817164175  0.13909307750966346  0.28354699530969907  1.0000
  H   H7        1.0  0.9120457871475337  0.3609186986350323  0.7835642690763224  1.0000
  H   H8        1.0  0.05653635442707388  0.6390324519505411  0.21646885440019764  1.0000
  H   H9        1.0  0.1546386594577384  0.9590766635696681  0.8459089063156428  1.0000
  H   H10       1.0  0.9594449292976392  0.040948235177289384  0.15421773618112408  1.0000
  H   H11       1.0  0.7506745946824722  0.4589878555402862  0.6540793374185014  1.0000
  H   H12       1.0  0.8636417383630286  0.5409593768783764  0.34574893416665026  1.0000
  H   H13       1.0  0.9457942963635585  0.10606579711885188  0.9118487354627619  1.0000
  H   H14       1.0  0.9636053574822725  0.8939691509402576  0.08825878757227203  1.0000
  H   H15       1.0  0.6078242334545861  0.6060134976004292  0.5881537115829475  1.0000
  H   H16       1.0  0.8017403171588384  0.39402089878093693  0.4117196435843767  1.0000
  C   C1        1.0  0.25261986216081306  0.47236667812356353  0.9426930306293216  1.0000
  C   C2        1.0  0.66774308410654  0.5276307934786146  0.057335576956234  1.0000
  C   C3        1.0  0.9455937302049193  0.9724313534610756  0.5572867940969176  1.0000
  C   C4        1.0  0.47490109092887445  0.027609460535181492  0.44271775572297395  1.0000
  N   N1        1.0  0.33552692348744273  0.37379938304299987  0.8568331765317723  1.0000
  N   N2        1.0  0.5660407921456853  0.626235454845151  0.14319071660387553  1.0000
  N   N3        1.0  0.9425277255084978  0.8738088264149864  0.6431447897212195  1.0000
  N   N4        1.0  0.45903257517197465  0.1261935647052184  0.35684736610539153  1.0000
  N   N5        1.0  0.23960696425793773  0.434954215302504  0.04378856735012702  1.0000
  N   N6        1.0  0.7184637719918  0.5650479793289803  0.9562409308306741  1.0000
  N   N7        1.0  0.03364953592247139  0.9350316067168618  0.45619289755677533  1.0000
  N   N8        1.0  0.42458140626153085  0.06503115295883077  0.5437994212678775  1.0000
  N   N9        1.0  0.0972416796509421  0.6991963935598661  0.023626847522400914  1.0000
  N   N10       1.0  0.8199745592313687  0.30082054740552167  0.9764040475221948  1.0000
  N   N11       1.0  0.8709106241514915  0.19926069671596033  0.4763623055660986  1.0000
  N   N12       1.0  0.5465360956381884  0.8007849213064447  0.5236322521990004  1.0000
  N   N13       1.0  0.14013835260531238  0.5803062877019443  0.09155736228741772  1.0000
  N   N14       1.0  0.8120340831385701  0.4197006311217706  0.9084715765692126  1.0000
  N   N15       1.0  0.9818038503451517  0.08038248236077553  0.4084265804532948  1.0000
  N   N16       1.0  0.4705759287293458  0.9196702256798728  0.5915632223862488  1.0000
  N   N17       1.0  0.1639353466933784  0.6364258858921303  0.9289830142644675  1.0000
  N   N18       1.0  0.7292485147928289  0.36359404908513676  0.07104405374662548  1.0000
  N   N19       1.0  0.8430570431118338  0.1364692280393456  0.5710041648319191  1.0000
  N   N20       1.0  0.5503017253862907  0.8635683813320083  0.42899866588835084  1.0000
  N   N21       1.0  0.4353987753750132  0.21786174273630368  0.8662967518372611  1.0000
  N   N22       1.0  0.519506227622031  0.7821440303134395  0.13370353298765994  1.0000
  N   N23       1.0  0.05168361114256459  0.7178740289063512  0.6336604444723406  1.0000
  N   N24       1.0  0.40307314054617643  0.2821177376295266  0.3662960623083081  1.0000
  O   O1        1.0  0.9882178948699191  0.017421517843757794  0.8613020717935385  1.0000
  O   O2        1.0  0.8668019569722393  0.9825348996355171  0.13884782636556997  1.0000
  O   O3        1.0  0.5996557914653523  0.5173395324968338  0.6386733641754461  1.0000
  O   O4        1.0  0.7555514808423779  0.48260166597970766  0.36113707582745763  1.0000
  O   O5        1.0  0.4711369559790696  0.1401545977129786  0.9491259830372983  1.0000
  O   O6        1.0  0.5607573766434301  0.8597738791035779  0.05087828576456843  1.0000
  O   O7        1.0  0.17039429237456716  0.6401853522246341  0.5508314183438331  1.0000
  O   O8        1.0  0.36150273684737727  0.3597719043605706  0.4490989198805552  1.0000
  O   O9        1.0  0.5070522602997726  0.1326958984145392  0.7830305090570279  1.0000
  O   O10       1.0  0.4223647285838936  0.8674057260293465  0.21691997798563986  1.0000
  O   O11       1.0  0.03978840975752727  0.6326310263560868  0.7168874072040907  1.0000
  O   O12       1.0  0.3892420274532782  0.36731846007632635  0.2830533385871519  1.0000
  O   O13       1.0  0.4355118460584104  0.8226870134484372  0.7904943779946907  1.0000
  O   O14       1.0  0.04865896419774171  0.17732880127594083  0.20950591259100548  1.0000
  O   O15       1.0  0.9759898049683142  0.32263803902032606  0.7095419191307499  1.0000
  O   O16       1.0  0.008123496991110833  0.6772670974418843  0.290512713465759  1.0000
