data_image0
_chemical_formula_structural       Zr6H20C64S10O56
_chemical_formula_sum              "Zr6 H20 C64 S10 O56"
_cell_length_a       16.492118189590972
_cell_length_b       16.46392478293455
_cell_length_c       16.437835448869524
_cell_angle_alpha    61.88109168890837
_cell_angle_beta     59.97396856592607
_cell_angle_gamma    59.86905483508947

_space_group_name_H-M_alt    "P 1"
_space_group_IT_number       1

loop_
  _space_group_symop_operation_xyz
  'x, y, z'

loop_
  _atom_site_type_symbol
  _atom_site_label
  _atom_site_symmetry_multiplicity
  _atom_site_fract_x
  _atom_site_fract_y
  _atom_site_fract_z
  _atom_site_occupancy
  Zr  Zr1       1.0  0.8871109846141534  0.9026421519942712  0.6075507291778665  1.0000
  Zr  Zr2       1.0  0.10026700079155401  0.11062309536324474  0.4000430781689488  1.0000
  Zr  Zr3       1.0  0.10175812649237076  0.8989868196887442  0.6108381061161766  1.0000
  Zr  Zr4       1.0  0.8865710336274832  0.1128700011349367  0.3962178082741588  1.0000
  Zr  Zr5       1.0  0.10236706283703992  0.8983733188024627  0.3958992203882232  1.0000
  Zr  Zr6       1.0  0.8861906854880529  0.11414796029372828  0.6114806777719651  1.0000
  H   H1        1.0  0.07941690208981139  0.755626569047294  0.5808423200513532  1.0000
  H   H2        1.0  0.08311683909602148  0.08292271022212108  0.253103275358221  1.0000
  H   H3        1.0  0.0773586179001313  0.09241855014321486  0.5897171179671191  1.0000
  H   H4        1.0  0.7385345396046716  0.09248366653221038  0.5894200995967935  1.0000
  H   H5        1.0  0.12156900540066566  0.6139279899184586  0.8618189616081011  1.0000
  H   H6        1.0  0.8748911353593559  0.6364992798950057  0.8173994405525561  1.0000
  H   H7        1.0  0.9032245514248772  0.35980973824280954  0.10664267029078202  1.0000
  H   H8        1.0  0.16277415818945676  0.3253119463895048  0.13881090160918322  1.0000
  H   H9        1.0  0.8330677302633661  0.3121446892977744  0.6512679783697523  1.0000
  H   H10       1.0  0.12453201455108612  0.7294684036231444  0.33115554897169386  1.0000
  H   H11       1.0  0.3133736413656506  0.8348250824437786  0.22733559777562828  1.0000
  H   H12       1.0  0.7040639450402251  0.15243223297986921  0.8100399449703275  1.0000
  H   H13       1.0  0.1301791266758486  0.7749845009385083  0.9991892530022782  1.0000
  H   H14       1.0  0.7447807080210112  0.12650335748259778  0.1652164504879252  1.0000
  H   H15       1.0  0.4515543452992003  0.6648339646661655  0.6375938542430504  1.0000
  H   H16       1.0  0.6353278863182226  0.5238358128068157  0.2663208390089764  1.0000
  H   H17       1.0  0.29404453491442695  0.14512378336186063  0.34935790606731143  1.0000
  H   H18       1.0  0.7130463298900692  0.8487988734926333  0.6377839048429054  1.0000
  H   H19       1.0  0.15314290417446585  0.5763053740801922  0.011212884740395185  1.0000
  H   H20       1.0  0.7504566395226393  0.5036254837344387  0.05576737504775762  1.0000
  C   C1        1.0  0.9906661318642519  0.7420030724219373  0.48693281011455297  1.0000
  C   C2        1.0  0.27902333806382273  0.9904098169831315  0.2396264121329423  1.0000
  C   C3        1.0  0.9816220444909051  0.28582438056427134  0.5054235211999868  1.0000
  C   C4        1.0  0.7254205019420681  0.008105233126677493  0.7829790128839849  1.0000
  C   C5        1.0  0.9909449425367354  0.7360189756892481  0.7649137837396935  1.0000
  C   C6        1.0  0.7271171264624243  0.9960947227639779  0.49916545484905595  1.0000
  C   C7        1.0  0.004777044998284848  0.26672219037453715  0.2331655381695157  1.0000
  C   C8        1.0  0.2749544406592364  0.0026474416404199  0.49335480139230015  1.0000
  C   C9        1.0  0.27074132881911334  0.7369817750819506  0.4979687435571023  1.0000
  C   C10       1.0  0.9905866063790043  0.007975302591646232  0.7769186297323571  1.0000
  C   C11       1.0  0.7246966248638388  0.28112142462563827  0.5036074094045517  1.0000
  C   C12       1.0  0.9953526010913906  3.942204654822693e-05  0.23331409686055338  1.0000
  C   C13       1.0  0.9089868214620012  0.43739942381576913  0.5663103242776089  1.0000
  C   C14       1.0  0.04645099268597605  0.6062740580518168  0.41088664230635175  1.0000
  C   C15       1.0  0.9737476613059002  0.3804719886154049  0.5007224587218461  1.0000
  C   C16       1.0  0.9860796843671835  0.6586105072761299  0.4808026264396191  1.0000
  C   C17       1.0  0.01788947238301121  0.5249788408260656  0.4435285202498066  1.0000
  C   C18       1.0  0.9373614968015929  0.5189888031376525  0.5326633441365091  1.0000
  C   C19       1.0  0.4346971437444012  0.9144899919917719  0.1037320005256532  1.0000
  C   C20       1.0  0.5871198383446198  0.06848237790973126  0.935413771914348  1.0000
  C   C21       1.0  0.3732866688537513  0.9841650377139787  0.1563420113992963  1.0000
  C   C22       1.0  0.6437985685557307  0.0034110710594177003  0.8779757243022531  1.0000
  C   C23       1.0  0.5104730426620563  0.03528321348943556  0.017017132649030552  1.0000
  C   C24       1.0  0.5121578026458379  0.9467970833850997  0.022551070690951646  1.0000
  C   C25       1.0  0.06538956971493096  0.9434037401063408  0.9097268326500512  1.0000
  C   C26       1.0  0.9287563454101643  0.07311913874718114  0.09341291867531966  1.0000
  C   C27       1.0  0.9948921590586295  0.0092358391244788  0.8634772164449488  1.0000
  C   C28       1.0  0.9958122420186015  0.003168863237696977  0.1425795516915331  1.0000
  C   C29       1.0  0.951700494676146  0.049004503303329734  0.010298097777813223  1.0000
  C   C30       1.0  0.03827276433407456  0.9648329829353698  0.9958259867174137  1.0000
  C   C31       1.0  0.40290764689166275  0.5951380753198023  0.5716489872196603  1.0000
  C   C32       1.0  0.5912167512825164  0.4235774489872029  0.4300262770397795  1.0000
  C   C33       1.0  0.36040406857455315  0.6484990802355457  0.4984568859373086  1.0000
  C   C34       1.0  0.635503746467755  0.3705037352236147  0.5019883954550651  1.0000
  C   C35       1.0  0.5081749025709996  0.5070602105905166  0.4546156504627421  1.0000
  C   C36       1.0  0.4893301034324437  0.5143422970486641  0.5452837873018694  1.0000
  C   C37       1.0  0.06259530018241584  0.5865761200687701  0.8862007827908088  1.0000
  C   C38       1.0  0.9228083031234463  0.5987418715421242  0.861308030944244  1.0000
  C   C39       1.0  0.9174057525251627  0.5119797721682247  0.9348724387086522  1.0000
  C   C40       1.0  0.9785541577921887  0.46431201505616587  0.9942442275483504  1.0000
  C   C41       1.0  0.9633933950881469  0.38592332503570514  0.08142470135713616  1.0000
  C   C42       1.0  0.11031987624741653  0.367011118309712  0.09936782289836546  1.0000
  C   C43       1.0  0.12748298483580806  0.4425127939247703  0.014400251101044138  1.0000
  C   C44       1.0  0.057265332286860454  0.4988064661229359  0.9638499908699316  1.0000
  C   C45       1.0  0.9923812691028999  0.6388815101325277  0.8401009327913372  1.0000
  C   C46       1.0  0.024824081380678827  0.3421221196001341  0.13615903027367443  1.0000
  C   C47       1.0  0.42621222063777253  0.06053340771180867  0.4170044106511881  1.0000
  C   C48       1.0  0.5967931270491107  0.9179507703206156  0.5539323467734222  1.0000
  C   C49       1.0  0.37081881927657867  0.9975944988492744  0.48334200772419683  1.0000
  C   C50       1.0  0.6465841431694912  0.9862762304196478  0.4934876831960724  1.0000
  C   C51       1.0  0.5171169218341234  0.9455625867345672  0.5242307880338828  1.0000
  C   C52       1.0  0.5091647221431614  0.02975838876240288  0.4432740548871834  1.0000
  C   C53       1.0  0.8185553696039208  0.4318165555018112  0.6577708647880771  1.0000
  C   C54       1.0  0.12529234814584814  0.6231581869821454  0.31159311642051085  1.0000
  C   C55       1.0  0.43767892942813097  0.8156531723380525  0.11999963712892761  1.0000
  C   C56       1.0  0.5930976672511434  0.15895500223197007  0.9303085391874077  1.0000
  C   C57       1.0  0.1634776457117084  0.8686004650433646  0.8704886641988808  1.0000
  C   C58       1.0  0.8556802675767939  0.16972468921579065  0.11416901503478276  1.0000
  C   C59       1.0  0.35400050332233934  0.6104415336914997  0.6716090088402354  1.0000
  C   C60       1.0  0.6196063692333736  0.3969778040419668  0.34107106524290026  1.0000
  C   C61       1.0  0.4176492378976207  0.1476207244030761  0.32758315708391444  1.0000
  C   C62       1.0  0.6113035237870219  0.8253424798136066  0.6373608348578728  1.0000
  C   C63       1.0  0.22521080403085844  0.45800851184746705  0.9727157033787251  1.0000
  C   C64       1.0  0.8571235806832362  0.46219378406354406  0.9419033107130304  1.0000
  S   S1        1.0  0.06256572434398325  0.4295001517577433  0.39899351171143144  1.0000
  S   S2        1.0  0.8944359686425899  0.611842435098687  0.5798762488266719  1.0000
  S   S3        1.0  0.4135196046275241  0.08252293497533009  0.11002616029452383  1.0000
  S   S4        1.0  0.6067174083242932  0.9024372723711167  0.9267041385178062  1.0000
  S   S5        1.0  0.9004758766155375  0.09894674520664648  0.920641788450247  1.0000
  S   S6        1.0  0.08913677355878508  0.9126507841796537  0.08617109697419789  1.0000
  S   S7        1.0  0.42160042991780955  0.600116593145323  0.40048901569181805  1.0000
  S   S8        1.0  0.5758965129451282  0.42023880509379546  0.5988974319449129  1.0000
  S   S9        1.0  0.42263050735907387  0.9019200410315091  0.5715752633112531  1.0000
  S   S10       1.0  0.5987340941933752  0.0782527418239738  0.4009939220280216  1.0000
  O   O1        1.0  0.9240767822798972  0.77699125106637  0.5580480854583032  1.0000
  O   O2        1.0  0.2389564064679277  0.06182193410716511  0.27433287321893834  1.0000
  O   O3        1.0  0.053909297066915926  0.24596072656677856  0.43937343905697895  1.0000
  O   O4        1.0  0.7582459294634206  0.9424577054973042  0.7429506367409786  1.0000
  O   O5        1.0  0.057321770616042086  0.770819928010347  0.7379862092462376  1.0000
  O   O6        1.0  0.7595529643254367  0.06539430857352367  0.4347606741166531  1.0000
  O   O7        1.0  0.9312330793629684  0.2388360804258981  0.2676917716791608  1.0000
  O   O8        1.0  0.2387184365902968  0.9371780385299076  0.5615506117719563  1.0000
  O   O9        1.0  0.23618719422721318  0.7691908628931116  0.429655601078295  1.0000
  O   O10       1.0  0.9216241261698386  0.07839692752696707  0.7434219113674629  1.0000
  O   O11       1.0  0.754768570265803  0.24614680601719385  0.5757672060740617  1.0000
  O   O12       1.0  0.06654047482572181  0.9321983561693018  0.26498997856711537  1.0000
  O   O13       1.0  0.056199535835382654  0.9361582467805575  0.7418172893148239  1.0000
  O   O14       1.0  0.7648699970817531  0.24476064643503279  0.4329516875154055  1.0000
  O   O15       1.0  0.9233253125926167  0.06643839347748329  0.2735444379090668  1.0000
  O   O16       1.0  0.2336337919685151  0.7747129007459961  0.5670052824169219  1.0000
  O   O17       1.0  0.9197079737593865  0.7795210086819822  0.7302535174973458  1.0000
  O   O18       1.0  0.2313549263227799  0.07598636069675281  0.4324672264487219  1.0000
  O   O19       1.0  0.06647579798111279  0.2331836458359788  0.2771224751514723  1.0000
  O   O20       1.0  0.7589492163250212  0.9343822771175851  0.5719050426128904  1.0000
  O   O21       1.0  0.7585966467279591  0.0795001234555529  0.743983702714175  1.0000
  O   O22       1.0  0.06344821142604215  0.7739058458466561  0.4219236476171275  1.0000
  O   O23       1.0  0.23978173730699834  0.9250438975999201  0.27176415911318236  1.0000
  O   O24       1.0  0.9160639036047725  0.24688494654010654  0.5769849436043729  1.0000
  O   O25       1.0  0.8110135998110051  0.06848930003988572  0.5643577979894872  1.0000
  O   O26       1.0  0.053787795906913474  0.06720050211895773  0.5660147934414468  1.0000
  O   O27       1.0  0.05731020719141362  0.06116654969704176  0.32439964764058254  1.0000
  O   O28       1.0  0.05540174824724884  0.8268964714800902  0.5588698912487117  1.0000
  O   O29       1.0  0.1280105781177313  0.9603487130821121  0.4603045545594356  1.0000
  O   O30       1.0  0.9500870093667261  0.9624863458081592  0.4575316054257929  1.0000
  O   O31       1.0  0.9486610350532416  0.13776548149687787  0.461953451671292  1.0000
  O   O32       1.0  0.9493020542162257  0.9645560465022456  0.6352482281494151  1.0000
  O   O33       1.0  0.7868262101212126  0.35742403388008637  0.6932796279589866  1.0000
  O   O34       1.0  0.7749128585886212  0.4978405936697357  0.6960486796799047  1.0000
  O   O35       1.0  0.158027429914526  0.6962055047058158  0.2788732465353264  1.0000
  O   O36       1.0  0.15638572924887476  0.5703702195538582  0.26123742328623933  1.0000
  O   O37       1.0  0.3648912333044764  0.7827942206943916  0.19353574024763295  1.0000
  O   O38       1.0  0.5089773871175964  0.7658737627949321  0.06631582812661226  1.0000
  O   O39       1.0  0.6640395016240959  0.19395783927836852  0.8557426710873771  1.0000
  O   O40       1.0  0.5334070505616424  0.1968277148921943  0.9967702954622696  1.0000
  O   O41       1.0  0.18494228130074228  0.7775176259206661  0.9358817932643719  1.0000
  O   O42       1.0  0.2236283617658616  0.88726124506627  0.7887373115572487  1.0000
  O   O43       1.0  0.7572516469086565  0.18480824255827605  0.15087690271263912  1.0000
  O   O44       1.0  0.8854696629525095  0.23334679536911562  0.09377670887353433  1.0000
  O   O45       1.0  0.3953084280090307  0.6470200179500977  0.6934563269441157  1.0000
  O   O46       1.0  0.2819516090449312  0.5863778331709284  0.7317539253250234  1.0000
  O   O47       1.0  0.6419636153584491  0.46800301678500483  0.2536735954489445  1.0000
  O   O48       1.0  0.6188499478392656  0.3229203041104044  0.34346454814579636  1.0000
  O   O49       1.0  0.3390116779474114  0.18435783646795295  0.3007960387262045  1.0000
  O   O50       1.0  0.48472244991685187  0.1821471759534248  0.28102908812014255  1.0000
  O   O51       1.0  0.6797975979453948  0.798415579171568  0.6744118493474434  1.0000
  O   O52       1.0  0.5592833424952984  0.7764949752891254  0.6688295277617374  1.0000
  O   O53       1.0  0.2216685767849142  0.5406229263551766  0.9763638832465206  1.0000
  O   O54       1.0  0.30406666151845485  0.3992009835999895  0.937849007736574  1.0000
  O   O55       1.0  0.7673029423580787  0.4661720081336043  0.014385949598349164  1.0000
  O   O56       1.0  0.8892594570118745  0.41968598598297996  0.8825238027180902  1.0000
