data_image0
_chemical_formula_structural       Cu2H18C28S2N12
_chemical_formula_sum              "Cu2 H18 C28 S2 N12"
_cell_length_a       5.713952882831159
_cell_length_b       5.7141437710687075
_cell_length_c       20.69694849854414
_cell_angle_alpha    89.9988909466743
_cell_angle_beta     89.99819274529585
_cell_angle_gamma    101.02442526792042

_space_group_name_H-M_alt    "P 1"
_space_group_IT_number       1

loop_
  _space_group_symop_operation_xyz
  'x, y, z'

loop_
  _atom_site_type_symbol
  _atom_site_label
  _atom_site_symmetry_multiplicity
  _atom_site_fract_x
  _atom_site_fract_y
  _atom_site_fract_z
  _atom_site_occupancy
  Cu  Cu1       1.0  0.6080783755088106  0.6145213837305549  0.7499992334140728  1.0000
  Cu  Cu2       1.0  0.6144029959942472  0.6080833586307364  0.24999603372176443  1.0000
  H   H1        1.0  0.9767800295866422  0.943430632708456  0.6884616669609116  1.0000
  H   H2        1.0  0.9434123707779491  0.9766672048640145  0.3115216801386254  1.0000
  H   H3        1.0  0.9434074459100333  0.9767032244434691  0.1884639259311598  1.0000
  H   H4        1.0  0.9767628640999035  0.943453402339621  0.8115339160824675  1.0000
  H   H5        1.0  0.3126812289773753  0.9387057985026318  0.6118552574776572  1.0000
  H   H6        1.0  0.9387320214622719  0.31256985672645493  0.38813063619036114  1.0000
  H   H7        1.0  0.9387142167379708  0.31262946439077416  0.11186189050298621  1.0000
  H   H8        1.0  0.312654176781912  0.9387602042556368  0.8881384981117652  1.0000
  H   H9        1.0  0.9961904348240014  0.21135528960749644  0.5661026247634382  1.0000
  H   H10       1.0  0.2113470105352349  0.9961985510438468  0.43389805741698245  1.0000
  H   H11       1.0  0.2113509176573842  0.9962209935806925  0.0661066410476678  1.0000
  H   H12       1.0  0.9961864018514817  0.21140592706522202  0.9339090190745339  1.0000
  H   H13       1.0  0.6782832731896064  0.2390045069657063  0.6470958726228347  1.0000
  H   H14       1.0  0.2389420417042416  0.6782952638206794  0.35289564108720134  1.0000
  H   H15       1.0  0.2389465080313045  0.6783327786556655  0.14710829988061394  1.0000
  H   H16       1.0  0.6783049969709652  0.23903119642712065  0.8529083380722966  1.0000
  H   H17       1.0  0.8945914785388283  0.894411378411519  0.5000044331291349  1.0000
  H   H18       1.0  0.8945255359490645  0.8945219981561506  8.020639938900002e-06  1.0000
  C   C1        1.0  0.41944284534159954  0.08694226009519922  0.7500015007216021  1.0000
  C   C2        1.0  0.0868333803160439  0.41950931595062707  0.24999566414673785  1.0000
  C   C3        1.0  0.9878947043650186  0.783159833004916  0.6609167324517173  1.0000
  C   C4        1.0  0.783132992300189  0.9878197024356722  0.33906761360847787  1.0000
  C   C5        1.0  0.7831289627319578  0.9878376941360756  0.1609249274433893  1.0000
  C   C6        1.0  0.9879004164826384  0.7832060114132348  0.8390763292150041  1.0000
  C   C7        1.0  0.173512609823554  0.7814750134328604  0.6179440712789273  1.0000
  C   C8        1.0  0.7814783721152239  0.17344189033239843  0.38204960553849093  1.0000
  C   C9        1.0  0.7814781578101346  0.1734865210435501  0.11794593813162628  1.0000
  C   C10       1.0  0.17349270761772573  0.7815087824953794  0.8820516039732597  1.0000
  C   C11       1.0  0.1822074101665478  0.5735880324555183  0.5828106641303991  1.0000
  C   C12       1.0  0.5736257956779555  0.1821345191223785  0.41719304353846093  1.0000
  C   C13       1.0  0.5736057844393017  0.18219588677182233  0.08280461899267523  1.0000
  C   C14       1.0  0.18221040103772881  0.5736674558449195  0.9171932905915554  1.0000
  C   C15       1.0  0.9980345878573543  0.3761202707718496  0.592529446273204  1.0000
  C   C16       1.0  0.3761062248210861  0.9980037205657908  0.4074715696197302  1.0000
  C   C17       1.0  0.3760836207837812  0.9980193368539928  0.09252514164887772  1.0000
  C   C18       1.0  0.9980471826160695  0.37619019869077164  0.9074753910012703  1.0000
  C   C19       1.0  0.8205265353661133  0.39127391739508266  0.6373620688035686  1.0000
  C   C20       1.0  0.39119843334331966  0.8205174236759661  0.362636652602042  1.0000
  C   C21       1.0  0.391211433076208  0.8205490096396557  0.1373604480569739  1.0000
  C   C22       1.0  0.8205402394898796  0.39128158341141983  0.862639239476529  1.0000
  C   C23       1.0  0.3823770522832959  0.56825753222207  0.5381851864816412  1.0000
  C   C24       1.0  0.5683265924717418  0.38226487237679396  0.46181866563816953  1.0000
  C   C25       1.0  0.5683044362108803  0.3823298988329213  0.03818616724147011  1.0000
  C   C26       1.0  0.3823352028433291  0.5683439246512947  0.9618191344650812  1.0000
  C   C27       1.0  0.7441304949412739  0.7439686520668688  0.5000054408148884  1.0000
  C   C28       1.0  0.744084147278052  0.7440810821007136  7.578732741799998e-06  1.0000
  S   S1        1.0  0.2808271380746419  0.3119730550113644  0.7500047693694967  1.0000
  S   S2        1.0  0.3118884992110296  0.2808918080755518  0.24999858089243082  1.0000
  N   N1        1.0  0.5148836908388859  0.9201429140453711  0.7499997280040847  1.0000
  N   N2        1.0  0.9200882362963229  0.5149686793838484  0.24999556543833285  1.0000
  N   N3        1.0  0.8149153816704882  0.5905238984441752  0.6720326031403445  1.0000
  N   N4        1.0  0.5904719833706764  0.8149034191986501  0.32795032635980453  1.0000
  N   N5        1.0  0.5904837108871135  0.8149361192371032  0.17203797033166526  1.0000
  N   N6        1.0  0.8149337426073943  0.5905482791242278  0.8279575211638389  1.0000
  N   N7        1.0  0.3764715758802311  0.376394043719337  0.5000030714541595  1.0000
  N   N8        1.0  0.3764439813484515  0.37647619844200614  4.242995714800001e-06  1.0000
  N   N9        1.0  0.5621269866868133  0.7604050184131026  0.5389343157167232  1.0000
  N   N10       1.0  0.7605250210556136  0.5619777656952394  0.46107139387785884  1.0000
  N   N11       1.0  0.7604973524211829  0.562069430341836  0.03893041969066501  1.0000
  N   N12       1.0  0.5620770901323908  0.7605039674945218  0.9610801216415155  1.0000
