data_image0
_chemical_formula_structural       Li4H28C28O16
_chemical_formula_sum              "Li4 H28 C28 O16"
_cell_length_a       4.611135069006657
_cell_length_b       12.759614867321986
_cell_length_c       13.158234344692113
_cell_angle_alpha    107.61017273887384
_cell_angle_beta     89.99988183115131
_cell_angle_gamma    89.99988944113701

_space_group_name_H-M_alt    "P 1"
_space_group_IT_number       1

loop_
  _space_group_symop_operation_xyz
  'x, y, z'

loop_
  _atom_site_type_symbol
  _atom_site_label
  _atom_site_symmetry_multiplicity
  _atom_site_fract_x
  _atom_site_fract_y
  _atom_site_fract_z
  _atom_site_occupancy
  Li  Li1       1.0  0.973468094441266  0.8488911687012219  0.5006025530406077  1.0000
  Li  Li2       1.0  0.5265360746409796  0.34888860957168083  0.5006019104115822  1.0000
  Li  Li3       1.0  0.026538234583213704  0.151110925427659  0.4993965441664017  1.0000
  Li  Li4       1.0  0.47346374840320493  0.6511093672975364  0.4993974849652433  1.0000
  H   H1        1.0  0.5736713289993957  0.08606853824030483  0.21879975344839414  1.0000
  H   H2        1.0  0.9263337181104988  0.5860686638586401  0.2188035077652373  1.0000
  H   H3        1.0  0.42633716870319915  0.9139319234057837  0.7811958193740979  1.0000
  H   H4        1.0  0.07367261091508231  0.4139293009876539  0.7811989239832685  1.0000
  H   H5        1.0  0.10213532471336612  0.7176735587679346  0.10917421340813144  1.0000
  H   H6        1.0  0.39785775956919883  0.21767227292190947  0.10917140153802762  1.0000
  H   H7        1.0  0.8978579923187413  0.2823293455986615  0.8908281641847395  1.0000
  H   H8        1.0  0.6021355574904703  0.7823240594493657  0.8908275058337268  1.0000
  H   H9        1.0  0.2375052371417326  0.034650515278166004  0.06264474895745312  1.0000
  H   H10       1.0  0.26249342513150953  0.5346516369232149  0.06264739674068669  1.0000
  H   H11       1.0  0.762496754569007  0.9653491181108153  0.9373520980516618  1.0000
  H   H12       1.0  0.7375042292425675  0.46534633093241945  0.9373542759185015  1.0000
  H   H13       1.0  0.9975655503377255  0.8505969643318001  0.01083072220740898  1.0000
  H   H14       1.0  0.5024284797872696  0.35059607738899246  0.010829833156442668  1.0000
  H   H15       1.0  0.0024342726949058008  0.14940430153998113  0.9891696491862235  1.0000
  H   H16       1.0  0.49756483726439876  0.6494018964786576  0.9891703213174594  1.0000
  H   H17       1.0  0.0022568422124749  0.650006158286118  0.4038220577428363  1.0000
  H   H18       1.0  0.49774787767135115  0.1500088784086557  0.40382112277882243  1.0000
  H   H19       1.0  0.9977473181556888  0.34999264083151616  0.5961775816359705  1.0000
  H   H20       1.0  0.5022584513553596  0.8499932187251247  0.5961772153344286  1.0000
  H   H21       1.0  0.24880782737099588  0.7112878926843679  0.35662131342356673  1.0000
  H   H22       1.0  0.2511903405356363  0.21128757026171033  0.356621172921976  1.0000
  H   H23       1.0  0.7511898270004237  0.2887133761934209  0.6433782988774227  1.0000
  H   H24       1.0  0.7488073138466761  0.788711234869055  0.6433769482726603  1.0000
  H   H25       1.0  0.6322903136757247  0.7894593197063603  0.3202776115038192  1.0000
  H   H26       1.0  0.8677022185109494  0.2894572364783556  0.320276104674008  1.0000
  H   H27       1.0  0.36770734069124694  0.21054194316162983  0.6797235189846732  1.0000
  H   H28       1.0  0.13228892987439883  0.7105415596410509  0.6797242938052079  1.0000
  C   C1        1.0  0.40321460396661013  0.8253266779432098  0.21720628586991358  1.0000
  C   C2        1.0  0.09677944455271612  0.32532404988543107  0.21720481226398652  1.0000
  C   C3        1.0  0.5967830503945779  0.1746762294260549  0.7827953326269823  1.0000
  C   C4        1.0  0.9032160411681576  0.6746722794798358  0.7827948542004108  1.0000
  C   C5        1.0  0.7121594732107396  0.9643505667360658  0.3488293286606706  1.0000
  C   C6        1.0  0.7878406416881987  0.46434690876790097  0.34883045192134443  1.0000
  C   C7        1.0  0.28784902446850685  0.0356539941436225  0.6511705005578321  1.0000
  C   C8        1.0  0.21216351868195457  0.5356494145831263  0.651170732726115  1.0000
  C   C9        1.0  0.5266697227809162  0.932057159056079  0.2520121036552397  1.0000
  C   C10       1.0  0.9733289637700296  0.43205495865662874  0.2520127660250893  1.0000
  C   C11       1.0  0.4733322689138149  0.0679457573256599  0.7479872375581851  1.0000
  C   C12       1.0  0.026668690609163503  0.5679421899532643  0.7479879035361493  1.0000
  C   C13       1.0  0.20671667025553828  0.7980216127141304  0.1321246072711233  1.0000
  C   C14       1.0  0.2932801918378587  0.29801961170496577  0.13212165840989343  1.0000
  C   C15       1.0  0.7932809841063175  0.20198046939960076  0.8678775263153256  1.0000
  C   C16       1.0  0.7067196312063332  0.7019783651642513  0.867877736966932  1.0000
  C   C17       1.0  0.46638132537722754  0.0060981697042735  0.19464514449736475  1.0000
  C   C18       1.0  0.0336210483185013  0.5060970589605277  0.19464729446826112  1.0000
  C   C19       1.0  0.5336250036545992  0.9939031081837654  0.8053521905179367  1.0000
  C   C20       1.0  0.9663831120480992  0.4939009118966737  0.8053536190938504  1.0000
  C   C21       1.0  0.14802609217180424  0.873641204917654  0.07771133454028258  1.0000
  C   C22       1.0  0.3519728592822347  0.3736399600501557  0.07771008781335101  1.0000
  C   C23       1.0  0.8519758995242483  0.1263600609530187  0.9222890368522416  1.0000
  C   C24       1.0  0.6480247950889506  0.6263588300561196  0.9222918288500426  1.0000
  C   C25       1.0  0.28088239072921783  0.97715616926574  0.10732526024328595  1.0000
  C   C26       1.0  0.21911800826428865  0.4771542261697519  0.10732694183435845  1.0000
  C   C27       1.0  0.7191217696369493  0.022845105618514997  0.8926728338668755  1.0000
  C   C28       1.0  0.7808839834373132  0.5228429164281253  0.892675245912166  1.0000
  O   O1        1.0  0.1629784512021928  0.7058204639049634  0.42391663743410385  1.0000
  O   O2        1.0  0.33702585557996667  0.20582087584205766  0.42391665310689314  1.0000
  O   O3        1.0  0.837025709162411  0.2941799827188518  0.5760827308593549  1.0000
  O   O4        1.0  0.6629783047875292  0.794178748531117  0.5760824711823676  1.0000
  O   O5        1.0  0.8012244077560525  0.8871986538363643  0.3854336038618555  1.0000
  O   O6        1.0  0.6987672246880976  0.3871934515868674  0.3854320529747426  1.0000
  O   O7        1.0  0.19877758393000994  0.11280672929729721  0.6145664693641708  1.0000
  O   O8        1.0  0.30122609237446346  0.6128020585337666  0.6145666103928137  1.0000
  O   O9        1.0  0.4760535617443579  0.7487940311384305  0.2658219888261541  1.0000
  O   O10       1.0  0.0239384363481818  0.24879148067239507  0.26581983066148507  1.0000
  O   O11       1.0  0.5239419239505096  0.2512096984825831  0.7341798736760552  1.0000
  O   O12       1.0  0.9760483747138552  0.7512056679430543  0.7341808389053028  1.0000
  O   O13       1.0  0.7706245463138188  0.0653181194145134  0.39315142880860776  1.0000
  O   O14       1.0  0.7293817531120511  0.5653151366719485  0.3931597223007017  1.0000
  O   O15       1.0  0.2293861200488863  0.934686468508147  0.6068415685650237  1.0000
  O   O16       1.0  0.2706289132305884  0.434681162636558  0.6068475350934436  1.0000
