data_image0
_chemical_formula_structural       Cu2H26C28N4O10
_chemical_formula_sum              "Cu2 H26 C28 N4 O10"
_cell_length_a       7.560366869846096
_cell_length_b       9.124309651560997
_cell_length_c       10.312388075554825
_cell_angle_alpha    76.35330666272415
_cell_angle_beta     77.55713367895034
_cell_angle_gamma    85.74920722365046

_space_group_name_H-M_alt    "P 1"
_space_group_IT_number       1

loop_
  _space_group_symop_operation_xyz
  'x, y, z'

loop_
  _atom_site_type_symbol
  _atom_site_label
  _atom_site_symmetry_multiplicity
  _atom_site_fract_x
  _atom_site_fract_y
  _atom_site_fract_z
  _atom_site_occupancy
  Cu  Cu1       1.0  0.251770169156636  0.24151357953632405  0.7300818085296755  1.0000
  Cu  Cu2       1.0  0.748213054022223  0.7584833505998319  0.26991674861967857  1.0000
  H   H1        1.0  0.7577442197120023  0.16818176982140184  0.46439160831972975  1.0000
  H   H2        1.0  0.24227699335203567  0.8318416012182368  0.5356037386648111  1.0000
  H   H3        1.0  0.6911300286060612  0.9822201506197954  0.4937761670075034  1.0000
  H   H4        1.0  0.30889048188130636  0.017809995735980518  0.5062066600512268  1.0000
  H   H5        1.0  0.9301357641176794  0.9028440039127335  0.6428652644273996  1.0000
  H   H6        1.0  0.06986853585427615  0.09714223340655083  0.3571263594429439  1.0000
  H   H7        1.0  0.6413857280316293  0.36001002784593084  0.6043973044253192  1.0000
  H   H8        1.0  0.35863487687656465  0.6399885199121867  0.3956024169336417  1.0000
  H   H9        1.0  0.7936364480604042  0.6004852302528362  0.5822383482553306  1.0000
  H   H10       1.0  0.20634818635625865  0.3995134345720288  0.4177763767909681  1.0000
  H   H11       1.0  0.6120178220525716  0.8054829645835399  0.6796255608953743  1.0000
  H   H12       1.0  0.3879699830905282  0.1945135083898465  0.3203656874703995  1.0000
  H   H13       1.0  0.28386105194893935  0.7715390495487924  0.777936803110201  1.0000
  H   H14       1.0  0.7161298710705921  0.22847492198308572  0.22205660060871682  1.0000
  H   H15       1.0  0.002207282285688439  0.7280306475448698  0.8433818390115277  1.0000
  H   H16       1.0  0.9978021234525304  0.27196082292800844  0.1566464846602642  1.0000
  H   H17       1.0  0.6921771583076293  0.6427643249814781  0.9518466603425394  1.0000
  H   H18       1.0  0.30782106972802836  0.35723136881197354  0.048185356888709015  1.0000
  H   H19       1.0  0.6138197180575845  0.37185992608110763  0.9633859016494881  1.0000
  H   H20       1.0  0.38618787825241446  0.6281374858672352  0.03662722217088538  1.0000
  H   H21       1.0  0.8572916909929021  0.20366066540322697  0.8670769515312031  1.0000
  H   H22       1.0  0.1426753205889996  0.7963299589261722  0.13290879358217472  1.0000
  H   H23       1.0  0.4702228482641716  0.11721139541786842  0.8994113193557779  1.0000
  H   H24       1.0  0.5297675915944282  0.8828141408984891  0.10060008505101346  1.0000
  H   H25       1.0  0.33931406650219753  0.08606772014041301  0.044589091935264905  1.0000
  H   H26       1.0  0.6606838499811902  0.913949390713775  0.9554167004317408  1.0000
  C   C1        1.0  0.6048357930817899  0.08685558676194205  0.6622272480337941  1.0000
  C   C2        1.0  0.39516496172504395  0.9131464271102276  0.3377851018589055  1.0000
  C   C3        1.0  0.7465505247031602  0.06050608088511209  0.5402947979940222  1.0000
  C   C4        1.0  0.25344987759726934  0.9395062366500042  0.4596801510176363  1.0000
  C   C5        1.0  0.9344503481975084  0.010460759166861103  0.5669993987991121  1.0000
  C   C6        1.0  0.06555639144260542  0.9895326389788299  0.43300949211195666  1.0000
  C   C7        1.0  0.012327783611546317  0.13061483108002392  0.6192636026078375  1.0000
  C   C8        1.0  0.9876847060631491  0.8693691465859956  0.38072734550659965  1.0000
  C   C9        1.0  0.5659487933331916  0.45293956376279004  0.6419986817153713  1.0000
  C   C10       1.0  0.4340340470382032  0.5470610578223685  0.3579848066808182  1.0000
  C   C11       1.0  0.6508113848269306  0.5867634629358067  0.6306730762800824  1.0000
  C   C12       1.0  0.34918758918509246  0.4132334751088678  0.36931190190074403  1.0000
  C   C13       1.0  0.5488557506604935  0.701378705246846  0.6823192485844417  1.0000
  C   C14       1.0  0.4511529225130532  0.29860678662515033  0.3176680540333052  1.0000
  C   C15       1.0  0.3654168280663869  0.6815644976809736  0.7392111325235363  1.0000
  C   C16       1.0  0.6345791905311842  0.3184356241763951  0.2607757213826432  1.0000
  C   C17       1.0  0.2883611260761897  0.5448011081681728  0.7455144593689339  1.0000
  C   C18       1.0  0.7116297361894228  0.4552080788770071  0.25448251681913087  1.0000
  C   C19       1.0  0.09673907873330026  0.5098771942551893  0.8033956972708083  1.0000
  C   C20       1.0  0.9032715491280288  0.4901178336519933  0.1965959415563674  1.0000
  C   C21       1.0  0.9666210893912749  0.6124030813350531  0.8508193210491514  1.0000
  C   C22       1.0  0.03339166766750171  0.3875829212295443  0.1491849688020821  1.0000
  C   C23       1.0  0.791674211055785  0.5636807157680012  0.9109160357876859  1.0000
  C   C24       1.0  0.2083194918175835  0.4363079822265946  0.0891086879757381  1.0000
  C   C25       1.0  0.749285375942442  0.41497459315549884  0.9192252883222379  1.0000
  C   C26       1.0  0.2507042099954688  0.5850269556453754  0.08079333175541592  1.0000
  C   C27       1.0  0.8835167612345743  0.3195901986364405  0.8668368191942833  1.0000
  C   C28       1.0  0.11647303559850289  0.6804146863215835  0.1331589116154603  1.0000
  N   N1        1.0  0.39017899501730113  0.43168719060811617  0.699451499002052  1.0000
  N   N2        1.0  0.6098048588663617  0.5683082601856384  0.3005393838670969  1.0000
  N   N3        1.0  0.0528476148753114  0.3663253092269089  0.8114929009053498  1.0000
  N   N4        1.0  0.9471454615582573  0.6336709638553587  0.18849969366442562  1.0000
  O   O1        1.0  0.45461349052830263  0.1421026869978306  0.6293593077512085  1.0000
  O   O2        1.0  0.5453997690263037  0.8578800035154617  0.37062197439571065  1.0000
  O   O3        1.0  0.6377305126356776  0.05841562134105523  0.7808088736134877  1.0000
  O   O4        1.0  0.3622530056309402  0.9416014796792641  0.21921033635122458  1.0000
  O   O5        1.0  0.9975313340095299  0.26653693476879436  0.5611833275346783  1.0000
  O   O6        1.0  0.0025075121175107407  0.7334460434416386  0.4388143515997455  1.0000
  O   O7        1.0  0.09675875732568072  0.08035569689645432  0.7189390414401302  1.0000
  O   O8        1.0  0.903250202566845  0.919640072607294  0.28105659589797233  1.0000
  O   O9        1.0  0.3687493472091604  0.16194062737278614  0.9587799467038849  1.0000
  O   O10       1.0  0.6312474756731418  0.8380686170529329  0.04122703067574924  1.0000
