data_image0
_chemical_formula_structural       AlH6C24N3O6F6
_chemical_formula_sum              "Al1 H6 C24 N3 O6 F6"
_cell_length_a       3.9656924096050803
_cell_length_b       15.830556415382743
_cell_length_c       15.80477505371107
_cell_angle_alpha    60.16119659865368
_cell_angle_beta     85.32916294696204
_cell_angle_gamma    84.99521677701416

_space_group_name_H-M_alt    "P 1"
_space_group_IT_number       1

loop_
  _space_group_symop_operation_xyz
  'x, y, z'

loop_
  _atom_site_type_symbol
  _atom_site_label
  _atom_site_symmetry_multiplicity
  _atom_site_fract_x
  _atom_site_fract_y
  _atom_site_fract_z
  _atom_site_occupancy
  Al  Al1       1.0  0.9999551965225778  0.49980920067896767  0.5005386376814513  1.0000
  H   H1        1.0  0.3965118528774169  0.8646462886863377  0.590754796968426  1.0000
  H   H2        1.0  0.39589868237441556  0.5913883034253901  0.8635399078528181  1.0000
  H   H3        1.0  0.4414411518796014  0.05016717778149631  0.5898425809641595  1.0000
  H   H4        1.0  0.49178293466290757  0.04874019404319092  0.8631567047475103  1.0000
  H   H5        1.0  0.49149075884900384  0.8626480017206151  0.04984043467474909  1.0000
  H   H6        1.0  0.43001922247658086  0.5913882235136046  0.04906572180522758  1.0000
  C   C1        1.0  0.5189502774701393  0.5730353332265781  0.3509681409594735  1.0000
  C   C2        1.0  0.45129333428270246  0.5768338931824177  0.5740715356728713  1.0000
  C   C3        1.0  0.5234725313774079  0.35024783685042854  0.5763711189277814  1.0000
  C   C4        1.0  0.43785449282441374  0.9306785255596781  0.7865415792445704  1.0000
  C   C5        1.0  0.40087787024458504  0.7878592097954853  0.7870710556675603  1.0000
  C   C6        1.0  0.4344749644518231  0.7874549438006826  0.9301556814597804  1.0000
  C   C7        1.0  0.407482661499543  0.7333835848695287  0.5814905793469978  1.0000
  C   C8        1.0  0.3970088050163554  0.7854449698579774  0.6308451992288725  1.0000
  C   C9        1.0  0.3941142251057882  0.7340507448213959  0.7331201920672258  1.0000
  C   C10       1.0  0.39964529426814005  0.6318422628840638  0.7841805287810145  1.0000
  C   C11       1.0  0.4160816274938099  0.5830399466586871  0.7314856285098228  1.0000
  C   C12       1.0  0.420775084815432  0.6313273309721056  0.6292599344971992  1.0000
  C   C13       1.0  0.46331327410550927  0.08844922875374549  0.6301577745885256  1.0000
  C   C14       1.0  0.4936779773172263  0.18851423317367022  0.5811842095279331  1.0000
  C   C15       1.0  0.5173474339456163  0.24136490207597922  0.6296256445048911  1.0000
  C   C16       1.0  0.5147771640800017  0.18775338473831488  0.7316628452167181  1.0000
  C   C17       1.0  0.4899549379022402  0.0876460867313824  0.7838838022026736  1.0000
  C   C18       1.0  0.4620315054672234  0.03768109471391062  0.7324669590557635  1.0000
  C   C19       1.0  0.48896278312731317  0.7835005374563482  0.08827071954246418  1.0000
  C   C20       1.0  0.5182693859099246  0.7306334351468423  0.18859210916234312  1.0000
  C   C21       1.0  0.5092861743997757  0.6286777475307732  0.24226772221274462  1.0000
  C   C22       1.0  0.475051385554714  0.5816149302549507  0.18830977478168623  1.0000
  C   C23       1.0  0.4511047145148978  0.6311522293512725  0.08791532368478983  1.0000
  C   C24       1.0  0.4560347681539341  0.7331473581449829  0.03756956043793017  1.0000
  N   N1        1.0  0.411130312476196  0.8854746425065089  0.7346666135856665  1.0000
  N   N2        1.0  0.4073487589466538  0.7356113316706259  0.88494473601574  1.0000
  N   N3        1.0  0.4517613983902109  0.8848439951108564  0.8843417952840086  1.0000
  O   O1        1.0  0.2724983762858741  0.394969086239513  0.5949997266296665  1.0000
  O   O2        1.0  0.29727117568729244  0.5100293761094151  0.39587273636733034  1.0000
  O   O3        1.0  0.22791856553362067  0.5954630932494285  0.5131059608395178  1.0000
  O   O4        1.0  0.7724094317738944  0.3893422205806304  0.5174318768827247  1.0000
  O   O5        1.0  0.7030381716565158  0.515706582059437  0.592671789307346  1.0000
  O   O6        1.0  0.7431710787854867  0.5921797044964738  0.3910154348332354  1.0000
  F   F1        1.0  0.4223902563039204  0.48435257697119033  0.7807470072371246  1.0000
  F   F2        1.0  0.4177748042525379  0.7830349211235659  0.48263064020046903  1.0000
  F   F3        1.0  0.49243943890947156  0.23792845939261312  0.48239184020601317  1.0000
  F   F4        1.0  0.5428548428993735  0.23642704775831194  0.7808700182039774  1.0000
  F   F5        1.0  0.5458361250455468  0.7799545271733025  0.23701267043217925  1.0000
  F   F6        1.0  0.4740083972985828  0.4831125382237646  0.23607959286243838  1.0000
