data_image0
_chemical_formula_structural       Ni2H16C8N4O12
_chemical_formula_sum              "Ni2 H16 C8 N4 O12"
_cell_length_a       7.36711674112461
_cell_length_b       7.938469952459384
_cell_length_c       8.23216613738243
_cell_angle_alpha    90.00077537670168
_cell_angle_beta     116.22893735100044
_cell_angle_gamma    89.9988086574465

_space_group_name_H-M_alt    "P 1"
_space_group_IT_number       1

loop_
  _space_group_symop_operation_xyz
  'x, y, z'

loop_
  _atom_site_type_symbol
  _atom_site_label
  _atom_site_symmetry_multiplicity
  _atom_site_fract_x
  _atom_site_fract_y
  _atom_site_fract_z
  _atom_site_occupancy
  Ni  Ni1       1.0  0.9999995533811513  0.4999993731796408  0.9999994797324664  1.0000
  Ni  Ni2       1.0  0.5000002328470003  1.1871344441000016e-06  0.5000008890372316  1.0000
  H   H1        1.0  0.528669003982877  0.44930910843418564  0.8570664453885332  1.0000
  H   H2        1.0  0.9713298269793994  0.9493128349253794  0.6429240659406404  1.0000
  H   H3        1.0  0.47133056553248304  0.5506894928084234  0.14293307622622822  1.0000
  H   H4        1.0  0.028665205908659192  0.05068954542251449  0.3570748832729296  1.0000
  H   H5        1.0  0.3833785365954157  0.36464529477325414  0.6350610136177938  1.0000
  H   H6        1.0  0.1166209093967225  0.8646500747949375  0.8649282033790802  1.0000
  H   H7        1.0  0.6166225490586471  0.6353545661559465  0.3649403200279624  1.0000
  H   H8        1.0  0.883377155844009  0.1353472667946107  0.13507436987623575  1.0000
  H   H9        1.0  0.27909465257275906  0.22853756105945414  0.17832610924787679  1.0000
  H   H10       1.0  0.22089602626559213  0.72854352260498  0.3216663998919459  1.0000
  H   H11       1.0  0.7209049199587765  0.7714560014371941  0.821674628271275  1.0000
  H   H12       1.0  0.7791020270734349  0.271457598016795  0.6783313097019462  1.0000
  H   H13       1.0  0.0865912530428972  0.3766343560219595  0.6755180575046398  1.0000
  H   H14       1.0  0.4134094703831294  0.8766417051854204  0.8244730357477511  1.0000
  H   H15       1.0  0.9134098296576879  0.6233642452102758  0.32448206021985737  1.0000
  H   H16       1.0  0.5865885889004829  0.12335815576453509  0.17552710567854052  1.0000
  C   C1        1.0  0.2314393163759689  0.4152028903270092  0.7878611061972908  1.0000
  C   C2        1.0  0.2685515838137603  0.9152089419797277  0.7121363443338569  1.0000
  C   C3        1.0  0.7685617663246161  0.584795710905226  0.21213901152720643  1.0000
  C   C4        1.0  0.7314464724787512  0.0847934383390196  0.28786258118129393  1.0000
  C   C5        1.0  0.2869839994757371  0.30350235622885435  0.29436738821576836  1.0000
  C   C6        1.0  0.21301576448508536  0.8034942661252772  0.20562361562411274  1.0000
  C   C7        1.0  0.7130185964226214  0.6964949853044045  0.7056333256150824  1.0000
  C   C8        1.0  0.7869837990856894  0.1965055947891443  0.7943734741582493  1.0000
  N   N1        1.0  0.3915309757507615  0.4124613083806352  0.7553504820245894  1.0000
  N   N2        1.0  0.1084660050958846  0.9124645800103436  0.7446383949914124  1.0000
  N   N3        1.0  0.6084685937645915  0.5875372928619742  0.24464903959017206  1.0000
  N   N4        1.0  0.8915305409899474  0.08753654063857398  0.25536115032851825  1.0000
  O   O1        1.0  0.18383563481390303  0.43758690271722145  0.2633386524067306  1.0000
  O   O2        1.0  0.31617204011315186  0.9375747454254507  0.23665237876074496  1.0000
  O   O3        1.0  0.8161624185752814  0.5624091791502012  0.7366590571736683  1.0000
  O   O4        1.0  0.6838320630258536  0.062423855769253585  0.7633464993474423  1.0000
  O   O5        1.0  0.39725837352264637  0.24822474424802007  0.45326356003835877  1.0000
  O   O6        1.0  0.1027455321186466  0.7482216076839378  0.04673441952172652  1.0000
  O   O7        1.0  0.6027457385018806  0.7517751166604327  0.5467389658268618  1.0000
  O   O8        1.0  0.8972525212203802  0.25177951293783707  0.9532632900721653  1.0000
  O   O9        1.0  0.2390738340210348  0.4601772589077486  0.9381330475524127  1.0000
  O   O10       1.0  0.2609267363396199  0.9601864159106198  0.561857873405451  1.0000
  O   O11       1.0  0.7609257325157586  0.5398226020150645  0.06186525814783307  1.0000
  O   O12       1.0  0.7390713169743247  0.039817224088331195  0.4381398361951909  1.0000
