data_image0
_chemical_formula_structural       Fe6H24C24N36
_chemical_formula_sum              "Fe6 H24 C24 N36"
_cell_length_a       11.69049836155402
_cell_length_b       11.690505893902131
_cell_length_c       11.690499518318264
_cell_angle_alpha    60.00009212679212
_cell_angle_beta     60.00009542237539
_cell_angle_gamma    60.00008824056985

_space_group_name_H-M_alt    "P 1"
_space_group_IT_number       1

loop_
  _space_group_symop_operation_xyz
  'x, y, z'

loop_
  _atom_site_type_symbol
  _atom_site_label
  _atom_site_symmetry_multiplicity
  _atom_site_fract_x
  _atom_site_fract_y
  _atom_site_fract_z
  _atom_site_occupancy
  Fe  Fe1       1.0  2.811351790596256e-07  0.9999996459196153  0.49999985799225743  1.0000
  Fe  Fe2       1.0  1.8723256099062128e-08  0.4999994221719532  0.9999994836698958  1.0000
  Fe  Fe3       1.0  1.9638612518416164e-07  0.4999997857967883  0.5000004789812138  1.0000
  Fe  Fe4       1.0  0.4999996378401121  0.5000005183827696  0.499999836411085  1.0000
  Fe  Fe5       1.0  0.12500024736974785  0.6249996292193033  0.624999914263604  1.0000
  Fe  Fe6       1.0  0.8749993898418396  0.3750000582900128  0.3749997585577062  1.0000
  H   H1        1.0  0.29641159722694976  0.03706773980322706  0.33326100357616173  1.0000
  H   H2        1.0  0.83326094474738  0.3332600818770074  0.03706648064481039  1.0000
  H   H3        1.0  0.8332599260478017  0.333260491546163  0.7964120363008788  1.0000
  H   H4        1.0  0.5370680515574549  0.7964105870923959  0.33326079885084425  1.0000
  H   H5        1.0  0.2964105605486864  0.33326051933264017  0.03706814100200969  1.0000
  H   H6        1.0  0.833261183698511  0.7964113423120267  0.33325999116900107  1.0000
  H   H7        1.0  0.833260282955436  0.037067314666288105  0.3332603908581006  1.0000
  H   H8        1.0  0.5370671431197139  0.3332600855394433  0.7964117963427951  1.0000
  H   H9        1.0  0.296411632325075  0.3332597701588752  0.3332612563177903  1.0000
  H   H10       1.0  0.8332602524810395  0.037067111934298846  0.7964117835583905  1.0000
  H   H11       1.0  0.8332614611793686  0.7964117299541869  0.03706687585400909  1.0000
  H   H12       1.0  0.5370668243811355  0.3332599390585217  0.333261451282432  1.0000
  H   H13       1.0  0.1667384988618467  0.9629332282369416  0.6667392819632453  1.0000
  H   H14       1.0  0.7035878720556282  0.6667396743576787  0.9629325794592629  1.0000
  H   H15       1.0  0.4629329879548153  0.6667400958321822  0.2035878764793395  1.0000
  H   H16       1.0  0.1667389473760181  0.20358883905959865  0.6667396816531265  1.0000
  H   H17       1.0  0.16673918632714904  0.6667400994946178  0.9629331921773241  1.0000
  H   H18       1.0  0.4629325856984112  0.20358838967240442  0.6667399216111745  1.0000
  H   H19       1.0  0.7035886784975531  0.9629325862177891  0.666739716886724  1.0000
  H   H20       1.0  0.1667385065565128  0.666739702144156  0.20358868416039397  1.0000
  H   H21       1.0  0.4629333190117892  0.6667385438439695  0.6667392691787696  1.0000
  H   H22       1.0  0.16673938473054767  0.9629325755750173  0.20358788926291985  1.0000
  H   H23       1.0  0.16673901910812844  0.20358880063034232  0.9629317493281914  1.0000
  H   H24       1.0  0.703589004930791  0.666739206605925  0.6667394641442285  1.0000
  C   C1        1.0  0.3087495066463436  0.9267708128987523  0.38224001420243775  1.0000
  C   C2        1.0  0.882240093785356  0.38223883689907023  0.9267700263315246  1.0000
  C   C3        1.0  0.8822389927871374  0.3822394905839344  0.8087501800512696  1.0000
  C   C4        1.0  0.4267716806200924  0.8087486930189057  0.38224000910832245  1.0000
  C   C5        1.0  0.3087490284983048  0.3822402789666696  0.9267716570054887  1.0000
  C   C6        1.0  0.8822398914008859  0.8087500409862185  0.38223933046216263  1.0000
  C   C7        1.0  0.882239367326115  0.9267698770121626  0.38223943116844333  1.0000
  C   C8        1.0  0.42677111890091624  0.38224019029865985  0.8087487634184355  1.0000
  C   C9        1.0  0.30875036800655675  0.38224011021124943  0.3822395495533469  1.0000
  C   C10       1.0  0.8822406729730478  0.926771024027957  0.8087485494221126  1.0000
  C   C11       1.0  0.8822402626812437  0.8087484989538112  0.9267714379142259  1.0000
  C   C12       1.0  0.4267703071169322  0.38223953714516773  0.3822396451655833  1.0000
  C   C13       1.0  0.11776041453543949  0.07322995514655171  0.617761289293618  1.0000
  C   C14       1.0  0.6912508856948351  0.6177613963105699  0.07322906345824978  1.0000
  C   C15       1.0  0.5732281567793011  0.6177608464668792  0.19125090940373468  1.0000
  C   C16       1.0  0.1177602396736433  0.1912501403853994  0.6177603423599648  1.0000
  C   C17       1.0  0.11776003728917324  0.6177613444725479  0.07322964649060988  1.0000
  C   C18       1.0  0.5732289566357736  0.19125028374589456  0.6177607113537034  1.0000
  C   C19       1.0  0.6912514798224904  0.07322851307895213  0.6177596586196542  1.0000
  C   C20       1.0  0.11775978903014547  0.6177610523192953  0.19124949277006917  1.0000
  C   C21       1.0  0.573230330138934  0.6177594396196325  0.6177610752964425  1.0000
  C   C22       1.0  0.11775896423853993  0.073228663481359  0.1912511233991978  1.0000
  C   C23       1.0  0.11775937453034402  0.1912511885555048  0.07322823490708431  1.0000
  C   C24       1.0  0.6912494138550045  0.617759721947465  0.6177611709087072  1.0000
  N   N1        1.0  0.19556316929924092  0.8831913877038036  0.4606233005750012  1.0000
  N   N2        1.0  0.9606230610910841  0.46062343019795554  0.8831925020989783  1.0000
  N   N3        1.0  0.9606224701150337  0.4606229090074902  0.6955611345455993  1.0000
  N   N4        1.0  0.3831925487410502  0.6955627926851519  0.4606222448365499  1.0000
  N   N5        1.0  0.1955628621847725  0.4606230837853855  0.8831918822925003  1.0000
  N   N6        1.0  0.960623401828429  0.6955611906084157  0.4606227126352491  1.0000
  N   N7        1.0  0.9606228620242235  0.8831929387231982  0.46062287274158115  1.0000
  N   N8        1.0  0.3831917739960247  0.4606229572644905  0.695562762026718  1.0000
  N   N9        1.0  0.1955609865917367  0.4606230761458931  0.46062293999433734  1.0000
  N   N10       1.0  0.9606220989580194  0.8831920882780153  0.6955625427654367  1.0000
  N   N11       1.0  0.960622217375601  0.6955632705673479  0.8831916549327017  1.0000
  N   N12       1.0  0.3831933924565335  0.4606229523157593  0.4606230920028266  1.0000
  N   N13       1.0  0.039377269050305676  0.11680724264842726  0.5393768000805464  1.0000
  N   N14       1.0  0.8044372688897569  0.5393770975862323  0.1168077905296272  1.0000
  N   N15       1.0  0.6168075016841926  0.5393780795010417  0.30443691079544516  1.0000
  N   N16       1.0  0.039376729246100764  0.3044389907632024  0.5393769601868783  1.0000
  N   N17       1.0  0.03937706998344492  0.5393767511736627  0.11680717072315618  1.0000
  N   N18       1.0  0.6168084377277838  0.3044365332925524  0.539377427985542  1.0000
  N   N19       1.0  0.8044366125623131  0.11680844445491091  0.5393774198870601  1.0000
  N   N20       1.0  0.03937716709655353  0.5393767785018327  0.30443853827571127  1.0000
  N   N21       1.0  0.6168072447993256  0.5393760244490337  0.5393776284591922  1.0000
  N   N22       1.0  0.03937753825356791  0.11680759923130073  0.30443713005586653  1.0000
  N   N23       1.0  0.03937741983598641  0.304436416941968  0.11680801788860856  1.0000
  N   N24       1.0  0.8044387952698246  0.5393767560128211  0.539377780467717  1.0000
  N   N25       1.0  0.24254564490616576  0.7425449190088216  0.5074548446643944  1.0000
  N   N26       1.0  0.007454849833323023  0.5074543394297848  0.7425449838628139  1.0000
  N   N27       1.0  0.242545020395376  0.5074546845001251  0.7425451743191542  1.0000
  N   N28       1.0  0.007454618949807916  0.7425454293323954  0.5074546542080896  1.0000
  N   N29       1.0  0.2425452022461345  0.5074549537867199  0.5074546440610135  1.0000
  N   N30       1.0  0.007454437099049691  0.7425451600458003  0.7425451844662304  1.0000
  N   N31       1.0  0.9925455121247211  0.25745475203923024  0.49254501861404504  1.0000
  N   N32       1.0  0.7574546168162115  0.49254500300919096  0.25745449850214897  1.0000
  N   N33       1.0  0.9925447873782647  0.49254534807953104  0.2574546889584894  1.0000
  N   N34       1.0  0.7574541369553958  0.25745491314989266  0.49254587579766707  1.0000
  N   N35       1.0  0.757454928828395  0.49254522758490543  0.49254502876111406  1.0000
  N   N36       1.0  0.9925452001125379  0.25745452746351544  0.25745448835507995  1.0000
