data_image0
_chemical_formula_structural       Zn4H42C61N16
_chemical_formula_sum              "Zn4 H42 C61 N16"
_cell_length_a       13.526261894077928
_cell_length_b       15.048840055669789
_cell_length_c       17.00128012135248
_cell_angle_alpha    106.35528561343209
_cell_angle_beta     107.62360706415475
_cell_angle_gamma    108.66091730792371

_space_group_name_H-M_alt    "P 1"
_space_group_IT_number       1

loop_
  _space_group_symop_operation_xyz
  'x, y, z'

loop_
  _atom_site_type_symbol
  _atom_site_label
  _atom_site_symmetry_multiplicity
  _atom_site_fract_x
  _atom_site_fract_y
  _atom_site_fract_z
  _atom_site_occupancy
  Zn  Zn1       1.0  0.3806231241834368  0.014177225805397452  0.8972126176164679  1.0000
  Zn  Zn2       1.0  0.6455541413457055  0.9948905692970489  0.12131935073407633  1.0000
  Zn  Zn3       1.0  0.3604678880641076  0.8837507207376949  0.015574520141996163  1.0000
  Zn  Zn4       1.0  0.6622356813921114  0.1282166243123156  0.997326127654908  1.0000
  H   H1        1.0  0.27174230396354915  0.15557770952203498  0.956061720578063  1.0000
  H   H2        1.0  0.796525860398482  0.699516746572769  0.9962329957391205  1.0000
  H   H3        1.0  0.6298597096477323  0.14536417522650433  0.2844959025210089  1.0000
  H   H4        1.0  0.7486937702390933  0.7003077592423427  0.0838079583282296  1.0000
  H   H5        1.0  0.8018966201252411  0.5317669567367959  0.9815501319556077  1.0000
  H   H6        1.0  0.752979253483744  0.5320224441948868  0.06825458843188419  1.0000
  H   H7        1.0  0.9743343340128305  0.7190544781158368  0.5806661952900498  1.0000
  H   H8        1.0  0.9701768815355222  0.5265015927289909  0.7271699229115072  1.0000
  H   H9        1.0  0.852139854890325  0.6389400270139947  0.4141382801509297  1.0000
  H   H10       1.0  0.8295159377135732  0.37273745712958123  0.5856883720815418  1.0000
  H   H11       1.0  0.7325140976609247  0.4828126661786102  0.27057007851599485  1.0000
  H   H12       1.0  0.6931495208513709  0.8127045781650253  0.01550974693517314  1.0000
  H   H13       1.0  0.7296808349799947  0.291862657251386  0.4184094122336435  1.0000
  H   H14       1.0  0.633929378716502  0.8515454616858664  0.40947545025449744  1.0000
  H   H15       1.0  0.29915098985412675  0.8080038057991176  0.16404644454902956  1.0000
  H   H16       1.0  0.2871936807615043  0.822248400572562  0.2962242878567451  1.0000
  H   H17       1.0  0.7086513968665358  0.8401142867312928  0.5585301901752686  1.0000
  H   H18       1.0  0.2601686842395948  0.8017062299628323  0.42788202637212447  1.0000
  H   H19       1.0  0.6925514007373081  0.8523275828899488  0.7022504560908515  1.0000
  H   H20       1.0  0.348847260011496  0.8270763814765516  0.5861477010437923  1.0000
  H   H21       1.0  0.04056015599551446  0.9696196162304532  0.07482374877270108  1.0000
  H   H22       1.0  0.8172828662398856  0.8496066972481204  0.9717533364298917  1.0000
  H   H23       1.0  0.10331527107522474  0.6699815015149538  0.860355094796347  1.0000
  H   H24       1.0  0.9517938412572206  0.8533793429221889  0.720126211968079  1.0000
  H   H25       1.0  0.8732162320217823  0.9248182348374742  0.6929047902318359  1.0000
  H   H26       1.0  0.12809215595239454  0.016943890112557185  0.8248218769594189  1.0000
  H   H27       1.0  0.7068733714031054  0.34119059384180167  0.9560343021224611  1.0000
  H   H28       1.0  0.050921323981135955  0.09004749141059415  0.799649359952859  1.0000
  H   H29       1.0  0.6716798563540112  0.9449545672374956  0.3110412855835209  1.0000
  H   H30       1.0  0.3325648903552291  0.1875854118995761  0.8289144130831545  1.0000
  H   H31       1.0  0.6825625070644037  0.337503998189476  0.13854060224818457  1.0000
  H   H32       1.0  0.20156487665184403  0.9535681627312229  0.09067192760117154  1.0000
  H   H33       1.0  0.33591806008090697  0.8319490861329939  0.7231210549424247  1.0000
  H   H34       1.0  0.879576255125464  0.9639582754039754  0.14379727658624844  1.0000
  H   H35       1.0  0.0025780275693777213  0.20858205212685024  0.9977779708795397  1.0000
  H   H36       1.0  0.8760021034509221  0.1125973480851243  0.9005971970639594  1.0000
  H   H37       1.0  0.8694222833192314  0.21733066270746096  0.9765148561983426  1.0000
  H   H38       1.0  0.14193919490764986  0.8524169004889046  0.7054194295037419  1.0000
  H   H39       1.0  0.7105008936434771  0.9777459255187539  0.8453675567902721  1.0000
  H   H40       1.0  0.31924254746854774  0.6680577852287823  0.8718210564473878  1.0000
  H   H41       1.0  0.33783321532093413  0.3354660080287958  0.7873557348151223  1.0000
  H   H42       1.0  0.33265118710462355  0.499390769726716  0.8032276394652341  1.0000
  C   C1        1.0  0.2701976525806201  0.10332063798422553  0.9890477112497322  1.0000
  C   C2        1.0  0.14696096213621954  0.8214240473191694  0.7562329381863009  1.0000
  C   C3        1.0  0.6193241803349991  0.9522172545162563  0.8290965121084283  1.0000
  C   C4        1.0  0.6384674901187849  0.17909667741197674  0.23680132236664525  1.0000
  C   C5        1.0  0.41100084633696793  0.7185879532162857  0.9130920886095238  1.0000
  C   C6        1.0  0.5224990910151915  0.8823008127558156  0.7459069927943816  1.0000
  C   C7        1.0  0.5067141092162545  0.6961684799662465  0.9269784899674322  1.0000
  C   C8        1.0  0.07876316846052567  0.722841546077362  0.7468342357892793  1.0000
  C   C9        1.0  0.9256802419700277  0.03905589263295891  0.05436280061054809  1.0000
  C   C10       1.0  0.6148360176078499  0.49523687763487373  0.9359937406233813  1.0000
  C   C11       1.0  0.5175323047042466  0.39976624188147264  0.882956667769946  1.0000
  C   C12       1.0  0.672364846672572  0.28223279408790364  0.24810997992470635  1.0000
  C   C13       1.0  0.4171866449302185  0.4065001185958507  0.8332856746382191  1.0000
  C   C14       1.0  0.4141788909071309  0.5007435016424325  0.8422901595486182  1.0000
  C   C15       1.0  0.5112979035767609  0.5972331110737983  0.9018879821940047  1.0000
  C   C16       1.0  0.3924916352518367  0.8460457471928607  0.1887079365494202  1.0000
  C   C17       1.0  0.6119273306932342  0.5890211067831573  0.9448344361509982  1.0000
  C   C18       1.0  0.7367680624952727  0.65232289704948  0.016280742206959263  1.0000
  C   C19       1.0  0.7398166893219837  0.5459579886364596  0.006515844466171979  1.0000
  C   C20       1.0  0.9854777066009888  0.6345958597596707  0.6639970105908335  1.0000
  C   C21       1.0  0.7243674235997446  0.3744406238984724  0.33335578479210437  1.0000
  C   C22       1.0  0.8250380370207039  0.5627343816881878  0.4149992826637431  1.0000
  C   C23       1.0  0.4799001878230271  0.8640424399093405  0.2699168589119765  1.0000
  C   C24       1.0  0.7582057107189897  0.47510586157027757  0.33467437638906733  1.0000
  C   C25       1.0  0.7542047305946439  0.36742881608637395  0.4164353162279824  1.0000
  C   C26       1.0  0.8233797735939418  0.4557165544693121  0.4999556250357743  1.0000
  C   C27       1.0  0.8634320097504969  0.5562229446454553  0.4998983305235998  1.0000
  C   C28       1.0  0.6155019534287973  0.28905110162929754  0.9270941157368142  1.0000
  C   C29       1.0  0.9431457691022586  0.6435110491396757  0.5826023767150871  1.0000
  C   C30       1.0  0.9400522998130754  0.5348429256229253  0.6636674815230138  1.0000
  C   C31       1.0  0.8614694991375272  0.448637933357631  0.5846097113324333  1.0000
  C   C32       1.0  0.46444584601446354  0.8412650168889544  0.3446375360815354  1.0000
  C   C33       1.0  0.5213656952369661  0.8463945012994004  0.6560473963742268  1.0000
  C   C34       1.0  0.5185894819382355  0.30465223758043447  0.8868725496043696  1.0000
  C   C35       1.0  0.6301241785717836  0.8381386055599908  0.5650983842491757  1.0000
  C   C36       1.0  0.6216324209237881  0.8455709849109285  0.6452329272225512  1.0000
  C   C37       1.0  0.42718255681391065  0.8275214504844116  0.5803820864543142  1.0000
  C   C38       1.0  0.4336135686523051  0.8202678676321898  0.4976952672862468  1.0000
  C   C39       1.0  0.5395850003631252  0.8313970671408983  0.49062808768579214  1.0000
  C   C40       1.0  0.5821471553020174  0.9144797301030965  0.26289418647186125  1.0000
  C   C41       1.0  0.5519610961844278  0.8409833409974824  0.4132585823778924  1.0000
  C   C42       1.0  0.35712163134631675  0.8235081855791435  0.3501372574217498  1.0000
  C   C43       1.0  0.3418488203586277  0.8124092093271216  0.423668117028086  1.0000
  C   C44       1.0  0.00991856603810956  0.017365983636743465  0.8904981571902439  1.0000
  C   C45       1.0  0.428065828235859  0.8778198008552992  0.7660596341770401  1.0000
  C   C46       1.0  0.06483156970227061  0.0323948455217999  0.9799515757009939  1.0000
  C   C47       1.0  0.9898478338795725  0.9834169178928609  0.019443854744786136  1.0000
  C   C48       1.0  0.8751855432394108  0.8803558212130015  0.9432495557811151  1.0000
  C   C49       1.0  0.8439923346553755  0.8569331093505498  0.8552014013111133  1.0000
  C   C50       1.0  0.9064033180999544  0.922852064674828  0.8279278725955095  1.0000
  C   C51       1.0  0.93572846209117  0.9198473958803394  0.7483614774285955  1.0000
  C   C52       1.0  0.42480899807770095  0.21070731896653425  0.861678114466784  1.0000
  C   C53       1.0  0.046958353456304246  0.023246990070369015  0.8152053727148142  1.0000
  C   C54       1.0  0.6648431040278525  0.27674281055365674  0.16216053424030016  1.0000
  C   C55       1.0  0.23595952004925638  0.002367905438241328  0.05969992899259325  1.0000
  C   C56       1.0  0.6017281124555467  0.7927575615574016  0.9866313968633876  1.0000
  C   C57       1.0  0.1865084386198106  0.055032140667314926  0.015915733633917715  1.0000
  C   C58       1.0  0.9088958348435342  0.16360168883080922  0.9725342787782907  1.0000
  C   C59       1.0  0.1281257605026481  0.7281854243167344  0.8348811523891158  1.0000
  C   C60       1.0  0.8829611228089931  0.10523224528664346  0.027466595034155876  1.0000
  C   C61       1.0  0.8709120229179846  0.013027427061203474  0.1084286946506695  1.0000
  N   N1        1.0  0.3572753356594304  0.0755759039653086  0.009399059339614404  1.0000
  N   N2        1.0  0.4387221090532237  0.8821290422930944  0.13792934426891898  1.0000
  N   N3        1.0  0.5817708822454861  0.19403246505791555  0.925845489008104  1.0000
  N   N4        1.0  0.556996722196054  0.9250661110228295  0.18399294868552837  1.0000
  N   N5        1.0  0.4628954128535482  0.14539614854027139  0.8852857892408535  1.0000
  N   N6        1.0  0.6325058787862119  0.17880319487490945  0.10612124405679428  1.0000
  N   N7        1.0  0.3353014120790405  0.012590398166032905  0.05290586083145853  1.0000
  N   N8        1.0  0.4666753905351939  0.9423230058367268  0.8534376074272387  1.0000
  N   N9        1.0  0.5650437588632684  0.8655008251450839  0.007257079102274135  1.0000
  N   N10       1.0  0.2176856324491183  0.8217969321988152  0.891213656724787  1.0000
  N   N11       1.0  0.8077288825841649  0.11513064026841141  0.06280432202355254  1.0000
  N   N12       1.0  0.799606094298305  0.05752533113356874  0.11290444779324825  1.0000
  N   N13       1.0  0.22913694268000037  0.8799582491172091  0.8422067966012322  1.0000
  N   N14       1.0  0.5842929636178197  0.9887011802010974  0.8922089643429842  1.0000
  N   N15       1.0  0.44782233005303634  0.8200700439597102  0.9623004331209017  1.0000
  N   N16       1.0  0.6162123893882381  0.1186908812555174  0.1520345860125617  1.0000
