data_image0
_chemical_formula_structural       Ag4H48C64N20O12
_chemical_formula_sum              "Ag4 H48 C64 N20 O12"
_cell_length_a       8.53898719
_cell_length_b       8.660719789855195
_cell_length_c       21.8779
_cell_angle_alpha    96.88677578044464
_cell_angle_beta     90.0
_cell_angle_gamma    90.0

_space_group_name_H-M_alt    "P 1"
_space_group_IT_number       1

loop_
  _space_group_symop_operation_xyz
  'x, y, z'

loop_
  _atom_site_type_symbol
  _atom_site_label
  _atom_site_symmetry_multiplicity
  _atom_site_fract_x
  _atom_site_fract_y
  _atom_site_fract_z
  _atom_site_occupancy
  Ag  Ag1       1.0  0.08023902422554133  0.6543867734529414  0.6974660345464088  1.0000
  Ag  Ag2       1.0  0.5802386032154274  0.3456140318287879  0.802534323635804  1.0000
  Ag  Ag3       1.0  0.919760133754224  0.3456128687991367  0.30253472551207483  1.0000
  Ag  Ag4       1.0  0.4197593836652659  0.6543867734529414  0.19746557746414337  1.0000
  H   H1        1.0  0.8219019239446796  0.8735341242335932  0.5046148776652686  1.0000
  H   H2        1.0  0.3219011738557285  0.1264690071074313  0.995385590928926  1.0000
  H   H3        1.0  0.1780995762332296  0.1264701701370825  0.4953856461349204  1.0000
  H   H4        1.0  0.6780968130249647  0.873531798174298  0.004614767253286788  1.0000
  H   H5        1.0  0.6901614756960444  0.6307598261250006  0.45667664079061854  1.0000
  H   H6        1.0  0.19016072560708613  0.3692409791567285  0.043322803227070494  1.0000
  H   H7        1.0  0.3098376822837211  0.3692444682456753  0.5433229688450467  1.0000
  H   H8        1.0  0.8098360901745281  0.6307598261250006  0.9566761837083603  1.0000
  H   H9        1.0  0.7066809992485759  0.3898684730188151  0.5111515886323588  1.0000
  H   H10       1.0  0.20668142025869682  0.6101300062036117  0.9888477449733486  1.0000
  H   H11       1.0  0.29331698763211034  0.6101334952925654  0.4888465393445358  1.0000
  H   H12       1.0  0.7933212510182985  0.3898684730188151  0.011151588632358794  1.0000
  H   H13       1.0  0.8549889861118276  0.4042795734047643  0.6098989885384967  1.0000
  H   H14       1.0  0.3549905782210203  0.5957200688473134  0.890100400273198  1.0000
  H   H15       1.0  0.14500782966978684  0.5957189058176695  0.39009943090268706  1.0000
  H   H16       1.0  0.6450109219568958  0.4042795734047643  0.1098994456207549  1.0000
  H   H17       1.0  0.9262960376920262  0.10285717916493549  0.5596184205714181  1.0000
  H   H18       1.0  0.4262964587021472  0.8971424630871423  0.940381425322542  1.0000
  H   H19       1.0  0.07370546248588283  0.8971389739981959  0.4403812597045658  1.0000
  H   H20       1.0  0.5737026992776182  0.10285717916493549  0.0596188776536835  1.0000
  H   H21       1.0  0.13443748941845976  0.2575331443597193  0.6427927187932454  1.0000
  H   H22       1.0  0.6344370684083458  0.74246766092201  0.8572071823067091  1.0000
  H   H23       1.0  0.8655640107594564  0.7424664978923656  0.3572066700184564  1.0000
  H   H24       1.0  0.3655620895714193  0.2575331443597193  0.1427931758755037  1.0000
  H   H25       1.0  0.3273994840130428  0.16577824622812895  0.7197669133504903  1.0000
  H   H26       1.0  0.8273990630029289  0.8342237220832442  0.7802330429554515  1.0000
  H   H27       1.0  0.6726008450657943  0.8342237220832442  0.2802325858731933  1.0000
  H   H28       1.0  0.17260126607591536  0.1657770831984848  0.2197668581444958  1.0000
  H   H29       1.0  0.3413472739967887  0.9622942210179274  0.7226132324721419  1.0000
  H   H30       1.0  0.841346852986675  0.0377054212341505  0.7773856992572945  1.0000
  H   H31       1.0  0.6586530550820484  0.0377054212341505  0.2773866134218181  1.0000
  H   H32       1.0  0.1586523049930904  0.9622942210179274  0.22261368955440017  1.0000
  H   H33       1.0  0.2140991618000072  0.8375674323253219  0.8011341531908086  1.0000
  H   H34       1.0  0.7140963985917426  0.1624322099267559  0.6988661497854096  1.0000
  H   H35       1.0  0.7859023383779091  0.1624322099267559  0.1988656927031514  1.0000
  H   H36       1.0  0.2859004171898718  0.8375674323253219  0.3011341531908087  1.0000
  H   H37       1.0  0.0549140067277705  0.8548698244197224  0.8965052038519303  1.0000
  H   H38       1.0  0.5549100724204266  0.1451286548027042  0.6034945868360353  1.0000
  H   H39       1.0  0.9450886645492177  0.1451286548027042  0.10349504391829359  1.0000
  H   H40       1.0  0.4450855722621156  0.8548709874493738  0.39650480197565935  1.0000
  H   H41       1.0  0.9586008056770511  0.3383927807355461  0.8806433205969384  1.0000
  H   H42       1.0  0.458600055588093  0.6616045354572364  0.6193573290495635  1.0000
  H   H43       1.0  0.0413983523027142  0.6616056984868803  0.11935738425555088  1.0000
  H   H44       1.0  0.5413979312926003  0.3383927807355461  0.3806433205969384  1.0000
  H   H45       1.0  0.1194193148801261  0.320476308986251  0.7854547502589498  1.0000
  H   H46       1.0  0.6194188938700123  0.679523333265827  0.714546009799534  1.0000
  H   H47       1.0  0.8805798430996391  0.679523333265827  0.21454600979953398  1.0000
  H   H48       1.0  0.380579093010681  0.320476308986251  0.2854547502589497  1.0000
  C   C1        1.0  0.9130520782523848  0.763681321727411  0.5809302138119605  1.0000
  C   C2        1.0  0.4130536703615776  0.2363194835543183  0.9190692302057287  1.0000
  C   C3        1.0  0.0869470797273806  0.2363194835543183  0.4190692302057286  1.0000
  C   C4        1.0  0.5869466587172596  0.763681321727411  0.0809302138119605  1.0000
  C   C5        1.0  0.828824290577252  0.7666016891771006  0.5260672134157502  1.0000
  C   C6        1.0  0.3288247115873731  0.23339911610462846  0.9739322306019389  1.0000
  C   C7        1.0  0.171176038501585  0.23339795307498426  0.47393171831368625  1.0000
  C   C8        1.0  0.6711744463923922  0.7666005261474496  0.02606715820975579  1.0000
  C   C9        1.0  0.7539055694496213  0.6319030842703837  0.4999480360672024  1.0000
  C   C10       1.0  0.2539036482615914  0.3680988840409966  5.1463156474093114e-05  1.0000
  C   C11       1.0  0.24609827292643874  0.3681000470706479  0.5000506041979449  1.0000
  C   C12       1.0  0.7460966808172458  0.6319019212407325  0.9999488950257316  1.0000
  C   C13       1.0  0.7626724171253869  0.498316335708509  0.5297110342638405  1.0000
  C   C14       1.0  0.262671667036429  0.5016856326028716  0.9702884649598359  1.0000
  C   C15       1.0  0.2373314252506802  0.5016844695732203  0.470287495589325  1.0000
  C   C16       1.0  0.7373321753396382  0.4983151726788577  0.029711893222369695  1.0000
  C   C17       1.0  0.8473475646471869  0.5050316689042518  0.5844458939269899  1.0000
  C   C18       1.0  0.3473479856573007  0.49496913637747747  0.9155540071729575  1.0000
  C   C19       1.0  0.1526551066298083  0.49496797334783327  0.4155530378024395  1.0000
  C   C20       1.0  0.6526546856196875  0.5050316689042518  0.0844458939269899  1.0000
  C   C21       1.0  0.9956309584298637  0.9016887459867247  0.6098662138849491  1.0000
  C   C22       1.0  0.49563255053904953  0.09831089626536027  0.8901345461735346  1.0000
  C   C23       1.0  0.0043717128471314  0.098309733235709  0.3901344909675402  1.0000
  C   C24       1.0  0.5043666074407156  0.9016887459867247  0.1098652997204255  1.0000
  C   C25       1.0  0.994001959616476  0.05643252464908949  0.5952113522424582  1.0000
  C   C26       1.0  0.4940035517256689  0.9435682806326398  0.9047885488574963  1.0000
  C   C27       1.0  0.0060007116605121  0.9435659545733373  0.40478752428098375  1.0000
  C   C28       1.0  0.5059967773531682  0.056431361619438285  0.09521175411872922  1.0000
  C   C29       1.0  0.09585328819306943  0.1370560660060889  0.6368486437372168  1.0000
  C   C30       1.0  0.5958552093810994  0.8629459023052917  0.8631517696509832  1.0000
  C   C31       1.0  0.9041470408857679  0.8629447392756404  0.3631508002804722  1.0000
  C   C32       1.0  0.4041451196977378  0.1370560660060889  0.1368486437372169  1.0000
  C   C33       1.0  0.2598985044267295  0.06082645066459239  0.7256184313060814  1.0000
  C   C34       1.0  0.7598980834166087  0.9391743546171369  0.774381469793866  1.0000
  C   C35       1.0  0.7401006535530357  0.9391743546171369  0.274381469793866  1.0000
  C   C36       1.0  0.24010107456315674  0.06082645066459239  0.22561843130608136  1.0000
  C   C37       1.0  0.1735756205063481  0.076438960678388  0.7862400352391249  1.0000
  C   C38       1.0  0.6735740283971552  0.9235618446033411  0.7137598658608297  1.0000
  C   C39       1.0  0.8264247085724961  0.9235606815736901  0.2137602677370936  1.0000
  C   C40       1.0  0.326423958483538  0.076438960678388  0.286240492321383  1.0000
  C   C41       1.0  0.1575725516459059  0.9470899344110747  0.8184085577096879  1.0000
  C   C42       1.0  0.657570959536713  0.052909707841003184  0.6815922023487957  1.0000
  C   C43       1.0  0.8424277774329314  0.052908544811352  0.181591690060543  1.0000
  C   C44       1.0  0.3424270273439802  0.9470899344110747  0.31840855770968796  1.0000
  C   C45       1.0  0.0688196371448129  0.9560429366523023  0.87201825408998  1.0000
  C   C46       1.0  0.5688227294319221  0.0439555425701315  0.6279815365979857  1.0000
  C   C47       1.0  0.9311795208349525  0.0439555425701315  0.127981993680244  1.0000
  C   C48       1.0  0.4311775996469223  0.9560429366523023  0.37201825408997985  1.0000
  C   C49       1.0  0.9958757181365456  0.09722811566174977  0.893958749886835  1.0000
  C   C50       1.0  0.4958749680475876  0.9027715265903282  0.6060410960071251  1.0000
  C   C51       1.0  0.0041257820413705  0.9027715265903282  0.1060410960071252  1.0000
  C   C52       1.0  0.5041230188331058  0.09722811566174977  0.3939592069691003  1.0000
  C   C53       1.0  0.014812061101125101  0.22932851233166215  0.862932213731014  1.0000
  C   C54       1.0  0.5148116400910041  0.7706699668907645  0.6370684911214752  1.0000
  C   C55       1.0  0.9851859257795682  0.7706711299204156  0.1370685463274626  1.0000
  C   C56       1.0  0.485186346789682  0.22932851233166215  0.36293175664875577  1.0000
  C   C57       1.0  0.1039619781886572  0.2181041131851273  0.8093979900351158  1.0000
  C   C58       1.0  0.6039603860794642  0.7818955290669505  0.6906023129411025  1.0000
  C   C59       1.0  0.8960371797911082  0.7818955290669505  0.1906023129411025  1.0000
  C   C60       1.0  0.396037600801229  0.2181041131851273  0.3093979900351158  1.0000
  C   C61       1.0  0.8999100044322718  0.10740346206451078  0.9474568902458173  1.0000
  C   C62       1.0  0.39991393873961567  0.8925996692765137  0.5525472350064646  1.0000
  C   C63       1.0  0.1000844691511915  0.8925985062468698  0.05254809396499379  1.0000
  C   C64       1.0  0.6000887325373796  0.10740346206451078  0.44745643316355904  1.0000
  N   N1        1.0  0.9219313514393479  0.6335569124318566  0.6094474614711913  1.0000
  N   N2        1.0  0.4219329435485407  0.3664450558795238  0.8905524948347505  1.0000
  N   N3        1.0  0.0780678065404175  0.3664438928498725  0.3905524396287561  1.0000
  N   N4        1.0  0.5780673855302965  0.6335569124318566  0.10944746147119128  1.0000
  N   N5        1.0  0.1528061784104864  0.0330056184208516  0.6732860971874359  1.0000
  N   N6        1.0  0.6528080995985164  0.9669963498905289  0.8267143162007642  1.0000
  N   N7        1.0  0.8471918084701998  0.9669951868608777  0.32671426099477685  1.0000
  N   N8        1.0  0.3471922294803208  0.03300445539120029  0.1732860419814415  1.0000
  N   N9        1.0  0.0924184546059763  0.8899549398537372  0.6578554905006371  1.0000
  N   N10       1.0  0.5924192046949275  0.1100458654279919  0.8421448676815757  1.0000
  N   N11       1.0  0.9075830455719398  0.1100435393686894  0.3421447572695939  1.0000
  N   N12       1.0  0.4075811243839098  0.8899549398537372  0.1578554905006371  1.0000
  N   N13       1.0  0.8185139343205847  0.1173287570926504  0.9907077182438399  1.0000
  N   N14       1.0  0.3185120131325547  0.8826673960704807  0.5092910478676203  1.0000
  N   N15       1.0  0.18148756585732437  0.882668559100132  0.009291103073614691  1.0000
  N   N16       1.0  0.6814859737481385  0.11732992012230169  0.49070777344982724  1.0000
  N   N17       1.0  0.3715194705661561  0.4661690331689243  0.7033431216318036  1.0000
  N   N18       1.0  0.8715202206551141  0.5338306090831537  0.7966571813444149  1.0000
  N   N19       1.0  0.6284796874136094  0.5338306090831537  0.2966571813444148  1.0000
  N   N20       1.0  0.12847893732465115  0.4661690331689243  0.20334312163180362  1.0000
  O   O1        1.0  0.2909794738783305  0.4661411204573369  0.6542909280031637  1.0000
  O   O2        1.0  0.7909802239672887  0.5338573587650897  0.8457093197670674  1.0000
  O   O3        1.0  0.7090196841014347  0.5338573587650897  0.34570931976706726  1.0000
  O   O4        1.0  0.2090201051115557  0.4661411204573369  0.1542909280031637  1.0000
  O   O5        1.0  0.3323087313356154  0.5514586494793932  0.7518405623264498  1.0000
  O   O6        1.0  0.8323083103255016  0.4485409927726848  0.7481592835675029  1.0000
  O   O7        1.0  0.6676904266441497  0.4485409927726848  0.24815974064976837  1.0000
  O   O8        1.0  0.16769084765426365  0.5514586494793932  0.2518405623264499  1.0000
  O   O9        1.0  0.4913943429864744  0.3780439505731792  0.7025602881491793  1.0000
  O   O10       1.0  0.9913950930754325  0.621955691678906  0.7974400148270392  1.0000
  O   O11       1.0  0.5086048149932908  0.621955691678906  0.2974395577447808  1.0000
  O   O12       1.0  0.0086052360034046  0.3780439505731792  0.20256028814917934  1.0000
