data_image0
_chemical_formula_structural       CoH24C28S2N6
_chemical_formula_sum              "Co1 H24 C28 S2 N6"
_cell_length_a       7.653785460387778
_cell_length_b       8.266987988970074
_cell_length_c       11.053584060925425
_cell_angle_alpha    108.29271447550524
_cell_angle_beta     97.39386740334339
_cell_angle_gamma    107.41639757153393

_space_group_name_H-M_alt    "P 1"
_space_group_IT_number       1

loop_
  _space_group_symop_operation_xyz
  'x, y, z'

loop_
  _atom_site_type_symbol
  _atom_site_label
  _atom_site_symmetry_multiplicity
  _atom_site_fract_x
  _atom_site_fract_y
  _atom_site_fract_z
  _atom_site_occupancy
  Co  Co1       1.0  0.9999986379279876  0.999999952072429  1.6671849608438836e-06  1.0000
  H   H1        1.0  0.18183193920083343  0.32351921732419703  0.2470066290352833  1.0000
  H   H2        1.0  0.8181801063411955  0.6764928198642367  0.7529921906589508  1.0000
  H   H3        1.0  0.8716963633559659  0.6818467202018113  0.2505270811391754  1.0000
  H   H4        1.0  0.1283059696866928  0.3181570978884166  0.7494706000336039  1.0000
  H   H5        1.0  0.6928273142474879  0.4701993892556047  0.02249710958269452  1.0000
  H   H6        1.0  0.3071664810780277  0.5297960426926166  0.9775049344286799  1.0000
  H   H7        1.0  0.760620451108295  0.1919658949650866  0.918999638038848  1.0000
  H   H8        1.0  0.23937278248993016  0.8080281175016709  0.08100381379190943  1.0000
  H   H9        1.0  0.1761004510627799  0.8440301640659982  0.5856913098773971  1.0000
  H   H10       1.0  0.823898675494668  0.15596532523540674  0.41430854573476944  1.0000
  H   H11       1.0  0.9565268755106259  0.6547763933569257  0.5157741725391816  1.0000
  H   H12       1.0  0.043473659941284416  0.3452191976149024  0.48422222375177876  1.0000
  H   H13       1.0  0.014014156561302187  0.8227377719958043  0.4467396142231479  1.0000
  H   H14       1.0  0.9859865147106961  0.17726181452145787  0.5532613943396427  1.0000
  H   H15       1.0  0.40431822576230303  0.5802713159308653  0.36014070485883554  1.0000
  H   H16       1.0  0.5956832835244158  0.41973384684182957  0.6398581317476442  1.0000
  H   H17       1.0  0.2875168905313572  0.6648518263469256  0.6851291398419832  1.0000
  H   H18       1.0  0.7124814825038258  0.33514508825120976  0.3148691829995158  1.0000
  H   H19       1.0  0.7106225834947537  0.8517754304550991  0.48699130439719335  1.0000
  H   H20       1.0  0.28938439284398504  0.1482337852162203  0.5130099560819161  1.0000
  H   H21       1.0  0.5365117199161844  0.8246515980432677  0.8941613040488788  1.0000
  H   H22       1.0  0.46348402261986626  0.17534532818540782  0.10583676889002902  1.0000
  H   H23       1.0  0.9440100787793357  0.005745224876932302  0.7068008921002118  1.0000
  H   H24       1.0  0.05598760188870246  0.994259216573795  0.29320354698707257  1.0000
  C   C1        1.0  0.07674850203343911  0.3615151163391204  0.199331113214086  1.0000
  C   C2        1.0  0.9232567143845501  0.6384928200231103  0.800666949792479  1.0000
  C   C3        1.0  0.05006966389913004  0.5236229722398563  0.2670598700674987  1.0000
  C   C4        1.0  0.9499326223210787  0.476380792107527  0.7329396032415332  1.0000
  C   C5        1.0  0.9063409193001064  0.5625011687362402  0.20320822596955418  1.0000
  C   C6        1.0  0.09365819810489741  0.437501214631645  0.7967915091881395  1.0000
  C   C7        1.0  0.8038039427629828  0.4439432474554295  0.07652460787357283  1.0000
  C   C8        1.0  0.19619407459865815  0.5560563238209468  0.9234770468547566  1.0000
  C   C9        1.0  0.8408083574775633  0.2869359838938337  0.0170579528756107  1.0000
  C   C10       1.0  0.15918885953935558  0.7130649589364352  0.9829439612183037  1.0000
  C   C11       1.0  0.16496919271966712  0.6391545269260918  0.4025543225755683  1.0000
  C   C12       1.0  0.8350346941899858  0.36084649431351323  0.5974446320023077  1.0000
  C   C13       1.0  0.07470435977464268  0.7457968185633846  0.49348625417066927  1.0000
  C   C14       1.0  0.9252976969805928  0.25420284275287497  0.5065121911390378  1.0000
  C   C15       1.0  0.34468504609448314  0.6469907478207659  0.4372547121835241  1.0000
  C   C16       1.0  0.6553180170592231  0.35301161810131293  0.5627453978280529  1.0000
  C   C17       1.0  0.4774739956276335  0.7450579789015846  0.566531398513753  1.0000
  C   C18       1.0  0.5225267224668144  0.2549416613585223  0.4334678179127848  1.0000
  C   C19       1.0  0.4303162580503042  0.741035164002568  0.6845100250669133  1.0000
  C   C20       1.0  0.5696897210424084  0.258964452996466  0.3154896911647925  1.0000
  C   C21       1.0  0.6669558784432469  0.843526105158972  0.5756895070753885  1.0000
  C   C22       1.0  0.3330464077769619  0.15647765918841122  0.4243099662336434  1.0000
  C   C23       1.0  0.5694405083876292  0.8296690055898496  0.801995651529893  1.0000
  C   C24       1.0  0.4305547894772417  0.17032663551447766  0.1979993488877554  1.0000
  C   C25       1.0  0.7958605559977984  0.9305076060727444  0.6972889892756767  1.0000
  C   C26       1.0  0.2041363989904781  0.06949610092144809  0.3027126724325626  1.0000
  C   C27       1.0  0.7118501613112259  0.8582428628185285  0.14218657358757272  1.0000
  C   C28       1.0  0.2881495829484209  0.141747205640705  0.8578102025234314  1.0000
  S   S1        1.0  0.5677561983223213  0.7920923243567657  0.22734903680028393  1.0000
  S   S2        1.0  0.4322406625619877  0.2078936258304651  0.7726473574769273  1.0000
  N   N1        1.0  0.974084802636007  0.24322137496956495  0.07857691450804791  1.0000
  N   N2        1.0  0.025915892047216046  0.7567782384191234  0.9214231979866127  1.0000
  N   N3        1.0  0.7507577009829732  0.9222353285205998  0.8096805981996268  1.0000
  N   N4        1.0  0.2492368855348133  0.07776562594020932  0.1903210659916965  1.0000
  N   N5        1.0  0.8202892219776602  0.905481581492353  0.08143043693015532  1.0000
  N   N6        1.0  0.17970835071280086  0.09451670465967511  0.9185681452769145  1.0000
