data_image0
_chemical_formula_structural       Zn4H28C40N12O20
_chemical_formula_sum              "Zn4 H28 C40 N12 O20"
_cell_length_a       6.719322874017121
_cell_length_b       8.410371211020761
_cell_length_c       17.572078034013593
_cell_angle_alpha    89.99990546009974
_cell_angle_beta     90.00010628078506
_cell_angle_gamma    89.99976378561249

_space_group_name_H-M_alt    "P 1"
_space_group_IT_number       1

loop_
  _space_group_symop_operation_xyz
  'x, y, z'

loop_
  _atom_site_type_symbol
  _atom_site_label
  _atom_site_symmetry_multiplicity
  _atom_site_fract_x
  _atom_site_fract_y
  _atom_site_fract_z
  _atom_site_occupancy
  Zn  Zn1       1.0  0.25729163091190094  0.9049251541270774  0.6877089493489379  1.0000
  Zn  Zn2       1.0  0.24270919105049424  0.09507593644087109  0.18770693152943355  1.0000
  Zn  Zn3       1.0  0.7572913037608019  0.5950753974155629  0.3122926364672267  1.0000
  Zn  Zn4       1.0  0.7427126732734238  0.40492480707309386  0.8122933313840052  1.0000
  H   H1        1.0  0.7977512998931076  0.5746882357846204  0.5216941873596569  1.0000
  H   H2        1.0  0.7022497746745627  0.4253141600821591  0.021694725694040108  1.0000
  H   H3        1.0  0.2977490144275805  0.925313371629748  0.4783068579769678  1.0000
  H   H4        1.0  0.20224875701612183  0.07468671657901638  0.9783055086117047  1.0000
  H   H5        1.0  0.9673977968126268  0.1930302926491904  0.7029990788174347  1.0000
  H   H6        1.0  0.5326071365699647  0.806973855852007  0.20299862687212317  1.0000
  H   H7        1.0  0.46739226377855664  0.3069685224895834  0.2970007738706856  1.0000
  H   H8        1.0  0.03261057831587521  0.693029813073991  0.7970005237466611  1.0000
  H   H9        1.0  0.1316738982811643  0.529521279629847  0.5275481435827631  1.0000
  H   H10       1.0  0.3683276325095621  0.4704767963516188  0.027549332774299308  1.0000
  H   H11       1.0  0.6316694350806814  0.9704737402530196  0.47245107707988865  1.0000
  H   H12       1.0  0.8683308566340318  0.029527100815599294  0.97245044986925  1.0000
  H   H13       1.0  0.4890920571157765  0.11949232211443214  0.5822886849103883  1.0000
  H   H14       1.0  0.010906763583555806  0.8805043760480654  0.08228872866698822  1.0000
  H   H15       1.0  0.9890848157342378  0.3805052326277262  0.4177123212854427  1.0000
  H   H16       1.0  0.5109137213359816  0.6194981752734062  0.9177104066106528  1.0000
  H   H17       1.0  0.43178188212748847  0.3654507817208312  0.5026804530879474  1.0000
  H   H18       1.0  0.06821952764956052  0.6345450020205586  0.002681869675228701  1.0000
  H   H19       1.0  0.9317762985619499  0.1345469616111643  0.49731937441902846  1.0000
  H   H20       1.0  0.5682241141712084  0.8654537936821922  0.9973167370402864  1.0000
  H   H21       1.0  0.9411774581854289  0.8476555891915892  0.6075012839942887  1.0000
  H   H22       1.0  0.5588210574848702  0.15234294368116955  0.10750079821197293  1.0000
  H   H23       1.0  0.44117616504391327  0.6523431682342957  0.39249872458120905  1.0000
  H   H24       1.0  0.058824165303605014  0.34765721594596494  0.8924993346869956  1.0000
  H   H25       1.0  0.829215285686388  0.9160307501065074  0.6808846839435818  1.0000
  H   H26       1.0  0.6707850753488034  0.08396990765701418  0.18088433129169357  1.0000
  H   H27       1.0  0.3292139885819837  0.583969564760501  0.3191158145552535  1.0000
  H   H28       1.0  0.17078747288796592  0.41602988353225345  0.8191153116845131  1.0000
  C   C1        1.0  0.4056364172713743  0.5741058988294084  0.735141200340351  1.0000
  C   C2        1.0  0.094367612033821  0.4258890830804986  0.2351410928562957  1.0000
  C   C3        1.0  0.9056326623288201  0.9258941645606524  0.2648604903591264  1.0000
  C   C4        1.0  0.5943621543954762  0.07410739256221177  0.7648596342582652  1.0000
  C   C5        1.0  0.026285920642166602  0.3757706513871922  0.6182619685786579  1.0000
  C   C6        1.0  0.4737160516030913  0.6242306787187457  0.11826254183844756  1.0000
  C   C7        1.0  0.5262828043831789  0.12422723729920891  0.38173700314634834  1.0000
  C   C8        1.0  0.9737155576301222  0.8757715386545679  0.8817380588264144  1.0000
  C   C9        1.0  0.06865969823586941  0.23581117204937382  0.6588935451322941  1.0000
  C   C10       1.0  0.4313424717410328  0.7641912069146097  0.15889340887463996  1.0000
  C   C11       1.0  0.5686571495808935  0.2641877662028944  0.34110659472137433  1.0000
  C   C12       1.0  0.9313454794319043  0.735811149894637  0.8411054545780062  1.0000
  C   C13       1.0  0.4564710885894385  0.7169452438330238  0.5546195415662325  1.0000
  C   C14       1.0  0.0435275974486373  0.283052738780455  0.054617803629469115  1.0000
  C   C15       1.0  0.9564689499497235  0.7830558412769546  0.4453844614137169  1.0000
  C   C16       1.0  0.5435237688031195  0.2169486601934237  0.9453817493689558  1.0000
  C   C17       1.0  0.1576753887485722  0.42151167910557047  0.5602921883937741  1.0000
  C   C18       1.0  0.3423248131376155  0.5784886619530738  0.060291566691937214  1.0000
  C   C19       1.0  0.6576742791095641  0.07848577721221518  0.43970801439782303  1.0000
  C   C20       1.0  0.8423228767648823  0.9215163658110509  0.9397072338196822  1.0000
  C   C21       1.0  0.5747232775129733  0.5691582502975191  0.6814321903135083  1.0000
  C   C22       1.0  0.9252800626843796  0.4308400275554474  0.18143231288840417  1.0000
  C   C23       1.0  0.07472465085722041  0.9308369569831708  0.3185669900852873  1.0000
  C   C24       1.0  0.42527680794324857  0.06916130419568127  0.8185658027670188  1.0000
  C   C25       1.0  0.5855826827930742  0.6227089106843094  0.6067876149037448  1.0000
  C   C26       1.0  0.9144188058840896  0.37729319167056713  0.10678663389785473  1.0000
  C   C27       1.0  0.0855787430070478  0.8772910168987875  0.3932138495078804  1.0000
  C   C28       1.0  0.41442010256652406  0.12271055382955606  0.8932120431636366  1.0000
  C   C29       1.0  0.35851027208912006  0.19443451906574435  0.589959301262141  1.0000
  C   C30       1.0  0.14149007418230042  0.8055633416437826  0.08995949649756342  1.0000
  C   C31       1.0  0.8585048687061415  0.3055634653788957  0.4100416126088363  1.0000
  C   C32       1.0  0.6414936310357999  0.6944387799737367  0.9100391620208017  1.0000
  C   C33       1.0  0.8441746830801621  0.4655715009218395  0.6322161780626845  1.0000
  C   C34       1.0  0.6558269293564436  0.534428135703038  0.13221659744751693  1.0000
  C   C35       1.0  0.344170902223965  0.0344253416880633  0.36778358750429163  1.0000
  C   C36       1.0  0.1558278196041272  0.9655727497304618  0.867783209376306  1.0000
  C   C37       1.0  0.3259499878260215  0.32977587982939827  0.5462740217310798  1.0000
  C   C38       1.0  0.1740531223399913  0.670222131558567  0.046274915900909305  1.0000
  C   C39       1.0  0.8259440078471059  0.17022102275612375  0.4537257309496782  1.0000
  C   C40       1.0  0.6740517280019276  0.829779882910891  0.9537243347234896  1.0000
  N   N1        1.0  0.7358752171840309  0.4727840921999514  0.6962358844996646  1.0000
  N   N2        1.0  0.7641296832934616  0.5272177016117038  0.19623638614891095  1.0000
  N   N3        1.0  0.2358711620215743  0.027214295799630892  0.3037638044955529  1.0000
  N   N4        1.0  0.2641302247388992  0.9727840164396114  0.8037629281631811  1.0000
  N   N5        1.0  0.7529806093576853  0.5534834422422888  0.5771702595153558  1.0000
  N   N6        1.0  0.7470192469447384  0.4465175732649697  0.07717024368207602  1.0000
  N   N7        1.0  0.2529779443920788  0.9465171234914604  0.4228307541672934  1.0000
  N   N8        1.0  0.24702104531409932  0.05348434507878608  0.9228288841083343  1.0000
  N   N9        1.0  0.23002734246760076  0.14688263356089942  0.6442044241094182  1.0000
  N   N10       1.0  0.26997326778107583  0.8531186070651768  0.1442041035666648  1.0000
  N   N11       1.0  0.7300229177339191  0.35311458467277385  0.3557963989208163  1.0000
  N   N12       1.0  0.7699753180352219  0.6468830917541692  0.8557952148775672  1.0000
  O   O1        1.0  0.26057093302150497  0.666319689252873  0.7212964211299068  1.0000
  O   O2        1.0  0.23943154066539313  0.33367415140610746  0.22129648899773716  1.0000
  O   O3        1.0  0.7605677217497303  0.8336784734899323  0.27870345975077987  1.0000
  O   O4        1.0  0.7394316270824819  0.16632184686754664  0.778703202514315  1.0000
  O   O5        1.0  0.4102935251698554  0.4757831438688595  0.7905194378439263  1.0000
  O   O6        1.0  0.0897048206633855  0.5242116470287781  0.2905220948803446  1.0000
  O   O7        1.0  0.9102915754282108  0.02421704818325309  0.20948151263974785  1.0000
  O   O8        1.0  0.5897074365153188  0.975787077971638  0.7094788033638866  1.0000
  O   O9        1.0  0.45321328021741186  0.6685099295306711  0.48692466324637734  1.0000
  O   O10       1.0  0.04676965070211031  0.33149369600300815  0.9869224321715894  1.0000
  O   O11       1.0  0.9532305680102411  0.8314994893259136  0.5130787683491178  1.0000
  O   O12       1.0  0.5467719528502641  0.1685088813032678  0.013075415866794103  1.0000
  O   O13       1.0  0.3633230481724965  0.8404773592833976  0.5781676139039791  1.0000
  O   O14       1.0  0.1366757524612652  0.15952173111310225  0.07816603933176941  1.0000
  O   O15       1.0  0.8633199447357711  0.6595264103687197  0.42183518504672446  1.0000
  O   O16       1.0  0.6366741476518315  0.3404805503445941  0.9218324413563863  1.0000
  O   O17       1.0  0.954235414554482  0.8640411932503509  0.6631133729908785  1.0000
  O   O18       1.0  0.5457663482450031  0.13595714779456358  0.16311232182624746  1.0000
  O   O19       1.0  0.4542339354034013  0.635959899220374  0.33688778298532185  1.0000
  O   O20       1.0  0.04576910079264711  0.36404186578609904  0.8368866636736529  1.0000
