data_image0
_chemical_formula_structural       Nd2CoH32C16O20
_chemical_formula_sum              "Nd2 Co1 H32 C16 O20"
_cell_length_a       8.250480841035145
_cell_length_b       9.4666046242722
_cell_length_c       11.242355782388742
_cell_angle_alpha    111.07467232155952
_cell_angle_beta     105.28701671209078
_cell_angle_gamma    93.23270615010624

_space_group_name_H-M_alt    "P 1"
_space_group_IT_number       1

loop_
  _space_group_symop_operation_xyz
  'x, y, z'

loop_
  _atom_site_type_symbol
  _atom_site_label
  _atom_site_symmetry_multiplicity
  _atom_site_fract_x
  _atom_site_fract_y
  _atom_site_fract_z
  _atom_site_occupancy
  Nd  Nd1       1.0  0.10674486248569091  0.9200818837394779  0.3434000664869999  1.0000
  Nd  Nd2       1.0  0.89324359143923  0.07992553723990173  0.6565992827343976  1.0000
  Co  Co1       1.0  0.99999883619698  0.9999944429816241  0.9999969366580218  1.0000
  H   H1        1.0  0.23699204532119478  0.9160191207835523  0.6154059847344444  1.0000
  H   H2        1.0  0.7630061857513155  0.08399854584043  0.3845959713417172  1.0000
  H   H3        1.0  0.41118035430609023  0.971325364070502  0.596712501055265  1.0000
  H   H4        1.0  0.5888186428447215  0.028689980431835203  0.4032888782393016  1.0000
  H   H5        1.0  0.05776929465294968  0.5942720918086978  0.19634646941489828  1.0000
  H   H6        1.0  0.9422666155182501  0.4057187510496618  0.8036779462963537  1.0000
  H   H7        1.0  0.23470201393271145  0.5963719155695841  0.2967185291575589  1.0000
  H   H8        1.0  0.7653320981934756  0.4036648799336078  0.7033271936666665  1.0000
  H   H9        1.0  0.3919438877876332  0.8526893415170564  0.009813939859853408  1.0000
  H   H10       1.0  0.6080489795075793  0.14730304849197753  0.9901797828944296  1.0000
  H   H11       1.0  0.5797248816385053  0.9346427856955162  0.15208249335158552  1.0000
  H   H12       1.0  0.42026794434052317  0.06533797406756041  0.8479110949641039  1.0000
  H   H13       1.0  0.440920368493586  0.05296142275665968  0.09435575380276619  1.0000
  H   H14       1.0  0.5590848900453554  0.947030603105013  0.9056439856590971  1.0000
  H   H15       1.0  0.57286257412774  0.6332428545287242  0.01325172902051726  1.0000
  H   H16       1.0  0.42713526347231584  0.3667561445608811  0.9867522389295118  1.0000
  H   H17       1.0  0.6951842086216262  0.5001124440067101  0.9399040913800577  1.0000
  H   H18       1.0  0.30481572447637023  0.49988036475355113  0.060111698206860506  1.0000
  H   H19       1.0  0.5937833849897418  0.6162909969869119  0.8552009753081223  1.0000
  H   H20       1.0  0.40622372156701664  0.38369274120443464  0.144802750788152  1.0000
  H   H21       1.0  0.2732472787476825  0.40225380780403713  0.7544590508557292  1.0000
  H   H22       1.0  0.726741974935763  0.5977445759701682  0.24553048169238428  1.0000
  H   H23       1.0  0.39252149797342645  0.44672901603777865  0.6550139782910308  1.0000
  H   H24       1.0  0.6074698875030081  0.5532738581225304  0.3449800893838955  1.0000
  H   H25       1.0  0.4506765723923324  0.3096559861610544  0.7263886634658974  1.0000
  H   H26       1.0  0.5493067668295951  0.6903379619442873  0.2735964558392184  1.0000
  H   H27       1.0  0.8893896453926828  0.41226809548663823  0.2880772470239066  1.0000
  H   H28       1.0  0.11061825610997301  0.5877394980364203  0.7119057272649697  1.0000
  H   H29       1.0  0.9064322509931773  0.34726573654387494  0.4221349226764418  1.0000
  H   H30       1.0  0.09358552171739386  0.652753126509289  0.5778554518303025  1.0000
  H   H31       1.0  0.7092781446114316  0.3055774935756901  0.29675474385695816  1.0000
  H   H32       1.0  0.2907335999398486  0.694437784199174  0.7032421418028889  1.0000
  C   C1        1.0  0.3379202570378014  0.9365734553245774  0.19394335317352332  1.0000
  C   C2        1.0  0.6620752953494603  0.0634199799234523  0.8060530380103188  1.0000
  C   C3        1.0  0.817076548377017  0.7372948192262642  0.024346300530226052  1.0000
  C   C4        1.0  0.18292776600523553  0.26269938004710985  0.9756592708843854  1.0000
  C   C5        1.0  0.23410967804316138  0.22597933071311627  0.5581191942467072  1.0000
  C   C6        1.0  0.7658711114632413  0.7740262262847042  0.441868184430554  1.0000
  C   C7        1.0  0.8923190997800887  0.16922517395211403  0.23366109746122993  1.0000
  C   C8        1.0  0.10767765085930149  0.8307788411556417  0.7663308861241306  1.0000
  C   C9        1.0  0.4477754230254973  0.9450596635815814  0.10931215513775078  1.0000
  C   C10       1.0  0.5522223088777595  0.05492670616155241  0.8906860091487302  1.0000
  C   C11       1.0  0.660174770969526  0.6136262251014699  0.9522506448957984  1.0000
  C   C12       1.0  0.33982345087283516  0.3863633897930896  0.04775576844696873  1.0000
  C   C13       1.0  0.3425096060179272  0.35669400620585634  0.6819507637879596  1.0000
  C   C14       1.0  0.657478822227752  0.6433066501200175  0.3180410972654714  1.0000
  C   C15       1.0  0.848099295253526  0.31910032757465967  0.3148602920015477  1.0000
  C   C16       1.0  0.1519148869096797  0.6809138980982115  0.6851314270853663  1.0000
  O   O1        1.0  0.10116738848984852  0.15101957854665224  0.5622929625354729  1.0000
  O   O2        1.0  0.8988214653143346  0.8489833238301402  0.43770147834928264  1.0000
  O   O3        1.0  0.278505759007281  0.18385911687796153  0.45293849704437156  1.0000
  O   O4        1.0  0.721466081404124  0.8161513177225573  0.547045899654421  1.0000
  O   O5        1.0  0.18668512096025594  0.9654195886346958  0.16479174897384763  1.0000
  O   O6        1.0  0.8133058066631238  0.0345636188907221  0.8351986613499917  1.0000
  O   O7        1.0  0.3928476577691173  0.8991588994287342  0.2951472145661924  1.0000
  O   O8        1.0  0.6071511109654895  0.10085045645568161  0.7048602285420813  1.0000
  O   O9        1.0  0.9299683191143161  0.16211777464388183  0.12956934235786122  1.0000
  O   O10       1.0  0.07003439370958392  0.8378791202417448  0.8704242924463231  1.0000
  O   O11       1.0  0.8853747073963093  0.05872426366408939  0.2744649737265448  1.0000
  O   O12       1.0  0.11462127316428199  0.941288813433836  0.7255359506702348  1.0000
  O   O13       1.0  0.8237955093926033  0.8410917339402958  0.9783696552440729  1.0000
  O   O14       1.0  0.17620905144912066  0.15889687327501187  0.021627966194515125  1.0000
  O   O15       1.0  0.9253890115206647  0.7279006057578883  0.12508016914459577  1.0000
  O   O16       1.0  0.0746124306695322  0.2720981899045398  0.8749289320927716  1.0000
  O   O17       1.0  0.2993935612052284  0.9023888715776068  0.5481267866163365  1.0000
  O   O18       1.0  0.7006034188710187  0.0976288215471186  0.45187491813381797  1.0000
  O   O19       1.0  0.12622698843421196  0.6328453957889838  0.290965549374974  1.0000
  O   O20       1.0  0.8737953671505354  0.36717004773994694  0.7090602881285549  1.0000
