data_image0
_chemical_formula_structural       Al2H20C28N4O10
_chemical_formula_sum              "Al2 H20 C28 N4 O10"
_cell_length_a       6.651615478750403
_cell_length_b       11.1527844860442
_cell_length_c       17.72067184802712
_cell_angle_alpha    84.49972672566997
_cell_angle_beta     79.90657418144383
_cell_angle_gamma    72.07542865690459

_space_group_name_H-M_alt    "P 1"
_space_group_IT_number       1

loop_
  _space_group_symop_operation_xyz
  'x, y, z'

loop_
  _atom_site_type_symbol
  _atom_site_label
  _atom_site_symmetry_multiplicity
  _atom_site_fract_x
  _atom_site_fract_y
  _atom_site_fract_z
  _atom_site_occupancy
  Al  Al1       1.0  0.4912009221623423  0.5056269065512424  0.5028575945571135  1.0000
  Al  Al2       1.0  0.9896184096600041  0.5086843121548269  0.5029621446921482  1.0000
  H   H1        1.0  0.29566601739084325  0.35298803626472625  0.5369151046342752  1.0000
  H   H2        1.0  0.6848734908165143  0.656925198570022  0.456524516753163  1.0000
  H   H3        1.0  0.7001235629547582  0.4274633264434655  0.2809394852426337  1.0000
  H   H4        1.0  0.7897183858945241  0.4043081377304959  0.13851410994131194  1.0000
  H   H5        1.0  0.030159890605077115  0.5340844591417736  0.2645873369914825  1.0000
  H   H6        1.0  0.918923598987931  0.5497772275110152  0.7376022152019885  1.0000
  H   H7        1.0  0.36121857876106134  0.43535614849830045  0.7319470886539677  1.0000
  H   H8        1.0  0.3021119511554602  0.4129945837822362  0.8756236201332045  1.0000
  H   H9        1.0  0.191002454351306  0.24184836845900298  0.39023346170697704  1.0000
  H   H10       1.0  0.5182771736088227  0.1260711745738448  0.308350812167987  1.0000
  H   H11       1.0  0.42471018467080074  0.7732612019185652  0.4011390849954283  1.0000
  H   H12       1.0  0.6357853095552173  0.8895227925950593  0.31391645629604886  1.0000
  H   H13       1.0  0.12410106724356501  0.540857372911063  0.05425667003238031  1.0000
  H   H14       1.0  0.9324946370310981  0.5756594204381289  0.13452646757158962  1.0000
  H   H15       1.0  0.8337586207474176  0.5521119199005967  0.9477325063485226  1.0000
  H   H16       1.0  0.9837354791886881  0.5895363732352622  0.8645492825988443  1.0000
  H   H17       1.0  0.7653314607413009  0.7887092610587275  0.5853415537565354  1.0000
  H   H18       1.0  0.5769340235729176  0.9296231252005711  0.5972752418361155  1.0000
  H   H19       1.0  0.5855244743804703  0.22827877230558613  0.5963002598082526  1.0000
  H   H20       1.0  0.6015389613797097  0.0879688639617271  0.6444470245860716  1.0000
  C   C1        1.0  0.8582125130324841  0.2798986475408611  0.49535004947487954  1.0000
  C   C2        1.0  0.683974048559243  0.5023311730192006  0.6420118322967455  1.0000
  C   C3        1.0  0.1293108261680231  0.7345544866009704  0.5079376174339458  1.0000
  C   C4        1.0  0.30476099953350655  0.49985905630260435  0.36418780291503344  1.0000
  C   C5        1.0  0.35956774251614126  0.4839091308027292  0.2797942747437574  1.0000
  C   C6        1.0  0.5751105633706288  0.4471949039728146  0.24521053409026916  1.0000
  C   C7        1.0  0.6238064524745398  0.4354367189920581  0.1664059784510243  1.0000
  C   C8        1.0  0.4607139614756405  0.4645014725830947  0.1202928793934106  1.0000
  C   C9        1.0  0.24201734619008874  0.5007719544638433  0.15571602356164502  1.0000
  C   C10       1.0  0.19569683703122825  0.5075455573137688  0.2357983336576766  1.0000
  C   C11       1.0  0.5084486448874088  0.4623717023166877  0.039522681963312316  1.0000
  C   C12       1.0  0.534478749531651  0.4658825776305946  0.9692195261435402  1.0000
  C   C13       1.0  0.5722081714103099  0.47334845947204945  0.8882557511382885  1.0000
  C   C14       1.0  0.7494946630685392  0.5131248036701805  0.8493992404679745  1.0000
  C   C15       1.0  0.7831397997513748  0.5213647680219183  0.7689354853524365  1.0000
  C   C16       1.0  0.6436855342431616  0.4940506826526417  0.7274797730241148  1.0000
  C   C17       1.0  0.4676829501563804  0.45613571138131437  0.7655898999442315  1.0000
  C   C18       1.0  0.4350866369168999  0.4446090628339547  0.8450341789855288  1.0000
  C   C19       1.0  0.9295801178594446  0.1401321192494862  0.49536374950774603  1.0000
  C   C20       1.0  0.12243001753866173  0.07472391990335583  0.4477181870346244  1.0000
  C   C21       1.0  0.8048129223141274  0.075547593322753  0.5436908992547274  1.0000
  C   C22       1.0  0.24398379992896926  0.1392031927123654  0.39465550514221803  1.0000
  C   C23       1.0  0.4274814874685973  0.07416433365726503  0.3483724748336741  1.0000
  C   C24       1.0  0.061327663407162246  0.8744744748882456  0.502495558807965  1.0000
  C   C25       1.0  0.8674678158970437  0.9399963354918202  0.5449655926498238  1.0000
  C   C26       1.0  0.1913371446423114  0.9394986496523999  0.45215258391256447  1.0000
  C   C27       1.0  0.37715907782572344  0.875688882361608  0.4018962147292982  1.0000
  C   C28       1.0  0.49385690525443243  0.9412322691424392  0.3517593475457517  1.0000
  N   N1        1.0  0.08191661790937842  0.525805716127664  0.1114243242116117  1.0000
  N   N2        1.0  0.8868549333074115  0.5386451753582904  0.891006358270545  1.0000
  N   N3        1.0  0.7352750888031565  0.881851535458054  0.5941618079481827  1.0000
  N   N4        1.0  0.6184357714878886  0.133731135274644  0.59229845155199  1.0000
  O   O1        1.0  0.6627259347785356  0.33492044227044454  0.4885019510791224  1.0000
  O   O2        1.0  0.8572416459468785  0.5237721593442899  0.6095109169898549  1.0000
  O   O3        1.0  0.9896809868901569  0.6796272247604378  0.5024931667917656  1.0000
  O   O4        1.0  0.4476825347262833  0.5176473798479861  0.3975287198792047  1.0000
  O   O5        1.0  0.3207942700332255  0.6765669083122958  0.5177273566221459  1.0000
  O   O6        1.0  0.11923941464409185  0.49647616482309326  0.3963491408173425  1.0000
  O   O7        1.0  0.9910971006755671  0.33658738802080285  0.5045234946005976  1.0000
  O   O8        1.0  0.5423762285035281  0.4848899967725727  0.6077103263525317  1.0000
  O   O9        1.0  0.2566478612425201  0.4446121261429923  0.5348054824357933  1.0000
  O   O10       1.0  0.7239837955703339  0.5674412316054783  0.47073875955450023  1.0000
