data_image0
_chemical_formula_structural       Ca2H8C14O10
_chemical_formula_sum              "Ca2 H8 C14 O10"
_cell_length_a       5.768431334846148
_cell_length_b       6.722152916723818
_cell_length_c       10.201576926947112
_cell_angle_alpha    107.78777860133181
_cell_angle_beta     93.48796915263348
_cell_angle_gamma    107.2089031562329

_space_group_name_H-M_alt    "P 1"
_space_group_IT_number       1

loop_
  _space_group_symop_operation_xyz
  'x, y, z'

loop_
  _atom_site_type_symbol
  _atom_site_label
  _atom_site_symmetry_multiplicity
  _atom_site_fract_x
  _atom_site_fract_y
  _atom_site_fract_z
  _atom_site_occupancy
  Ca  Ca1       1.0  0.3431664764151633  0.684814210107916  0.9486330720757293  1.0000
  Ca  Ca2       1.0  0.6568385365821072  0.3151870482963232  0.05136807400404556  1.0000
  H   H1        1.0  0.3069516924081341  0.5936926721014402  0.4013865890014826  1.0000
  H   H2        1.0  0.69304751021739  0.4063069619921577  0.598613036155271  1.0000
  H   H3        1.0  0.36879316811679524  0.7567432625370216  0.6568686891453196  1.0000
  H   H4        1.0  0.6312083782756376  0.24325801460678056  0.3431323334598061  1.0000
  H   H5        1.0  0.7558614744632948  0.63496756514008  0.8098552540045103  1.0000
  H   H6        1.0  0.24414057606929154  0.36503039470858306  0.19014413824226747  1.0000
  H   H7        1.0  0.7234799025773738  0.8611182906250645  0.8042132285737861  1.0000
  H   H8        1.0  0.27652104158384105  0.13888133718415932  0.19578547899389778  1.0000
  C   C1        1.0  0.9817785540403035  0.9522678909329938  0.4246536862535207  1.0000
  C   C2        1.0  0.018212071930946604  0.0477367535538136  0.5753505549387652  1.0000
  C   C3        1.0  0.09814026517418731  0.7935087687499159  0.3648258620494501  1.0000
  C   C4        1.0  0.9018626331714044  0.20650079220516196  0.6351778600679268  1.0000
  C   C5        1.0  0.22202777610276314  0.7173045365200181  0.4487123291560521  1.0000
  C   C6        1.0  0.7779690662893016  0.2826934483525747  0.551287857205132  1.0000
  C   C7        1.0  0.2566627186669522  0.8101774732882988  0.5943217080233366  1.0000
  C   C8        1.0  0.7433331483778999  0.18982715851618076  0.405677821748938  1.0000
  C   C9        1.0  0.8317793202777679  0.019993568834315998  0.3414967076915758  1.0000
  C   C10       1.0  0.16821938644088147  0.9800093856398245  0.6585035684971243  1.0000
  C   C11       1.0  0.11848725451662993  0.7183425001768879  0.2137718617619696  1.0000
  C   C12       1.0  0.8815100755490519  0.2816521612297577  0.7862286528936764  1.0000
  C   C13       1.0  0.7314589300623808  0.9030845458481592  0.1882764262626607  1.0000
  C   C14       1.0  0.2685454889369296  0.0969150663069058  0.8117214254532783  1.0000
  O   O1        1.0  0.19241718466375346  0.8606166974015749  0.15440607845828677  1.0000
  O   O2        1.0  0.8075824974021086  0.13937961014067918  0.8455948543193302  1.0000
  O   O3        1.0  0.07493410956523408  0.5111292829767748  0.14947719854139754  1.0000
  O   O4        1.0  0.9250673222695837  0.4888670213665022  0.8505218373207483  1.0000
  O   O5        1.0  0.7002687414592257  0.016791564645522804  0.11356678924612848  1.0000
  O   O6        1.0  0.29972811739938265  0.9832064263978775  0.8864314384622599  1.0000
  O   O7        1.0  0.6538114857545877  0.6909284476308172  0.13877857261559964  1.0000
  O   O8        1.0  0.3461900606378521  0.3090728295129779  0.861222449989526  1.0000
  O   O9        1.0  0.6325350800615722  0.7051210414885672  0.7942480258717166  1.0000
  O   O10       1.0  0.36746697047101406  0.2948769183600888  0.20575136637506114  1.0000
