data_image0
_chemical_formula_structural       Cu12H36C63N60
_chemical_formula_sum              "Cu12 H36 C63 N60"
_cell_length_a       22.851349479354077
_cell_length_b       23.123156761501484
_cell_length_c       23.223394208686177
_cell_angle_alpha    89.7496005402595
_cell_angle_beta     89.65671355723742
_cell_angle_gamma    90.70187333882487

_space_group_name_H-M_alt    "P 1"
_space_group_IT_number       1

loop_
  _space_group_symop_operation_xyz
  'x, y, z'

loop_
  _atom_site_type_symbol
  _atom_site_label
  _atom_site_symmetry_multiplicity
  _atom_site_fract_x
  _atom_site_fract_y
  _atom_site_fract_z
  _atom_site_occupancy
  Cu  Cu1       1.0  0.8167226605792733  0.8684127483308615  0.21680942086469904  1.0000
  Cu  Cu2       1.0  0.9191924488356875  0.7761834167572417  0.2241935946451576  1.0000
  Cu  Cu3       1.0  0.8115744921007034  0.7562128829961525  0.1410933502671483  1.0000
  Cu  Cu4       1.0  0.7401948505647624  0.1249373461478598  0.7904514990938623  1.0000
  Cu  Cu5       1.0  0.8401367348334644  0.22355333528736307  0.7845423557013831  1.0000
  Cu  Cu6       1.0  0.750625480904496  0.22201240517257767  0.8872418751736432  1.0000
  Cu  Cu7       1.0  0.20714860403823818  0.12980244615806666  0.2243339113999667  1.0000
  Cu  Cu8       1.0  0.1244315764610135  0.23381187479224508  0.19850897194032058  1.0000
  Cu  Cu9       1.0  0.22533923123371116  0.19961356799347385  0.10733589412678408  1.0000
  Cu  Cu10      1.0  0.21603425654697617  0.9025529401883716  0.7884861874789094  1.0000
  Cu  Cu11      1.0  0.11474926664336488  0.81100565773157  0.7668608477323815  1.0000
  Cu  Cu12      1.0  0.2297074142164703  0.7724668122498886  0.8303007591966675  1.0000
  H   H1        1.0  0.8550989137261807  0.954458478583227  0.3155366120899004  1.0000
  H   H2        1.0  0.9844158058777308  0.8206039057886728  0.33689643371171474  1.0000
  H   H3        1.0  0.6802677163920307  0.763601591217018  0.09390769876966229  1.0000
  H   H4        1.0  0.7007307680957949  0.931255966018348  0.17447510225332508  1.0000
  H   H5        1.0  0.007139817291175598  0.6799495861297019  0.17700451686184948  1.0000
  H   H6        1.0  0.859330838825201  0.6553832521049046  0.0632204797538591  1.0000
  H   H7        1.0  0.7686707741215173  0.056552591711032094  0.674673557386555  1.0000
  H   H8        1.0  0.9068421661698521  0.186620121411444  0.6723188068452046  1.0000
  H   H9        1.0  0.6588120668597099  0.17490012340626043  0.9782940194256324  1.0000
  H   H10       1.0  0.6455619545917984  0.0404889381144784  0.8493416771139904  1.0000
  H   H11       1.0  0.9249359750637112  0.3273463388763247  0.8223191948002081  1.0000
  H   H12       1.0  0.7944594913165374  0.3319464154810349  0.9584417009751576  1.0000
  H   H13       1.0  0.15397291137848867  0.08295960370167421  0.3411174013580265  1.0000
  H   H14       1.0  0.035401956880186  0.22375997749616522  0.3068623797817835  1.0000
  H   H15       1.0  0.3297800688028545  0.1284432476529744  0.0512352174039847  1.0000
  H   H16       1.0  0.304641630119619  0.0344002085706521  0.21150785947509826  1.0000
  H   H17       1.0  0.07043567885990142  0.3401634070329608  0.1357437193847133  1.0000
  H   H18       1.0  0.20393842679331436  0.2960626619432248  0.010726177618686  1.0000
  H   H19       1.0  0.17968132163954204  0.002187461589898  0.6998759180715979  1.0000
  H   H20       1.0  0.040409208412917494  0.8763310956584224  0.6734540296301645  1.0000
  H   H21       1.0  0.3573234212707703  0.779384680885542  0.8848941036152025  1.0000
  H   H22       1.0  0.3200945978859621  0.9609351927373736  0.8597685365407841  1.0000
  H   H23       1.0  0.02957866137874989  0.7045788630851959  0.7976195670994244  1.0000
  H   H24       1.0  0.19053506559527725  0.6487439328997482  0.8771700895942586  1.0000
  H   H25       1.0  0.9070211668068991  0.013317150847683498  0.41370646949008016  1.0000
  H   H26       1.0  0.960881721045773  0.12672150191292533  0.5808101134353051  1.0000
  H   H27       1.0  0.0846108097832783  0.04802201835565261  0.4332003869661492  1.0000
  H   H28       1.0  0.9921886738221987  0.9494397678420015  0.5900390082967348  1.0000
  H   H29       1.0  0.6103324195376699  0.9679649684677543  0.0879126427661703  1.0000
  H   H30       1.0  0.37932708885931987  0.9414874240953284  0.9978779537013409  1.0000
  H   H31       1.0  0.5608549077795999  0.9810813326461345  0.9270634760439405  1.0000
  H   H32       1.0  0.42753813013716513  0.05463902611801069  0.027399734131755296  1.0000
  H   H33       1.0  0.9282229890234319  0.5793712730150916  0.9964207580968604  1.0000
  H   H34       1.0  0.0265188709552078  0.42007424696754475  0.0619961544702932  1.0000
  H   H35       1.0  0.11862171614856719  0.562808849367414  0.9401989020520034  1.0000
  H   H36       1.0  0.9876065847191029  0.4195665867679851  0.8823928690320599  1.0000
  C   C1        1.0  0.8831509401415472  0.9170413198831396  0.31259345071982375  1.0000
  C   C2        1.0  0.9297421473510139  0.9001943999389824  0.34769036139086745  1.0000
  C   C3        1.0  0.9491060765895867  0.8483232443418984  0.3232886224015061  1.0000
  C   C4        1.0  0.6948215644190654  0.8016954230736174  0.1171227301825084  1.0000
  C   C5        1.0  0.6662507558188295  0.8544940334918394  0.1248731766679043  1.0000
  C   C6        1.0  0.7052923263086441  0.8877965342288975  0.1577276798517033  1.0000
  C   C7        1.0  0.9659170840104705  0.6815381705210087  0.1541827808313059  1.0000
  C   C8        1.0  0.9470567374826259  0.6489457221764284  0.1067760632635455  1.0000
  C   C9        1.0  0.8905060061028677  0.6689469704054717  0.09569027384326029  1.0000
  C   C10       1.0  0.7982143000837352  0.09266583088431452  0.6825721075005758  1.0000
  C   C11       1.0  0.8480768069318713  0.110460025289008  0.6513285748481508  1.0000
  C   C12       1.0  0.8690905468394732  0.1589787665243136  0.6811723783351693  1.0000
  C   C13       1.0  0.662382881388332  0.1475225093605061  0.9406675063715182  1.0000
  C   C14       1.0  0.63477004404087  0.09420738365604818  0.9296540481351628  1.0000
  C   C15       1.0  0.6552801028153753  0.0785768691503819  0.8748760369421618  1.0000
  C   C16       1.0  0.8880549715511847  0.3207189721174259  0.8513594808218627  1.0000
  C   C17       1.0  0.8728294271515792  0.3502893523892538  0.9018012458761574  1.0000
  C   C18       1.0  0.821055562094571  0.32283564382107954  0.9208085772537089  1.0000
  C   C19       1.0  0.13049395536038588  0.1199641790397834  0.3246184882229812  1.0000
  C   C20       1.0  0.08007485793500277  0.1467683007653591  0.3458516915446239  1.0000
  C   C21       1.0  0.07002458623269799  0.19209762283456655  0.30686708884742586  1.0000
  C   C22       1.0  0.3162208687609295  0.11174049512449359  0.0930405122285265  1.0000
  C   C23       1.0  0.33714791194008603  0.06449441151896448  0.12468553427232368  1.0000
  C   C24       1.0  0.30304394417924385  0.06385756623232912  0.175121036371209  1.0000
  C   C25       1.0  0.1058481088799255  0.32149005734361674  0.1109612511318971  1.0000
  C   C26       1.0  0.1290323742672186  0.3381033648752449  0.057222189536211894  1.0000
  C   C27       1.0  0.17433217200193238  0.2989293283337773  0.0472478140804213  1.0000
  C   C28       1.0  0.14949780610391628  0.9656341090246202  0.7011368045345137  1.0000
  C   C29       1.0  0.09963650772142069  0.9550557174316552  0.6676203116143355  1.0000
  C   C30       1.0  0.07806032255007268  0.9014846294864045  0.6875077025657673  1.0000
  C   C31       1.0  0.3395581375622072  0.8211423958045782  0.873409779748627  1.0000
  C   C32       1.0  0.3606060175979238  0.8767018421334074  0.8864563970777509  1.0000
  C   C33       1.0  0.32010548782509574  0.9140115412446337  0.8612389851332692  1.0000
  C   C34       1.0  0.07385620461513301  0.6995198255733969  0.813244686757912  1.0000
  C   C35       1.0  0.09714242951046968  0.6546839616929746  0.8466349462030252  1.0000
  C   C36       1.0  0.1559618110455006  0.6707696083749185  0.8543227203474473  1.0000
  C   C37       1.0  0.0163233811974806  0.49781112600861377  0.9708393132468771  1.0000
  C   C38       1.0  0.9857655879850641  0.035939771586114895  0.5047359213657145  1.0000
  C   C39       1.0  0.49972189537783135  0.9556838435642945  0.0329021984471822  1.0000
  C   C40       1.0  0.9535134404010038  0.9287568865764939  0.3977402127470668  1.0000
  C   C41       1.0  0.9390861515547966  0.9806507278891772  0.42331637214385853  1.0000
  C   C42       1.0  0.8745546182273783  0.08223302682031171  0.6024433181747496  1.0000
  C   C43       1.0  0.9274191316987982  0.09372028151081219  0.5752223825743812  1.0000
  C   C44       1.0  0.04489272773652429  0.12864119399900892  0.39477770573660104  1.0000
  C   C45       1.0  0.051908914354946496  0.0813707517903524  0.43058821143848297  1.0000
  C   C46       1.0  0.077368311968101  0.98947434272268  0.62069268509876  1.0000
  C   C47       1.0  0.027402245236423498  0.9811319695894695  0.5883465493684028  1.0000
  C   C48       1.0  0.6104759432032196  0.8710251607151634  0.10099077398595571  1.0000
  C   C49       1.0  0.5910969345564965  0.9250838688586995  0.0851310177485516  1.0000
  C   C50       1.0  0.41164896783452315  0.8926896878811592  0.9203640244764271  1.0000
  C   C51       1.0  0.41347502481806936  0.9238555280439017  0.9709642845263103  1.0000
  C   C52       1.0  0.595532025683653  0.06345076276827652  0.9683795113849596  1.0000
  C   C53       1.0  0.5642644967147278  0.0123070476592844  0.9614938665377081  1.0000
  C   C54       1.0  0.3831921716575978  0.0248274921640785  0.109768564273665  1.0000
  C   C55       1.0  0.4211026454131284  0.025163852817684098  0.06323101561039118  1.0000
  C   C56       1.0  0.9782715929027361  0.6041240778844  0.076739887993071  1.0000
  C   C57       1.0  0.9640310457500547  0.5756019071809746  0.0263967807036636  1.0000
  C   C58       1.0  0.10911053569686398  0.3851217719263644  0.0214147903580582  1.0000
  C   C59       1.0  0.06059206060640319  0.4192980948777389  0.0294674713094096  1.0000
  C   C60       1.0  0.0651429629692615  0.605831039214671  0.8706505501515663  1.0000
  C   C61       1.0  0.0798579067946577  0.567871344444626  0.9142275634589792  1.0000
  C   C62       1.0  0.9033790328247376  0.3972354394414594  0.9300676106261605  1.0000
  C   C63       1.0  0.9559338120230975  0.424626806187483  0.9168006400166957  1.0000
  N   N1        1.0  0.9163199810803845  0.835402680534152  0.27700761484341996  1.0000
  N   N2        1.0  0.8753459344609595  0.8779336610597712  0.2703571222473044  1.0000
  N   N3        1.0  0.7537352162387094  0.8569833891227743  0.16866982861605348  1.0000
  N   N4        1.0  0.7473079593268466  0.803703302254121  0.14325177796810348  1.0000
  N   N5        1.0  0.8767092113745106  0.710489626538738  0.13373484508156247  1.0000
  N   N6        1.0  0.9234887925408088  0.7183749625176931  0.16991922416868013  1.0000
  N   N7        1.0  0.8343654485014227  0.16916909080387652  0.7270140438525488  1.0000
  N   N8        1.0  0.7904389765573399  0.1280095641137677  0.7279371863402843  1.0000
  N   N9        1.0  0.6926360785852026  0.11969588459848521  0.8548658291033532  1.0000
  N   N10       1.0  0.6969474227892078  0.1623686465771925  0.8957160871290384  1.0000
  N   N11       1.0  0.8067120035504517  0.2799541747938434  0.8842756528451403  1.0000
  N   N12       1.0  0.8481446360716945  0.27863584209214315  0.8411844839347749  1.0000
  N   N13       1.0  0.1115413689496094  0.1919506696426936  0.2653404857341357  1.0000
  N   N14       1.0  0.14897294573475509  0.147250428347391  0.276404833911478  1.0000
  N   N15       1.0  0.2647224875935734  0.10762236315361663  0.1734763078144255  1.0000
  N   N16       1.0  0.2727619192912343  0.1373251422149195  0.12260544825492302  1.0000
  N   N17       1.0  0.1776205335011696  0.2616217201021557  0.0919585204262816  1.0000
  N   N18       1.0  0.1351255053700058  0.2757023317095104  0.1314493383147379  1.0000
  N   N19       1.0  0.1127180278625914  0.8815257744407601  0.7296816888084193  1.0000
  N   N20       1.0  0.15695691042245838  0.9213399029157543  0.7382227387291068  1.0000
  N   N21       1.0  0.2778030701734906  0.8828258272006837  0.8351082391132607  1.0000
  N   N22       1.0  0.2896608590380723  0.8251746473572295  0.8429793771088612  1.0000
  N   N23       1.0  0.16682789605478382  0.7216574338015675  0.8275166529990016  1.0000
  N   N24       1.0  0.11583265187068999  0.7395090477812474  0.8022519496552931  1.0000
  N   N25       1.0  0.012661713289013197  0.9384862212709636  0.47146829460549355  1.0000
  N   N26       1.0  0.9984851969102736  0.9048642432529875  0.42901375547489096  1.0000
  N   N27       1.0  0.9757755111983357  0.9848845237965592  0.4691867249316033  1.0000
  N   N28       1.0  0.8847153034504485  0.014324580170900004  0.5372618364587751  1.0000
  N   N29       1.0  0.8501302658498274  0.03368599270126539  0.5772122250449314  1.0000
  N   N30       1.0  0.9320890069204067  0.05143298652451022  0.5348582991167773  1.0000
  N   N31       1.0  0.9698891403506665  0.129014888767891  0.4545716941034427  1.0000
  N   N32       1.0  0.994443060533115  0.15641848072174722  0.4115868267266265  1.0000
  N   N33       1.0  0.0053726554193431995  0.0832152499166341  0.467377801564993  1.0000
  N   N34       1.0  0.0789662037384602  0.05793916687686362  0.5546628051809606  1.0000
  N   N35       1.0  0.10706922444779111  0.03698910023416601  0.5984679670373865  1.0000
  N   N36       1.0  0.030276410161782504  0.0234604755556589  0.5475344264808015  1.0000
  N   N37       1.0  0.5239184059506384  0.8566591608645026  0.06241834412702468  1.0000
  N   N38       1.0  0.5677050658898962  0.8309606355202136  0.08635205237364119  1.0000
  N   N39       1.0  0.5375720247915297  0.9146148799582576  0.0612097342976625  1.0000
  N   N40       1.0  0.5043093716967703  0.8985944845952288  0.943965843287053  1.0000
  N   N41       1.0  0.468209703706833  0.8782276438233863  0.9057720195509446  1.0000
  N   N42       1.0  0.47140491218447517  0.9269850342952353  0.9842357190058023  1.0000
  N   N43       1.0  0.5478683808129786  0.04933825593906249  0.0498193569093885  1.0000
  N   N44       1.0  0.5839502863682283  0.0841009142461999  0.022946092000168495  1.0000
  N   N45       1.0  0.5346384230655729  0.005318929116910501  0.012345090347317  1.0000
  N   N46       1.0  0.4394411548423989  0.94900131801068  0.12107434989158608  1.0000
  N   N47       1.0  0.3964328118018584  0.9774931179478299  0.1437472570122935  1.0000
  N   N48       1.0  0.45529369611097076  0.9778662955675301  0.0717312791469737  1.0000
  N   N49       1.0  0.047552272904056295  0.5404422549208691  0.063153804136391  1.0000
  N   N50       1.0  0.0296560451753081  0.5811249881422499  0.09717554103727369  1.0000
  N   N51       1.0  0.0069343088593711985  0.5357899534551863  0.019927489887230396  1.0000
  N   N52       1.0  0.1091993358522956  0.44681655676275517  0.9490580224406029  1.0000
  N   N53       1.0  0.1372516092187084  0.4037113923922604  0.9717999588929658  1.0000
  N   N54       1.0  0.06245339773556678  0.45730159048468266  0.9846852261338483  1.0000
  N   N55       1.0  0.988117761338316  0.5492467963049419  0.883483002224345  1.0000
  N   N56       1.0  0.0088917358571408  0.5921648103512781  0.8532262249285265  1.0000
  N   N57       1.0  0.0318623766368944  0.5325672557557085  0.9203645534626544  1.0000
  N   N58       1.0  0.9176108864793093  0.4616581754164173  0.9980465899492258  1.0000
  N   N59       1.0  0.8818042012747469  0.4217235124097627  0.9798821993346818  1.0000
  N   N60       1.0  0.9629103971184562  0.4646533447108966  0.9591550721022769  1.0000
