data_image0
_chemical_formula_structural       Al4H62C76N18O42
_chemical_formula_sum              "Al4 H62 C76 N18 O42"
_cell_length_a       6.649338180971193
_cell_length_b       23.713441421721356
_cell_length_c       30.218273467670535
_cell_angle_alpha    89.49294712667646
_cell_angle_beta     90.71214173415353
_cell_angle_gamma    88.98397591601338

_space_group_name_H-M_alt    "P 1"
_space_group_IT_number       1

loop_
  _space_group_symop_operation_xyz
  'x, y, z'

loop_
  _atom_site_type_symbol
  _atom_site_label
  _atom_site_symmetry_multiplicity
  _atom_site_fract_x
  _atom_site_fract_y
  _atom_site_fract_z
  _atom_site_occupancy
  Al  Al1       1.0  0.22117677944182648  0.7479251006687804  0.2526525936318933  1.0000
  Al  Al2       1.0  0.8004716126659447  0.2472675405276874  0.7480517198261436  1.0000
  Al  Al3       1.0  0.7207401033011037  0.7408186651300492  0.2527563759954957  1.0000
  Al  Al4       1.0  0.30294095464756765  0.25527162918939433  0.7522938994967985  1.0000
  H   H1        1.0  0.6869927792548579  0.6686088801304494  0.1288073220258994  1.0000
  H   H2        1.0  0.31735076935834167  0.3311805001293138  0.8748003864037414  1.0000
  H   H3        1.0  0.7749463464419151  0.059877799361039805  0.5849348134986981  1.0000
  H   H4        1.0  0.4121224825042231  0.9740333942530411  0.38374131834065384  1.0000
  H   H5        1.0  0.2770625628337199  0.1048433919775889  0.9361440250732754  1.0000
  H   H6        1.0  0.7660234932481487  0.873146562306232  0.06084130458017968  1.0000
  H   H7        1.0  0.8104134266840148  0.9877278928417681  0.05752483912478109  1.0000
  H   H8        1.0  0.2705091239801902  0.002661777322288101  0.9441599308204756  1.0000
  H   H9        1.0  0.3800347665258387  0.682767370755947  0.40940870334576823  1.0000
  H   H10       1.0  0.7313795371111027  0.3072032674342253  0.6582008427339119  1.0000
  H   H11       1.0  0.6874408745782503  0.40315568952090797  0.026563362720736394  1.0000
  H   H12       1.0  0.22713449716287928  0.6149336554659967  0.024062499259663594  1.0000
  H   H13       1.0  0.19954025857369828  0.22155633273198558  0.6503169557510162  1.0000
  H   H14       1.0  0.0718818617730292  0.1925890217463149  0.6048685090084972  1.0000
  H   H15       1.0  0.6775269745242056  0.7451708672541459  0.37243504389938653  1.0000
  H   H16       1.0  0.756957442733011  0.7600076938810928  0.4238206689622572  1.0000
  H   H17       1.0  0.06868432409113719  0.0894302950069772  0.5450848733613682  1.0000
  H   H18       1.0  0.9928625829705309  0.10895029331158669  0.5976060663209423  1.0000
  H   H19       1.0  0.6443502163975269  0.8413682227357526  0.5006622073437796  1.0000
  H   H20       1.0  0.5779608946513476  0.7795344859634028  0.47589406366802917  1.0000
  H   H21       1.0  0.8502469024560567  0.14430344781299453  0.6761076022936408  1.0000
  H   H22       1.0  0.29044311557043295  0.8834035009689744  0.29660604511278166  1.0000
  H   H23       1.0  0.6792080306871853  0.9962747858374923  0.6021722753945937  1.0000
  H   H24       1.0  0.18586535922004538  0.9658537732368799  0.41729522983428774  1.0000
  H   H25       1.0  0.8354035482170871  0.9176084068491971  0.5379170947273905  1.0000
  H   H26       1.0  0.12213024261628648  0.0677485423024677  0.4651415072503226  1.0000
  H   H27       1.0  0.24679945174960238  0.18843592808287468  0.8395881497596134  1.0000
  H   H28       1.0  0.87573777380787  0.8037977062274779  0.10570637915309787  1.0000
  H   H29       1.0  0.9686342125616391  0.0338596485937259  0.8725284223998668  1.0000
  H   H30       1.0  0.258514335167945  0.0005901043698556999  0.0832469021641344  1.0000
  H   H31       1.0  0.3074510595525978  0.6087806648383278  0.4821062234264132  1.0000
  H   H32       1.0  0.45358820950775663  0.589404190926949  0.4411000082241045  1.0000
  H   H33       1.0  0.679138014053528  0.4063405840119216  0.5272506360553777  1.0000
  H   H34       1.0  0.5915443521146031  0.3553321923591994  0.5647107992535891  1.0000
  H   H35       1.0  0.03453521433244328  0.11449258590774043  0.8490266210002844  1.0000
  H   H36       1.0  0.89616589907245  0.1273295372618364  0.8045987193310465  1.0000
  H   H37       1.0  0.0716130916897413  0.9331787545539213  0.16532789606380754  1.0000
  H   H38       1.0  0.1394072651769349  0.8720266210836131  0.19459284677776612  1.0000
  H   H39       1.0  0.0036294628431932006  0.047136662537205595  0.015062805594141096  1.0000
  H   H40       1.0  0.9513452625781864  0.06290692266574642  0.9619312890192757  1.0000
  H   H41       1.0  0.1469925505068375  0.9195651698348115  0.039522436587581894  1.0000
  H   H42       1.0  0.0674967026857587  0.9462454009421181  0.990413416196361  1.0000
  H   H43       1.0  0.7024214934555814  0.5150922002480841  0.4328757048478237  1.0000
  H   H44       1.0  0.4166711834328893  0.4622214457863336  0.6226103805862735  1.0000
  H   H45       1.0  0.5408078969982312  0.5845012146119615  0.3502446246909372  1.0000
  H   H46       1.0  0.6272235325938877  0.6377533382691425  0.3146808035721093  1.0000
  H   H47       1.0  0.3616241554368003  0.3825916728827393  0.6958892271915571  1.0000
  H   H48       1.0  0.5023879435676406  0.3806681388509006  0.6518461120957966  1.0000
  H   H49       1.0  0.3979556271571951  0.574007313799406  0.1591442683058517  1.0000
  H   H50       1.0  0.595070511018676  0.4156311451728456  0.8395125609539489  1.0000
  H   H51       1.0  0.30758600844409045  0.5070201841798365  0.07884323957485148  1.0000
  H   H52       1.0  0.4502413072973184  0.5628537809543771  0.08618946557249528  1.0000
  H   H53       1.0  0.5398410829025407  0.4329683328376248  0.9125545934724  1.0000
  H   H54       1.0  0.6736179281682836  0.4911978547724588  0.9110621472328899  1.0000
  H   H55       1.0  0.6863853118060277  0.5868916407176813  0.030290684442526597  1.0000
  H   H56       1.0  0.296518555879281  0.4186448135215457  0.9690455842662542  1.0000
  H   H57       1.0  0.7701225768009649  0.497016973626778  0.09415697755408556  1.0000
  H   H58       1.0  0.29476388443338664  0.5599695430857495  0.9329821021603022  1.0000
  H   H59       1.0  0.45610130199919036  0.6785141003540074  0.22768113116739389  1.0000
  H   H60       1.0  0.5744523123415206  0.31678924477044745  0.7742916323978264  1.0000
  H   H61       1.0  0.9409008602057154  0.810960573065195  0.23020925874386214  1.0000
  H   H62       1.0  0.08011832535195398  0.1832429552129682  0.7289887572592804  1.0000
  C   C1        1.0  0.4826278662142371  0.80343148307049  0.3163452684043903  1.0000
  C   C2        1.0  0.5361894645747043  0.18825971322537066  0.6858815049399282  1.0000
  C   C3        1.0  0.4662266758648243  0.8132195445487297  0.19207396739395924  1.0000
  C   C4        1.0  0.5615584516380139  0.17892977919487413  0.8094457425816157  1.0000
  C   C5        1.0  0.9702373834336909  0.680303987247797  0.19042382199368285  1.0000
  C   C6        1.0  0.04199996888414859  0.3137022484323638  0.8121799097194254  1.0000
  C   C7        1.0  0.9921049789745806  0.6808253874489197  0.3139122667864171  1.0000
  C   C8        1.0  0.0406430229138763  0.32128337063267054  0.6894648291136605  1.0000
  C   C9        1.0  0.15190251595141996  0.6478684866576572  0.3859435540208835  1.0000
  C   C10       1.0  0.8732168419649965  0.3557501797734446  0.6200363657999401  1.0000
  C   C11       1.0  0.166562967212343  0.6097753958372252  0.4214374444746197  1.0000
  C   C12       1.0  0.868086697072293  0.38601187739421045  0.5793293345808692  1.0000
  C   C13       1.0  0.009436354947638396  0.5706858137194359  0.4284321333050015  1.0000
  C   C14       1.0  0.03407000035473118  0.42106246897927235  0.5685572028442107  1.0000
  C   C15       1.0  0.8344234300919027  0.5744795020495276  0.4014347241843764  1.0000
  C   C16       1.0  0.1960022605253755  0.42438342208330937  0.5996231973599819  1.0000
  C   C17       1.0  0.8229425226578683  0.6113341192565684  0.36389908095244994  1.0000
  C   C18       1.0  0.2059204654642101  0.3913857306556495  0.638235599329249  1.0000
  C   C19       1.0  0.9883047701369846  0.6469752101587359  0.3548136359658328  1.0000
  C   C20       1.0  0.04083495760035308  0.3566278078475875  0.6491707429234521  1.0000
  C   C21       1.0  0.0363519390600189  0.4528521933495711  0.5273308665649238  1.0000
  C   C22       1.0  0.02675846428874709  0.5254600984438723  0.4612180616697187  1.0000
  C   C23       1.0  0.15555233574187344  0.6097420487164698  0.14184242931481345  1.0000
  C   C24       1.0  0.8417474728455971  0.3837693708408878  0.8572035241358049  1.0000
  C   C25       1.0  0.15812109774891064  0.575012973937227  0.1039830628330094  1.0000
  C   C26       1.0  0.8312934090073368  0.42083292702590575  0.8935835509254773  1.0000
  C   C27       1.0  0.9897887657533174  0.5734189661260842  0.0752902746672177  1.0000
  C   C28       1.0  0.9949103484858667  0.4256911452574883  0.9227711289061773  1.0000
  C   C29       1.0  0.8201622904760626  0.6078482389288523  0.08467676015391129  1.0000
  C   C30       1.0  0.16926634896123008  0.3924404807482701  0.9156826376014136  1.0000
  C   C31       1.0  0.8174664749422006  0.6419332980353473  0.12169732461246238  1.0000
  C   C32       1.0  0.1818937713908468  0.3566268633479196  0.879929835860004  1.0000
  C   C33       1.0  0.9840073515780716  0.6432152581175005  0.15070910772945464  1.0000
  C   C34       1.0  0.018933484288481798  0.3518869891628  0.8501695883204758  1.0000
  C   C35       1.0  0.8631761122210619  0.4895529601836375  0.0339986192349784  1.0000
  C   C36       1.0  0.11294031113995828  0.5117782692776913  0.9627131501127195  1.0000
  C   C37       1.0  0.8633479013812035  0.45360019546838964  0.9974228123002573  1.0000
  C   C38       1.0  0.11444789449318897  0.5469947143047804  0.9997450605812045  1.0000
  C   C39       1.0  0.9883519614636284  0.4643147960106687  0.9611196254561276  1.0000
  C   C40       1.0  0.9889222311867272  0.5366020347172835  0.03586898052909499  1.0000
  C   C41       1.0  0.3270842747030543  0.15095954626300306  0.6232797786628338  1.0000
  C   C42       1.0  0.5564119540390848  0.8166121569044903  0.3977246338778996  1.0000
  C   C43       1.0  0.2929204669521113  0.10982628239802489  0.5895252003744389  1.0000
  C   C44       1.0  0.5358827449673029  0.8493938674242898  0.4368126318833275  1.0000
  C   C45       1.0  0.45273180721203937  0.0747393936350917  0.5754350360425419  1.0000
  C   C46       1.0  0.48581198893752736  0.9074771317807446  0.43239540160631396  1.0000
  C   C47       1.0  0.6410900532511619  0.0805523366935432  0.5978136592546761  1.0000
  C   C48       1.0  0.42916723729158684  0.9288291398429537  0.38986532055783124  1.0000
  C   C49       1.0  0.666820614945884  0.1144759575215275  0.634271515642304  1.0000
  C   C50       1.0  0.404225746152349  0.893399164416813  0.3539581180085704  1.0000
  C   C51       1.0  0.5098955910973118  0.15146881420328384  0.6483729242052831  1.0000
  C   C52       1.0  0.47731607344746857  0.8370523730341263  0.3570463806532799  1.0000
  C   C53       1.0  0.5765042531621275  0.9831900307722067  0.5428145455320177  1.0000
  C   C54       1.0  0.3230885623263191  0.9896469836298111  0.47061111313238496  1.0000
  C   C55       1.0  0.6035092082640219  0.94635506792968  0.5072774269065333  1.0000
  C   C56       1.0  0.3201653133186397  0.0326119859964606  0.5021489254597  1.0000
  C   C57       1.0  0.47333636486681735  0.9467170167664347  0.4701027757530837  1.0000
  C   C58       1.0  0.4440660836095914  0.03099634810827471  0.5405733900367052  1.0000
  C   C59       1.0  0.3978935527814258  0.1374615418221552  0.8762590141511238  1.0000
  C   C60       1.0  0.637600662576304  0.844666006213096  0.12218688186445087  1.0000
  C   C61       1.0  0.40441979986614734  0.1033793149910878  0.9138459585401006  1.0000
  C   C62       1.0  0.6487046048665945  0.8799477823763767  0.08529698047090757  1.0000
  C   C63       1.0  0.57200167585016  0.068251436575224  0.9239627637800891  1.0000
  C   C64       1.0  0.5034159556206461  0.9229986554064952  0.07784435327177867  1.0000
  C   C65       1.0  0.7349567859327522  0.06960579662874979  0.8950448874469144  1.0000
  C   C66       1.0  0.3496097835755664  0.9300429645675194  0.10835889564422267  1.0000
  C   C67       1.0  0.7371770853669801  0.10591492148913767  0.8579387865146727  1.0000
  C   C68       1.0  0.330235512760936  0.8936034199645275  0.14525948482091874  1.0000
  C   C69       1.0  0.5656594264952872  0.1401179041419454  0.8474250740848389  1.0000
  C   C70       1.0  0.47829036824231247  0.850365259373028  0.15253773626418618  1.0000
  C   C71       1.0  0.7223689018308477  0.025907840367985106  0.995150116191837  1.0000
  C   C72       1.0  0.3586540158499716  0.9649215900338319  0.0064860174826293  1.0000
  C   C73       1.0  0.692550390455338  0.9909078551444351  0.03203631670596249  1.0000
  C   C74       1.0  0.3881581986752066  0.0001270491081300008  0.9696735484916272  1.0000
  C   C75       1.0  0.5158904299239994  0.960754632190408  0.038678362163644  1.0000
  C   C76       1.0  0.564515945895316  0.030444124272875697  0.963033017795645  1.0000
  N   N1        1.0  0.8617218061285071  0.49487776558822816  0.46989236662640355  1.0000
  N   N2        1.0  0.21490941463509466  0.4700369533792497  0.509691589651723  1.0000
  N   N3        1.0  0.8647794035686972  0.458341248838977  0.502799724863088  1.0000
  N   N4        1.0  0.2103022077546726  0.5065140826319379  0.47710645101335547  1.0000
  N   N5        1.0  0.1732943872634038  0.18854862650145782  0.6302340027797371  1.0000
  N   N6        1.0  0.6388595345819112  0.7622295809356033  0.4020313047258809  1.0000
  N   N7        1.0  0.0969078574287181  0.1108741194235137  0.5733358464766737  1.0000
  N   N8        1.0  0.5578675535117482  0.8219017080070543  0.4774794036666349  1.0000
  N   N9        1.0  0.33847547155120583  0.6163824501997155  0.4497072722044065  1.0000
  N   N10       1.0  0.705213416396603  0.378361855002133  0.5524965384030408  1.0000
  N   N11       1.0  0.9091699694854822  0.10166906639015143  0.8318189883755165  1.0000
  N   N12       1.0  0.17770865831914048  0.9040180977657287  0.1741823679937937  1.0000
  N   N13       1.0  0.8943399523784449  0.05870803661597529  0.9928649495957698  1.0000
  N   N14       1.0  0.18732664266001106  0.9316699262802217  0.008624307639657  1.0000
  N   N15       1.0  0.6543749270997239  0.6077941016281727  0.3382977404143047  1.0000
  N   N16       1.0  0.378387965140689  0.40018093884800277  0.6652811953734812  1.0000
  N   N17       1.0  0.3324882331404665  0.540568938191491  0.09890287427757728  1.0000
  N   N18       1.0  0.6512805451995973  0.4536262126883414  0.8958756035544153  1.0000
  O   O1        1.0  0.6280683405726961  0.8010083725788846  0.21329538389210964  1.0000
  O   O2        1.0  0.38834763565665037  0.19872122873638176  0.7961194493777766  1.0000
  O   O3        1.0  0.325883981506543  0.8055102907100675  0.29076498907014775  1.0000
  O   O4        1.0  0.71558843629645  0.19620023760646893  0.7022919845233841  1.0000
  O   O5        1.0  0.1540263352399264  0.7045164491172361  0.30251273019983654  1.0000
  O   O6        1.0  0.8728897195282457  0.2977624124141514  0.6999138496093023  1.0000
  O   O7        1.0  0.29070608281739396  0.7965456225098536  0.20314416986555978  1.0000
  O   O8        1.0  0.7260274535343783  0.191973282213965  0.7907885112406701  1.0000
  O   O9        1.0  0.13433403252560078  0.6927976263871898  0.2094750283051496  1.0000
  O   O10       1.0  0.8831900666874261  0.29745216302384847  0.7926232308973055  1.0000
  O   O11       1.0  0.6426540312754412  0.7759519068015805  0.3070923846825124  1.0000
  O   O12       1.0  0.3806564783183504  0.21241286673136978  0.7025124408925405  1.0000
  O   O13       1.0  0.46870633461986694  0.7079712333992206  0.24970209580732214  1.0000
  O   O14       1.0  0.5545739914372233  0.2873343616772602  0.7523540127249716  1.0000
  O   O15       1.0  0.7944375514846698  0.6963698384593258  0.20153026009239738  1.0000
  O   O16       1.0  0.22044715894906367  0.2989218966357682  0.8011701978431771  1.0000
  O   O17       1.0  0.8299527728663278  0.6835739424283531  0.2899450961723673  1.0000
  O   O18       1.0  0.2015030161638549  0.31400699698060214  0.7123989578350702  1.0000
  O   O19       1.0  0.9632500875064095  0.7808308678227007  0.2517711544090773  1.0000
  O   O20       1.0  0.059418676256896695  0.21554116877285878  0.7480166008732069  1.0000
  O   O21       1.0  0.29525568600670477  0.6874145694295849  0.38230486541800696  1.0000
  O   O22       1.0  0.7052550929550846  0.3249395003222375  0.6282354324561792  1.0000
  O   O23       1.0  0.745138294761773  0.40707234588056446  0.9971153059400206  1.0000
  O   O24       1.0  0.24324211755953937  0.5917844697239119  0.9976694108631674  1.0000
  O   O25       1.0  0.8481766614035987  0.11151268713140182  0.6559066049140366  1.0000
  O   O26       1.0  0.3251116774277065  0.9155489774218921  0.3154999736352835  1.0000
  O   O27       1.0  0.6946669925948824  0.967679028358603  0.5791152375008579  1.0000
  O   O28       1.0  0.16920662997434016  0.9953022065522177  0.4398118569937991  1.0000
  O   O29       1.0  0.7653127570135397  0.9091512423306297  0.5100897554053887  1.0000
  O   O30       1.0  0.19088409367353876  0.0774282752648929  0.49294003478527043  1.0000
  O   O31       1.0  0.2275086103397399  0.16938937857713654  0.8688725618320203  1.0000
  O   O32       1.0  0.7757446424172368  0.8014324985059601  0.1288908478263977  1.0000
  O   O33       1.0  0.8976307887118936  0.0331204406454759  0.9009816553778974  1.0000
  O   O34       1.0  0.20731308070932644  0.9734697174814074  0.10473633405115378  1.0000
  O   O35       1.0  0.6690720650508766  0.5420751753246976  0.4072111397915847  1.0000
  O   O36       1.0  0.3444580734910189  0.46256266400668267  0.5936808363429478  1.0000
  O   O37       1.0  0.3189723221641856  0.6069401221990204  0.16935409276564425  1.0000
  O   O38       1.0  0.6795887823041085  0.383492322911735  0.8291770516552288  1.0000
  O   O39       1.0  0.6527662448382613  0.6085116208845278  0.0567600835260933  1.0000
  O   O40       1.0  0.332316884830952  0.39407412016132776  0.944450931940814  1.0000
  O   O41       1.0  0.7374995481355312  0.4746775037200096  0.0680460028728191  1.0000
  O   O42       1.0  0.23285589216801839  0.5235944089303004  0.9273464367369184  1.0000
