data_image0
_chemical_formula_structural       Na2P2H32C22N4O16
_chemical_formula_sum              "Na2 P2 H32 C22 N4 O16"
_cell_length_a       8.34080888200413
_cell_length_b       8.78945503896439
_cell_length_c       10.441638065815035
_cell_angle_alpha    103.33485130360415
_cell_angle_beta     90.00007696255578
_cell_angle_gamma    89.99990060147239

_space_group_name_H-M_alt    "P 1"
_space_group_IT_number       1

loop_
  _space_group_symop_operation_xyz
  'x, y, z'

loop_
  _atom_site_type_symbol
  _atom_site_label
  _atom_site_symmetry_multiplicity
  _atom_site_fract_x
  _atom_site_fract_y
  _atom_site_fract_z
  _atom_site_occupancy
  Na  Na1       1.0  0.8975083679798956  0.1449489324051783  0.9744839701341094  1.0000
  Na  Na2       1.0  0.3975074526441206  0.8550520067506041  0.025515811980390886  1.0000
  P   P1        1.0  0.5267294431518932  0.19494979813880775  0.15568770894870448  1.0000
  P   P2        1.0  0.026727604517461104  0.8050504960546047  0.8443134637896463  1.0000
  H   H1        1.0  0.1713526781254728  0.14816750401296017  0.1509803357351771  1.0000
  H   H2        1.0  0.6713520952901603  0.8518314174188006  0.8490197635668791  1.0000
  H   H3        1.0  0.29617616425136367  0.42842385867652405  0.28839289289582126  1.0000
  H   H4        1.0  0.796174660218334  0.571576056953262  0.7116065786581133  1.0000
  H   H5        1.0  0.2144704738299765  0.4312413506784549  0.07170529261807697  1.0000
  H   H6        1.0  0.7144693410749383  0.5687586779929105  0.9282950713371534  1.0000
  H   H7        1.0  0.1246696429669072  0.597968936851174  0.028772873326509747  1.0000
  H   H8        1.0  0.6246688861162184  0.4020300561628928  0.9712262323290588  1.0000
  H   H9        1.0  0.10710795897589517  0.572936455984937  0.19341576022261356  1.0000
  H   H10       1.0  0.6071080772948462  0.4270637315253153  0.8065835622358364  1.0000
  H   H11       1.0  0.4405586795463278  0.9412752873274924  0.4100750796165542  1.0000
  H   H12       1.0  0.9405591019499794  0.05872442512927021  0.589923548962922  1.0000
  H   H13       1.0  0.23933005031381063  0.9339745735415689  0.46777153595094484  1.0000
  H   H14       1.0  0.7393291630155546  0.06602659307591098  0.5322281214267051  1.0000
  H   H15       1.0  0.2778357710983173  0.925702374817106  0.296799178605191  1.0000
  H   H16       1.0  0.7778363565781633  0.07429639794185756  0.7032000478352387  1.0000
  H   H17       1.0  0.7933563579365384  0.9294705644306942  0.1148986666484645  1.0000
  H   H18       1.0  0.2933571236009271  0.0705293552523614  0.8851008026827145  1.0000
  H   H19       1.0  0.004810734819848501  0.8391980629462168  0.2536610242251314  1.0000
  H   H20       1.0  0.5048112358006022  0.1607999287304835  0.746338713093678  1.0000
  H   H21       1.0  0.4457096961251282  0.5299834244018554  0.48442574567074803  1.0000
  H   H22       1.0  0.9457068467024639  0.47001861913597764  0.5155733482722411  1.0000
  H   H23       1.0  0.6192218620431049  0.2997002942748281  0.4939667293948418  1.0000
  H   H24       1.0  0.119220841313826  0.7002998669131414  0.5060345162818578  1.0000
  H   H25       1.0  0.4249337398410021  0.2490393651737719  0.4258887480003892  1.0000
  H   H26       1.0  0.9249340749327503  0.7509638641259143  0.5741134307104687  1.0000
  H   H27       1.0  0.0597111773350463  0.3637420681007199  0.3233071746361701  1.0000
  H   H28       1.0  0.5597094966169252  0.6362581875677832  0.6766921104452379  1.0000
  H   H29       1.0  0.0821960090630967  0.1757816735940452  0.3599105711791921  1.0000
  H   H30       1.0  0.5821951234275673  0.8242185452889144  0.640089688466638  1.0000
  H   H31       1.0  0.8918008432024748  0.23548305451857485  0.30946554425663914  1.0000
  H   H32       1.0  0.3918000173914322  0.7645178972962156  0.6905332765240999  1.0000
  C   C1        1.0  0.41750127697548584  0.4715633771021429  0.2749349235864287  1.0000
  C   C2        1.0  0.9174998741761372  0.5284363596094649  0.7250656004754958  1.0000
  C   C3        1.0  0.40753444787141996  0.6385073158598187  0.25365693426111585  1.0000
  C   C4        1.0  0.9075333847784749  0.3614924396355263  0.7463426251083334  1.0000
  C   C5        1.0  0.1852490035802816  0.5557630873976078  0.10665167622845216  1.0000
  C   C6        1.0  0.6852492372643012  0.4442369832934928  0.8933486646837423  1.0000
  C   C7        1.0  0.32084729375522153  0.8903484425773553  0.38505508878166245  1.0000
  C   C8        1.0  0.8208476657765615  0.10965143757379538  0.614944402228268  1.0000
  C   C9        1.0  0.577739705445765  0.6971114547264818  0.24923340741395353  1.0000
  C   C10       1.0  0.07773982134107629  0.302889939806917  0.7507670793695027  1.0000
  C   C11       1.0  0.7657800215754945  0.8477860749623998  0.17576497207425484  1.0000
  C   C12       1.0  0.2657817346906839  0.15221388437498007  0.8242344755110409  1.0000
  C   C13       1.0  0.8814559635922238  0.7975833013636301  0.25291386088795054  1.0000
  C   C14       1.0  0.3814562560780742  0.20241531793725184  0.7470864040984964  1.0000
  C   C15       1.0  0.6973469215839003  0.6447643462486211  0.3249402902674916  1.0000
  C   C16       1.0  0.19734681430693257  0.3552368807403781  0.6750593340032509  1.0000
  C   C17       1.0  0.5135460261267255  0.4676589167888918  0.39798914046102135  1.0000
  C   C18       1.0  0.013544274250037304  0.5323425656052834  0.6020122525325391  1.0000
  C   C19       1.0  0.5411286448147407  0.3006778242710054  0.40989339570374733  1.0000
  C   C20       1.0  0.0411289668516375  0.6993236184576401  0.5901080190418284  1.0000
  C   C21       1.0  0.021592660460690596  0.24010767832910312  0.29460672847936553  1.0000
  C   C22       1.0  0.5215920022135093  0.7598926277017952  0.7053934833757296  1.0000
  N   N1        1.0  0.6142072380354124  0.7960391377931868  0.17407967179760664  1.0000
  N   N2        1.0  0.11420766092320632  0.20395869657049553  0.8259201517894752  1.0000
  N   N3        1.0  0.84835021720437  0.6947474437503727  0.32615984690905003  1.0000
  N   N4        1.0  0.34835019881143836  0.3052523968516282  0.6738396657890888  1.0000
  O   O1        1.0  0.6426270364901611  0.13686279385949968  0.04715273583931889  1.0000
  O   O2        1.0  0.14262407664468674  0.8631361510752666  0.9528511681409526  1.0000
  O   O3        1.0  0.36920283317049757  0.1107566815050518  0.1575975214001275  1.0000
  O   O4        1.0  0.8692021710830103  0.8892442983541428  0.8424022383931843  1.0000
  O   O5        1.0  0.4914125602390484  0.3786798068562759  0.15901668356057996  1.0000
  O   O6        1.0  0.9914111843138044  0.6213198235702819  0.8409838987865967  1.0000
  O   O7        1.0  0.3304806624185659  0.6473104342533061  0.13569201043047488  1.0000
  O   O8        1.0  0.8304810136008952  0.3526882628020401  0.8643072575247642  1.0000
  O   O9        1.0  0.3229995002406482  0.7233165055755604  0.3673924211530916  1.0000
  O   O10       1.0  0.8229983992706736  0.2766833714817665  0.6326070715534513  1.0000
  O   O11       1.0  0.6709635476160328  0.5404713589136491  0.39996462114409326  1.0000
  O   O12       1.0  0.17096192488382658  0.4595275630784314  0.6000354778506889  1.0000
  O   O13       1.0  0.6191510404706689  0.20808006705482993  0.29467416309207545  1.0000
  O   O14       1.0  0.1191513887231039  0.7919189205394375  0.7053278087108481  1.0000
  O   O15       1.0  0.0547033052610004  0.1727715483357031  0.15969721093429  1.0000
  O   O16       1.0  0.5547027524627594  0.8272275408387911  0.840302796379973  1.0000
