data_image0
_chemical_formula_structural       Ba4H12C12O28
_chemical_formula_sum              "Ba4 H12 C12 O28"
_cell_length_a       5.70870073478965
_cell_length_b       6.674305019831516
_cell_length_c       18.19246097008515
_cell_angle_alpha    90.00031625070507
_cell_angle_beta     90.00010289870383
_cell_angle_gamma    98.02286904416886

_space_group_name_H-M_alt    "P 1"
_space_group_IT_number       1

loop_
  _space_group_symop_operation_xyz
  'x, y, z'

loop_
  _atom_site_type_symbol
  _atom_site_label
  _atom_site_symmetry_multiplicity
  _atom_site_fract_x
  _atom_site_fract_y
  _atom_site_fract_z
  _atom_site_occupancy
  Ba  Ba1       1.0  0.7726911167448236  0.620015543158729  0.9160116009897123  1.0000
  Ba  Ba2       1.0  0.7273054988746921  0.8799870263216079  0.4160096791158665  1.0000
  Ba  Ba3       1.0  0.22730544155344026  0.3799840427961739  0.08398908407291122  1.0000
  Ba  Ba4       1.0  0.2726963153813884  0.1200125646883023  0.5839910059482137  1.0000
  H   H1        1.0  0.0217585658480957  0.35351036039936196  0.749254135138621  1.0000
  H   H2        1.0  0.4782390845636542  0.14648738605141892  0.24924803267703774  1.0000
  H   H3        1.0  0.9782417413666236  0.6464907420085879  0.25074545057008635  1.0000
  H   H4        1.0  0.5217627296901027  0.8535122049540719  0.7507521027088089  1.0000
  H   H5        1.0  0.2004563727295476  0.3422885607296066  0.8946605592362858  1.0000
  H   H6        1.0  0.2995370036571003  0.15771000549859343  0.39465932745303434  1.0000
  H   H7        1.0  0.7995401855640836  0.6577110252164575  0.1053390264698493  1.0000
  H   H8        1.0  0.7004610616755684  0.8422880690450115  0.6053408079302331  1.0000
  H   H9        1.0  0.9715323684280577  0.20879320080708655  0.9316451891044083  1.0000
  H   H10       1.0  0.5284652490895496  0.2912055541730821  0.4316446265155777  1.0000
  H   H11       1.0  0.028464189867882787  0.7912063851433971  0.06835494627997461  1.0000
  H   H12       1.0  0.4715365651665308  0.7087940368368281  0.5683560585485026  1.0000
  C   C1        1.0  0.43342616714417664  0.35130883345773606  0.7640697247845623  1.0000
  C   C2        1.0  0.06657111840433319  0.1486861250741214  0.26407054426632476  1.0000
  C   C3        1.0  0.5665741400682264  0.6486922689458013  0.2359293112458971  1.0000
  C   C4        1.0  0.9334309408009672  0.8513149790276772  0.7359301407993613  1.0000
  C   C5        1.0  0.6769668060533078  0.3360738089085444  0.7269577006008987  1.0000
  C   C6        1.0  0.8230233759244073  0.16390803388655684  0.2269614414950638  1.0000
  C   C7        1.0  0.3230337461083153  0.663928806586874  0.27304133543116654  1.0000
  C   C8        1.0  0.176979945366071  0.8360900457120479  0.7730386938896673  1.0000
  C   C9        1.0  0.40285839446242017  0.917617234296955  0.0163517682438297  1.0000
  C   C10       1.0  0.09714717775295158  0.5823823566129178  0.5163524173252227  1.0000
  C   C11       1.0  0.5971451717749616  0.08238235838911832  0.9836478174642593  1.0000
  C   C12       1.0  0.9028598924609453  0.4176172394519995  0.48364826774032116  1.0000
  O   O1        1.0  0.4315745458952378  0.38752386327968935  0.8317291062508971  1.0000
  O   O2        1.0  0.06842579734389179  0.11247672402776494  0.33172600580987693  1.0000
  O   O3        1.0  0.5684252714210485  0.6124742129444911  0.16827047945461973  1.0000
  O   O4        1.0  0.9315777688981298  0.8875228686671479  0.6682746792547007  1.0000
  O   O5        1.0  0.856743614159626  0.3756887557677829  0.7726118667295623  1.0000
  O   O6        1.0  0.6432459358542602  0.124298358599539  0.2726082820214515  1.0000
  O   O7        1.0  0.1432564481058805  0.6243108335482931  0.2273877189775462  1.0000
  O   O8        1.0  0.3567561233487169  0.87570274549784  0.7273918533659867  1.0000
  O   O9        1.0  0.08307205860723602  0.33938628065714493  0.9348964215330965  1.0000
  O   O10       1.0  0.4169254061894208  0.1606144489569559  0.4348952607244314  1.0000
  O   O11       1.0  0.9169262516723294  0.6606133069739214  0.06510316417352872  1.0000
  O   O12       1.0  0.5830749010276293  0.8393866534554136  0.5651048746625236  1.0000
  O   O13       1.0  0.2552208963987184  0.3222022078906406  0.7212563068779618  1.0000
  O   O14       1.0  0.24478625752027477  0.17780114921735193  0.22125288662110168  1.0000
  O   O15       1.0  0.7447789209175609  0.6777958683335471  0.27874327882755523  1.0000
  O   O16       1.0  0.7552173087194234  0.8221984434731412  0.778747248765228  1.0000
  O   O17       1.0  0.417291170550115  0.7337992959598411  0.0024700120786036  1.0000
  O   O18       1.0  0.08270976342054581  0.7662046059611785  0.5024688260326684  1.0000
  O   O19       1.0  0.5827076296348465  0.2662033178682606  0.9975312226659483  1.0000
  O   O20       1.0  0.9172912786395245  0.23380103571801672  0.49753021000258724  1.0000
  O   O21       1.0  0.6913943678298579  0.2887483748395142  0.6618070428978201  1.0000
  O   O22       1.0  0.8085962441924508  0.21123847272496485  0.1617998778986021  1.0000
  O   O23       1.0  0.3086041873989274  0.7112527258834406  0.33819254281039696  1.0000
  O   O24       1.0  0.19140732204725444  0.7887611199655281  0.8382002574877279  1.0000
  O   O25       1.0  0.24219810977371034  0.9810135785599885  0.05460334709005111  1.0000
  O   O26       1.0  0.2578030191261007  0.5189896484935019  0.5546034074464146  1.0000
  O   O27       1.0  0.7577989384230007  0.018989033578691302  0.9453973379757629  1.0000
  O   O28       1.0  0.7421955361026847  0.4810114522294528  0.4453961782618024  1.0000
