data_image0
_chemical_formula_structural       Cd2H34C50N6O10
_chemical_formula_sum              "Cd2 H34 C50 N6 O10"
_cell_length_a       9.287235363619823
_cell_length_b       10.218327575261851
_cell_length_c       12.477
_cell_angle_alpha    76.79099796669155
_cell_angle_beta     89.00431673832256
_cell_angle_gamma    67.44098708921291

_space_group_name_H-M_alt    "P 1"
_space_group_IT_number       1

loop_
  _space_group_symop_operation_xyz
  'x, y, z'

loop_
  _atom_site_type_symbol
  _atom_site_label
  _atom_site_symmetry_multiplicity
  _atom_site_fract_x
  _atom_site_fract_y
  _atom_site_fract_z
  _atom_site_occupancy
  Cd  Cd1       1.0  0.2222190722599677  0.0711140266186874  0.2629631413154314  1.0000
  Cd  Cd2       1.0  0.7777807362471449  0.9288862388812477  0.7370366511812494  1.0000
  H   H1        1.0  0.37284552401543175  0.0110173739524413  0.5078435169669078  1.0000
  H   H2        1.0  0.6271532075823812  0.9889828915474936  0.4921570909338798  1.0000
  H   H3        1.0  0.37459850878455114  0.6135537563168398  0.7178145538257753  1.0000
  H   H4        1.0  0.6254037451360472  0.3864432341016624  0.2821842169848453  1.0000
  H   H5        1.0  0.15539030915290644  0.7824431558350753  0.3860827670459913  1.0000
  H   H6        1.0  0.8446068893675401  0.2175582013586705  0.613916854911885  1.0000
  H   H7        1.0  0.013610500297708895  0.3676912094899834  0.7140010689034709  1.0000
  H   H8        1.0  0.9863897643774635  0.6323079643161408  0.2859989219907959  1.0000
  H   H9        1.0  0.13332371595940634  0.20100375639089663  0.5888638658492696  1.0000
  H   H10       1.0  0.8666750156384069  0.7989965091090383  0.4111359405767985  1.0000
  H   H11       1.0  0.3093160781956854  0.2589541390224142  0.4507639667993289  1.0000
  H   H12       1.0  0.6906820326608879  0.7410450347837028  0.5492360519537272  1.0000
  H   H13       1.0  0.36551956909710265  0.4809380670956358  0.4375879895929984  1.0000
  H   H14       1.0  0.634479618668763  0.5190611067104882  0.5624112137559436  1.0000
  H   H15       1.0  0.8419994594484024  0.1714570633644641  0.2027133277748305  1.0000
  H   H16       1.0  0.15800142596801686  0.8285432021354708  0.7972880537418946  1.0000
  H   H17       1.0  0.6603230273871005  0.091530884293924  0.1149343460089227  1.0000
  H   H18       1.0  0.3396789349386112  0.908469381206011  0.885065418628976  1.0000
  H   H19       1.0  0.7756800409571127  0.8581401130772619  0.04756450723595407  1.0000
  H   H20       1.0  0.2243208444593066  0.141860152422673  0.9524360728060515  1.0000
  H   H21       1.0  0.009286203016713948  0.6424083154663549  0.031634593677907205  1.0000
  H   H22       1.0  0.9907155947358248  0.3575897666459582  0.9683671846339834  1.0000
  H   H23       1.0  0.2974687931034622  0.5110655412301384  0.0507415458713751  1.0000
  H   H24       1.0  0.7025325484810098  0.4889336325759785  0.949259232568217  1.0000
  H   H25       1.0  0.5612405643843772  0.5082304123999322  0.09099890032724998  1.0000
  H   H26       1.0  0.4387594086959081  0.4917720364876246  0.9090004814448704  1.0000
  H   H27       1.0  0.7230289397330765  0.6269149968840111  0.15586705310825977  1.0000
  H   H28       1.0  0.2769714895152759  0.3730863603097418  0.844132527061447  1.0000
  H   H29       1.0  0.584213787457422  0.8524556633972793  0.22813456064294263  1.0000
  H   H30       1.0  0.41578664179093033  0.1475456937964665  0.7718658210014838  1.0000
  H   H31       1.0  0.3186749356871416  0.2668547271411086  0.1334010048909775  1.0000
  H   H32       1.0  0.681324872819971  0.7331455383588263  0.8665987876057031  1.0000
  H   H33       1.0  0.1297892600908739  0.3329895382824759  0.12942515801930912  1.0000
  H   H34       1.0  0.8702110045842989  0.6670096355236481  0.870574832874958  1.0000
  C   C1        1.0  0.33887209614221814  0.9180959372417377  0.523543651062596  1.0000
  C   C2        1.0  0.6611287892741942  0.08190432825819731  0.4764561275046901  1.0000
  C   C3        1.0  0.38425143509056875  0.8142627553784507  0.6245101778889436  1.0000
  C   C4        1.0  0.61575036266197  0.1857353267338624  0.375489195998803  1.0000
  C   C5        1.0  0.3389740293314104  0.6964231419049938  0.6401296368371875  1.0000
  C   C6        1.0  0.6610283891623681  0.3035760319011302  0.3598687232488729  1.0000
  C   C7        1.0  0.25532354845829264  0.6818937889587957  0.5545685974320662  1.0000
  C   C8        1.0  0.7446782492942461  0.3181042931535174  0.44543077645568735  1.0000
  C   C9        1.0  0.21887512646663512  0.7898502983506646  0.45576613369705404  1.0000
  C   C10       1.0  0.7811240612992377  0.21014887545545952  0.5442338711266005  1.0000
  C   C11       1.0  0.21674411128477536  0.5520117010432699  0.564988677287687  1.0000
  C   C12       1.0  0.7832556972223372  0.447988564456665  0.4350111152090009  1.0000
  C   C13       1.0  0.11762138730829713  0.5189835964498215  0.643690699727614  1.0000
  C   C14       1.0  0.8823773442895088  0.4810166690501135  0.3563083052237417  1.0000
  C   C15       1.0  0.09102822954347538  0.3910054225427261  0.6527530889583772  1.0000
  C   C16       1.0  0.908972035131697  0.608993751263398  0.3472461004611773  1.0000
  C   C17       1.0  0.15853957344258163  0.2980007516023662  0.5835620814300952  1.0000
  C   C18       1.0  0.8414585374139846  0.7019984222037507  0.41643713584824144  1.0000
  C   C19       1.0  0.2569238514341876  0.3306544052182403  0.5055528128414936  1.0000
  C   C20       1.0  0.7430747155904455  0.6693436768940657  0.4944474043091418  1.0000
  C   C21       1.0  0.2864555397257647  0.4563061796116017  0.4970697085581008  1.0000
  C   C22       1.0  0.7135430272988685  0.5436919025007114  0.5029305085925345  1.0000
  C   C23       1.0  0.886881864545785  0.0726609567505392  0.1719013016372202  1.0000
  C   C24       1.0  0.11311840012938751  0.9273382170555848  0.8281002922064716  1.0000
  C   C25       1.0  0.7855514927280394  0.0260172469316799  0.12314461809886983  1.0000
  C   C26       1.0  0.21444877194713288  0.9739819268744441  0.8768561742701096  1.0000
  C   C27       1.0  0.8484638077220271  0.8987631315219886  0.08699401827326625  1.0000
  C   C28       1.0  0.1515364569531457  0.1012360422841354  0.9130067740957131  1.0000
  C   C29       1.0  0.012222617592165462  0.819702665644499  0.0983474847218559  1.0000
  C   C30       1.0  0.9877765701737076  0.180296508161625  0.9016541230512303  1.0000
  C   C31       1.0  0.10584393032993937  0.8773189899694955  0.1457203318114253  1.0000
  C   C32       1.0  0.8941563343452329  0.12268018383662851  0.8542812620322665  1.0000
  C   C33       1.0  0.08430423203143532  0.6861273775623999  0.06418748274456482  1.0000
  C   C34       1.0  0.9156944995663707  0.31387288793753504  0.935813125156223  1.0000
  C   C35       1.0  0.24305738056897744  0.6146410833537601  0.0740219703298024  1.0000
  C   C36       1.0  0.7569435048474347  0.3853591821461748  0.9259794111869157  1.0000
  C   C37       1.0  0.3418022120982441  0.6734877466050762  0.11513292668775685  1.0000
  C   C38       1.0  0.6582002063955343  0.3265114272010479  0.8848678378224407  1.0000
  C   C39       1.0  0.2745168731365766  0.8040947192118821  0.1523615151064845  1.0000
  C   C40       1.0  0.7254840122798356  0.1959055462880528  0.8476382634608087  1.0000
  C   C41       1.0  0.5066127910224196  0.6093212594070465  0.11796903377874202  1.0000
  C   C42       1.0  0.49338656131662617  0.3906800977866993  0.882029758845647  1.0000
  C   C43       1.0  0.5958298706455023  0.673985558983425  0.1550520892077714  1.0000
  C   C44       1.0  0.4041694816935432  0.3260157982103209  0.8449475048913231  1.0000
  C   C45       1.0  0.5189500397387334  0.800616582726299  0.19372669489311534  1.0000
  C   C46       1.0  0.481050389509619  0.1993847744674468  0.8062720838018791  1.0000
  C   C47       1.0  0.4914382696302369  0.8233838571791453  0.7096624216850174  1.0000
  C   C48       1.0  0.5085626157861753  0.1766164083207897  0.2903381583569882  1.0000
  C   C49       1.0  0.03007395324728173  0.6207152677246839  0.7148787109988464  1.0000
  C   C50       1.0  0.9699263114278907  0.3792839060814401  0.28512127989542085  1.0000
  N   N1        1.0  0.25793784928509916  0.9060632880439812  0.44082720727983127  1.0000
  N   N2        1.0  0.742063036131313  0.0939369774559538  0.559172571287462  1.0000
  N   N3        1.0  0.04148055022833571  0.0007521770365884  0.1828011046669786  1.0000
  N   N4        1.0  0.9585207913561362  0.9992469967695357  0.8172004752473256  1.0000
  N   N5        1.0  0.3639134889787812  0.8633114666655217  0.19210471817378058  1.0000
  N   N6        1.0  0.6360863195283314  0.1366887988344132  0.8078958757976197  1.0000
  O   O1        1.0  0.5456106900882746  0.9224179530441319  0.6780161925889773  1.0000
  O   O2        1.0  0.4543886622507785  0.0775834041496211  0.32198500445954903  1.0000
  O   O3        1.0  0.5218277639260548  0.7325047140910854  0.8025855407357696  1.0000
  O   O4        1.0  0.478173577658417  0.2674944597150386  0.19741443622910282  1.0000
  O   O5        1.0  0.9660560901981227  0.7563003641149919  0.666032451518909  1.0000
  O   O6        1.0  0.03394309756775019  0.243698809691125  0.3339667518300332  1.0000
  O   O7        1.0  0.022907326497097792  0.5643401992641301  0.8154604418262466  1.0000
  O   O8        1.0  0.9770924820100146  0.4356600662358048  0.184539350670434  1.0000
  O   O9        1.0  0.22335767267904322  0.2547030833178212  0.1080965228638817  1.0000
  O   O10       1.0  0.7766432127373764  0.7452971821821137  0.8919032557034114  1.0000
