data_image0
_chemical_formula_structural       Zn2H40C38N2O8
_chemical_formula_sum              "Zn2 H40 C38 N2 O8"
_cell_length_a       10.373191781617756
_cell_length_b       10.90219977974696
_cell_length_c       11.712084046401424
_cell_angle_alpha    83.96496716901326
_cell_angle_beta     81.41943878989194
_cell_angle_gamma    85.30607953506481

_space_group_name_H-M_alt    "P 1"
_space_group_IT_number       1

loop_
  _space_group_symop_operation_xyz
  'x, y, z'

loop_
  _atom_site_type_symbol
  _atom_site_label
  _atom_site_symmetry_multiplicity
  _atom_site_fract_x
  _atom_site_fract_y
  _atom_site_fract_z
  _atom_site_occupancy
  Zn  Zn1       1.0  0.6469616400595584  0.49373861831432453  0.49790943516894254  1.0000
  Zn  Zn2       1.0  0.3527934853006514  0.4726746872298193  0.5197828183849182  1.0000
  H   H1        1.0  0.4511077625760079  0.11770764149428461  0.42395619846928406  1.0000
  H   H2        1.0  0.3145636094259031  0.9819610974491724  0.8495114978580387  1.0000
  H   H3        1.0  0.20925373637954436  0.8610425873170796  0.8517535906507019  1.0000
  H   H4        1.0  0.3404169102628245  0.839885114144728  0.9350959389155944  1.0000
  H   H5        1.0  0.40068021853784325  0.7290189353400364  0.7556492357923544  1.0000
  H   H6        1.0  0.5024315183559054  0.8513860398201346  0.7517008516041771  1.0000
  H   H7        1.0  0.35215410052742147  0.986408145897897  0.6294730922747503  1.0000
  H   H8        1.0  0.2626175007781413  0.8548158359351561  0.6263616490075917  1.0000
  H   H9        1.0  0.7636023578337968  0.4036880970861248  0.6876232410133767  1.0000
  H   H10       1.0  0.7178505553522213  0.4021439814520775  0.9011860248831808  1.0000
  H   H11       1.0  0.8167361311992065  0.5514502094424857  0.002356947158269018  1.0000
  H   H12       1.0  0.5939251485282  0.8866740092207621  0.3846963359886856  1.0000
  H   H13       1.0  0.9709990940755444  0.6989991068140355  0.8888690406909135  1.0000
  H   H14       1.0  0.021866809921235113  0.6976600949869789  0.6762637568432268  1.0000
  H   H15       1.0  0.2696758697332625  0.6053812722941528  0.31957845992236855  1.0000
  H   H16       1.0  0.326515482865858  0.804208264421554  0.20983187280474166  1.0000
  H   H17       1.0  0.19172070219590856  0.998393445273663  0.25394342947336673  1.0000
  H   H18       1.0  0.9965950086822202  0.9897012997234783  0.406788976380561  1.0000
  H   H19       1.0  0.9398619902967906  0.7917093565862952  0.5170067657237496  1.0000
  H   H20       1.0  0.032175332690620506  0.7056599004325649  0.1787907551669932  1.0000
  H   H21       1.0  0.9530159231961193  0.6004837725292658  0.11182282493439999  1.0000
  H   H22       1.0  0.8949064712415546  0.7586117540125698  0.10838317741800553  1.0000
  H   H23       1.0  0.7669800400823233  0.9763827151774933  0.8739722806914969  1.0000
  H   H24       1.0  0.7451935350834943  0.6450824647816303  0.26059764674329233  1.0000
  H   H25       1.0  0.8412330888579618  0.7321468422881523  0.3294621484384521  1.0000
  H   H26       1.0  0.0010415000099186003  0.5246700926595054  0.3298723175615165  1.0000
  H   H27       1.0  0.8567569457013776  0.4551115388811411  0.3136435035572021  1.0000
  H   H28       1.0  0.11814052862073507  0.11981130688022289  0.6815434167336889  1.0000
  H   H29       1.0  0.9939046813837678  0.135258092945584  0.5909297323632642  1.0000
  H   H30       1.0  0.14085629132885907  0.043928092702266504  0.5526037980071193  1.0000
  H   H31       1.0  0.14548307017922468  0.24981811664763134  0.43217644934103555  1.0000
  H   H32       1.0  0.2680279687340175  0.2353178604062691  0.5240334644378919  1.0000
  H   H33       1.0  0.12223244086294464  0.35407616764064903  0.6684443810574691  1.0000
  H   H34       1.0  0.7570601905079214  0.8689788939199797  0.7721740377043388  1.0000
  H   H35       1.0  0.9937439447575542  0.35822564561916437  0.5828496246988948  1.0000
  H   H36       1.0  0.8813377155794057  0.9751696703689064  0.7450170421916907  1.0000
  H   H37       1.0  0.7043558545123147  0.1523991257683051  0.7325402006509802  1.0000
  H   H38       1.0  0.5851918056209512  0.04267809485017441  0.7542663072296774  1.0000
  H   H39       1.0  0.7096501200211662  0.9462436814592932  0.5724526880806946  1.0000
  H   H40       1.0  0.8021350722910795  0.079037316417093  0.548070201691118  1.0000
  C   C1        1.0  0.4654675670964891  0.7130584081684646  0.5087269961664731  1.0000
  C   C2        1.0  0.601265341138692  0.1133206110023934  0.5256174748914829  1.0000
  C   C3        1.0  0.5284620231767362  0.9248100510515941  0.4566205347795956  1.0000
  C   C4        1.0  0.5235863458312763  0.058376458262579  0.4667990959694136  1.0000
  C   C5        1.0  0.06874601400491542  0.566580726316438  0.4956246438299629  1.0000
  C   C6        1.0  0.9243747139789494  0.5537711671399846  0.5395371505783331  1.0000
  C   C7        1.0  0.7067092303997881  0.04471311641813  0.5868706887568108  1.0000
  C   C8        1.0  0.6877313670766155  0.05711508034028871  0.7180807899002415  1.0000
  C   C9        1.0  0.7781320321051696  0.9645809739922196  0.7808876837016072  1.0000
  C   C10       1.0  0.3600559391635159  0.884950664658696  0.6323415892893819  1.0000
  C   C11       1.0  0.40083891687884693  0.8303989617716068  0.7492429210849707  1.0000
  C   C12       1.0  0.5812235191231421  0.2507117593164381  0.5280741261669135  1.0000
  C   C13       1.0  0.3115625828329343  0.8809602456022174  0.8520746458409788  1.0000
  C   C14       1.0  0.8897605843012499  0.5554621180436854  0.6663381676261152  1.0000
  C   C15       1.0  0.8060328233594234  0.4707341759857115  0.7311313719358381  1.0000
  C   C16       1.0  0.7816623500594984  0.4690274391957985  0.8514074324239685  1.0000
  C   C17       1.0  0.8384072759259524  0.5524738614747805  0.9082774073933351  1.0000
  C   C18       1.0  0.9241493357820969  0.6353384004193714  0.8447724274966075  1.0000
  C   C19       1.0  0.9517807965619411  0.6352898900732881  0.7246870852485189  1.0000
  C   C20       1.0  0.10468167616816973  0.6847494479935107  0.42979376947247516  1.0000
  C   C21       1.0  0.2118501636489896  0.6899292336314744  0.34086075882353123  1.0000
  C   C22       1.0  0.24287709065312407  0.802036381142017  0.278502137230106  1.0000
  C   C23       1.0  0.5166929312127306  0.45306188875238707  0.28783728733674246  1.0000
  C   C24       1.0  0.16691256526456033  0.910623122811593  0.3027874254174421  1.0000
  C   C25       1.0  0.05779043751869042  0.9059166977962646  0.3886240719385228  1.0000
  C   C26       1.0  0.026080445235585607  0.7937897943724649  0.4510882179532132  1.0000
  C   C27       1.0  0.8936724578416458  0.5354184712402698  0.3446340300353795  1.0000
  C   C28       1.0  0.8455393834817215  0.6544160862431738  0.2761328475098779  1.0000
  C   C29       1.0  0.9363512627087403  0.6811542264810697  0.16243193802782935  1.0000
  C   C30       1.0  0.1001740808672054  0.3583171161596256  0.578816367330937  1.0000
  C   C31       1.0  0.1618012405956719  0.24266357707024608  0.5235313034435406  1.0000
  C   C32       1.0  0.10039217403300428  0.1289768735830705  0.590623404613261  1.0000
  C   C33       1.0  0.4388091605325569  0.46068344179356296  0.733043766813253  1.0000
  C   C34       1.0  0.5129378945254075  0.4397383814265581  0.16658526962093836  1.0000
  C   C35       1.0  0.4443878823937339  0.44605770062212696  0.8564946716016307  1.0000
  C   C36       1.0  0.4885420837841251  0.4371993584811306  0.06766910637129803  1.0000
  C   C37       1.0  0.46362315476627447  0.4393281087806784  0.9576814254722804  1.0000
  C   C38       1.0  0.4542324089866909  0.8465437328012371  0.5298452180577583  1.0000
  N   N1        1.0  0.15043860055332198  0.4736834837055001  0.5180274513296652  1.0000
  N   N2        1.0  0.8442780917895617  0.5352962771113923  0.46939479690227154  1.0000
  O   O1        1.0  0.575916249946026  0.6675411829410223  0.46208683059021627  1.0000
  O   O2        1.0  0.4672785965564971  0.3002299603877034  0.521539786872161  1.0000
  O   O3        1.0  0.36318879380615954  0.6538921751113022  0.5393171273116408  1.0000
  O   O4        1.0  0.6816965855555709  0.309629057228264  0.5352679739549089  1.0000
  O   O5        1.0  0.6255796651518182  0.45215729773437374  0.32420990636892083  1.0000
  O   O6        1.0  0.33386453132039406  0.4359341004564  0.6987583869661478  1.0000
  O   O7        1.0  0.4026116773222839  0.46699839785298275  0.3453961383710578  1.0000
  O   O8        1.0  0.5413694667469143  0.4989427292675471  0.6708284430764094  1.0000
