data_image0
_chemical_formula_structural       Cu2P4H28C36N4O12
_chemical_formula_sum              "Cu2 P4 H28 C36 N4 O12"
_cell_length_a       8.603806158992427
_cell_length_b       8.976566059347805
_cell_length_c       12.143653300375966
_cell_angle_alpha    99.72983901299432
_cell_angle_beta     106.80590054696653
_cell_angle_gamma    98.27972990757564

_space_group_name_H-M_alt    "P 1"
_space_group_IT_number       1

loop_
  _space_group_symop_operation_xyz
  'x, y, z'

loop_
  _atom_site_type_symbol
  _atom_site_label
  _atom_site_symmetry_multiplicity
  _atom_site_fract_x
  _atom_site_fract_y
  _atom_site_fract_z
  _atom_site_occupancy
  Cu  Cu1       1.0  0.3253834384376761  0.8211524010487923  0.5841887197146677  1.0000
  Cu  Cu2       1.0  0.6746143964951585  0.1788516242935856  0.4158136942565419  1.0000
  P   P1        1.0  0.3267655569427674  0.0479534114187956  0.8556224938487205  1.0000
  P   P2        1.0  0.6732430026236288  0.9520552409278411  0.14438268486969716  1.0000
  P   P3        1.0  0.6619637608446353  0.051834460768098695  0.647051688701687  1.0000
  P   P4        1.0  0.3380391242219858  0.9481649532016975  0.35294623493093974  1.0000
  H   H1        1.0  0.415107520628041  0.8661747825630143  0.956660148858802  1.0000
  H   H2        1.0  0.5849046859933436  0.1338338722739323  0.04334742002755827  1.0000
  H   H3        1.0  0.45686167055130505  0.12607998361216494  0.7003451081715041  1.0000
  H   H4        1.0  0.5431500113289828  0.8739263652233688  0.299653829925944  1.0000
  H   H5        1.0  0.9978086462182533  0.99973877106116  0.6846792791891047  1.0000
  H   H6        1.0  0.0021978938499743004  0.0002606440788355  0.3153243299712045  1.0000
  H   H7        1.0  0.715923877377179  0.18672767798467757  0.8966027767586765  1.0000
  H   H8        1.0  0.28407804973946327  0.8132728889257732  0.10339674325255997  1.0000
  H   H9        1.0  0.9663179416445614  0.2494923794419321  0.07320543789081309  1.0000
  H   H10       1.0  0.03368257047335276  0.7505128033115581  0.9267960195873283  1.0000
  H   H11       1.0  0.23501896320738064  0.19154325772965555  0.055293915619763795  1.0000
  H   H12       1.0  0.7649781582661247  0.8084630765243119  0.9447069955650776  1.0000
  H   H13       1.0  0.9739687263067296  0.853744255369051  0.4335688497626932  1.0000
  H   H14       1.0  0.026024403996231592  0.14624937667566934  0.5664296557837288  1.0000
  H   H15       1.0  0.6859284023782736  0.7562162762019397  0.43589291926757306  1.0000
  H   H16       1.0  0.3140632053544365  0.24377042925789988  0.5641011137505103  1.0000
  H   H17       1.0  0.6455175760513326  0.5749657756666764  0.564572259632058  1.0000
  H   H18       1.0  0.35447180558507796  0.4250163104697434  0.4354199172710125  1.0000
  H   H19       1.0  0.782363612196292  0.4269216982239996  0.7206142140043069  1.0000
  H   H20       1.0  0.21763259259476797  0.5730638581055841  0.27937731744333405  1.0000
  H   H21       1.0  0.038154447083393  0.36812974161419015  0.8444379604469247  1.0000
  H   H22       1.0  0.9618428291891304  0.6318662032125671  0.15556085613714285  1.0000
  H   H23       1.0  0.3563783847099344  0.3871550585385463  0.897715461114231  1.0000
  H   H24       1.0  0.6436233038760192  0.6128443514108994  0.10228962958181843  1.0000
  H   H25       1.0  0.6182346093401564  0.5072265149645007  0.87176457122888  1.0000
  H   H26       1.0  0.38176590675107047  0.49277866712893825  0.12823853392913517  1.0000
  H   H27       1.0  0.6100819812476317  0.6956592079043986  0.7375824856090814  1.0000
  H   H28       1.0  0.38991463932464404  0.30434481638786076  0.26241968086610973  1.0000
  C   C1        1.0  0.1330858820859149  0.09174161462204472  0.8687154808334369  1.0000
  C   C2        1.0  0.8669180226630643  0.9082624163009426  0.1312873467779312  1.0000
  C   C3        1.0  0.9901626118966433  0.0531832519287789  0.7699113254160607  1.0000
  C   C4        1.0  0.009840785991130486  0.9468184700225778  0.23009028596584358  1.0000
  C   C5        1.0  0.8398268853862305  0.08768131180993068  0.778734794176053  1.0000
  C   C6        1.0  0.1601752901943669  0.9123204104114037  0.2212632743500791  1.0000
  C   C7        1.0  0.832101431883004  0.15889757583283168  0.8886832640921511  1.0000
  C   C8        1.0  0.1678987759985304  0.8411006807258445  0.11131561603355068  1.0000
  C   C9        1.0  0.9741270160921545  0.19576486429279777  0.9880493752470513  1.0000
  C   C10       1.0  0.02587152832668954  0.8042368527980345  0.011952893830653025  1.0000
  C   C11       1.0  0.12389941771775881  0.1632199286944953  0.9781439227506467  1.0000
  C   C12       1.0  0.8761000906110324  0.8367806344655975  0.021859221468254458  1.0000
  C   C13       1.0  0.9515939540370083  0.7761532980851554  0.48971779608463345  1.0000
  C   C14       1.0  0.0483964931209044  0.2238391775385224  0.5102791944350429  1.0000
  C   C15       1.0  0.7909668260464001  0.71922529761337  0.4906068176445259  1.0000
  C   C16       1.0  0.20902406822698075  0.2807637167580593  0.5093857125871892  1.0000
  C   C17       1.0  0.7693315597014632  0.6200048545490804  0.5630693409936995  1.0000
  C   C18       1.0  0.23066293777441874  0.37997838944856716  0.436926493608027  1.0000
  C   C19       1.0  0.9085894985574541  0.5778298049895412  0.6361742561033168  1.0000
  C   C20       1.0  0.09140726688055877  0.42216383152562986  0.36382169657141356  1.0000
  C   C21       1.0  0.0652176693995514  0.6405160572445608  0.6291788207149053  1.0000
  C   C22       1.0  0.9347798553369342  0.35948104289307986  0.37081854438405054  1.0000
  C   C23       1.0  0.902776803188864  0.47797713844115464  0.7160815739783642  1.0000
  C   C24       1.0  0.09722046712369803  0.5220188073756802  0.28391477108588953  1.0000
  C   C25       1.0  0.04453555662740878  0.4434053220268764  0.783767458728242  1.0000
  C   C26       1.0  0.9554592929106533  0.5565906203696256  0.21623168670372916  1.0000
  C   C27       1.0  0.20379560279113207  0.5025572467427607  0.775869372551753  1.0000
  C   C28       1.0  0.7962034484889173  0.4974467793197093  0.22413411275541498  1.0000
  C   C29       1.0  0.2123654470448528  0.602221055147993  0.6983890596998563  1.0000
  C   C30       1.0  0.7876318850000954  0.39778066056269523  0.30161378572176284  1.0000
  C   C31       1.0  0.35437002106705506  0.4670987048512245  0.8391122975236626  1.0000
  C   C32       1.0  0.64562974168566  0.5329030126296743  0.16089186672993344  1.0000
  C   C33       1.0  0.5005592218218382  0.5329751810429286  0.8243073948982483  1.0000
  C   C34       1.0  0.49944129228273226  0.4670300013805359  0.1756948864198263  1.0000
  C   C35       1.0  0.49798618611478673  0.6353050611746555  0.7484201628133106  1.0000
  C   C36       1.0  0.5020106849081074  0.3647001180984617  0.2515813760167092  1.0000
  N   N1        1.0  0.08465554443876755  0.737576353972621  0.5575163358669711  1.0000
  N   N2        1.0  0.9153427415828475  0.2624242094574569  0.4424832654961506  1.0000
  N   N3        1.0  0.356857900550331  0.6669843355606132  0.6859893581842228  1.0000
  N   N4        1.0  0.6431389704725633  0.3330208437125036  0.3140121806457969  1.0000
  O   O1        1.0  0.31802352684324114  0.04164847682889669  0.7268287186878623  1.0000
  O   O2        1.0  0.6819833115013979  0.9583578654959909  0.2731749963050731  1.0000
  O   O3        1.0  0.32438511218913385  0.8819887718257603  0.8815519152659022  1.0000
  O   O4        1.0  0.6756280484089247  0.11801873073057578  0.1184524095619537  1.0000
  O   O5        1.0  0.4693211109530324  0.16849525555490164  0.9463407990232467  1.0000
  O   O6        1.0  0.5306828475817085  0.8315145465820419  0.053665233585732566  1.0000
  O   O7        1.0  0.5655000571598663  0.8864375121798744  0.6274556451341411  1.0000
  O   O8        1.0  0.4344996916862698  0.11356420761120489  0.3725427522398874  1.0000
  O   O9        1.0  0.5542238543842757  0.1738431358949342  0.6723645501181323  1.0000
  O   O10       1.0  0.4457814992826385  0.8261620536992282  0.3276313066245748  1.0000
  O   O11       1.0  0.7325318827214601  0.0810511950855357  0.5491820116053815  1.0000
  O   O12       1.0  0.26747464145352506  0.9189482226946595  0.4508150068354198  1.0000
