data_image0
_chemical_formula_structural       H44Pb2C40S4N4O12
_chemical_formula_sum              "H44 Pb2 C40 S4 N4 O12"
_cell_length_a       9.512307167188215
_cell_length_b       11.518701505266225
_cell_length_c       12.261629200338273
_cell_angle_alpha    66.11476964040452
_cell_angle_beta     71.74644161525089
_cell_angle_gamma    67.26065991887874

_space_group_name_H-M_alt    "P 1"
_space_group_IT_number       1

loop_
  _space_group_symop_operation_xyz
  'x, y, z'

loop_
  _atom_site_type_symbol
  _atom_site_label
  _atom_site_symmetry_multiplicity
  _atom_site_fract_x
  _atom_site_fract_y
  _atom_site_fract_z
  _atom_site_occupancy
  H   H1        1.0  0.14032748804527279  0.49643177908270514  0.4159668965488662  1.0000
  H   H2        1.0  0.8597195740642006  0.5035769910366454  0.5840573830315561  1.0000
  H   H3        1.0  0.04447035556602691  0.30909293985611436  0.5656783569815926  1.0000
  H   H4        1.0  0.9554989970748834  0.6909256620856823  0.4342681836293635  1.0000
  H   H5        1.0  0.1926762454246642  0.07633960370751679  0.5683412035587023  1.0000
  H   H6        1.0  0.8073190809621309  0.9236733871461668  0.431631052740549  1.0000
  H   H7        1.0  0.4365439951069234  0.035789605147840596  0.4148422214272783  1.0000
  H   H8        1.0  0.5634836383032465  0.9642109904506099  0.5851812405735614  1.0000
  H   H9        1.0  0.3677742713734134  0.5342920308599588  0.44698929959875494  1.0000
  H   H10       1.0  0.6322997263164822  0.4657275663530029  0.5529700353691067  1.0000
  H   H11       1.0  0.35983453122361203  0.609755937690629  0.6126089316874325  1.0000
  H   H12       1.0  0.6401260781551983  0.3902279448748017  0.38739414484388857  1.0000
  H   H13       1.0  0.2301864998368048  0.8465845303844758  0.6015425247525027  1.0000
  H   H14       1.0  0.7698122359151897  0.1534076393711103  0.39845327650402135  1.0000
  H   H15       1.0  0.10629041226188458  0.007524249145788498  0.42178906360758345  1.0000
  H   H16       1.0  0.8937197920329681  0.9924770717275347  0.5782149225999049  1.0000
  H   H17       1.0  0.7230148550775866  0.485726453774177  0.03740728192371993  1.0000
  H   H18       1.0  0.2770071083532598  0.5142602488244704  0.9626409840314023  1.0000
  H   H19       1.0  0.06395649770340842  0.5196981220397844  0.8067315322152734  1.0000
  H   H20       1.0  0.9360340964492552  0.4802901070330491  0.19328501640168133  1.0000
  H   H21       1.0  0.028470100543302086  0.685187086717711  0.8058152117176431  1.0000
  H   H22       1.0  0.971530463947474  0.31479824126031974  0.19420317659754716  1.0000
  H   H23       1.0  0.9431707676137082  0.660214343322508  0.7100580380670534  1.0000
  H   H24       1.0  0.05681090638417174  0.33978086096053767  0.28996705167380543  1.0000
  H   H25       1.0  0.6324771719176854  0.6978466563795249  0.9861051442020137  1.0000
  H   H26       1.0  0.3675216898786573  0.3021626608319393  0.013914131286696831  1.0000
  H   H27       1.0  0.6816980608880884  0.786762874261555  0.8289421648239425  1.0000
  H   H28       1.0  0.31832061650790433  0.21323762181999933  0.17107791864327024  1.0000
  H   H29       1.0  0.7790333591596335  0.7803147812865492  0.9350830045402956  1.0000
  H   H30       1.0  0.22098730898406424  0.21967373850689143  0.06493796792271667  1.0000
  H   H31       1.0  0.8965476901905024  0.752330159259557  0.17492871088058598  1.0000
  H   H32       1.0  0.10345117900563142  0.2476370943293063  0.8250800167215712  1.0000
  H   H33       1.0  0.7692581569665933  0.6384326922527209  0.32251353972741  1.0000
  H   H34       1.0  0.2307575671586903  0.3615798141349131  0.677512413413538  1.0000
  H   H35       1.0  0.5945962336625713  0.6403529536500017  0.2942582376437883  1.0000
  H   H36       1.0  0.4054466067228049  0.3596376321377761  0.7057423883055233  1.0000
  H   H37       1.0  0.5852706104577194  0.7303520943345985  0.38681100880258856  1.0000
  H   H38       1.0  0.414718606001351  0.26962223653298156  0.6132235372207473  1.0000
  H   H39       1.0  0.5410405771971016  0.9984409760061081  0.09165996732287607  1.0000
  H   H40       1.0  0.45894547626292587  0.0015512669470680984  0.9083651539546477  1.0000
  H   H41       1.0  0.4395867105219369  0.9424315492738199  0.24348668606786114  1.0000
  H   H42       1.0  0.5603890344920118  0.0575645949780608  0.7565371084565623  1.0000
  H   H43       1.0  0.45433572898527086  0.8686659832305562  0.13582489234282497  1.0000
  H   H44       1.0  0.5456924790949671  0.13129569855202305  0.8642111213196909  1.0000
  Pb  Pb1       1.0  0.8639288672683636  0.1434024141174675  0.06625959013793184  1.0000
  Pb  Pb2       1.0  0.1360222516768347  0.8565722649982559  0.9337242114789813  1.0000
  C   C1        1.0  0.579674654726091  0.20831740598882215  0.25027363400979397  1.0000
  C   C2        1.0  0.42029286208597944  0.791697208202116  0.7496773757006775  1.0000
  C   C3        1.0  0.42977202082720123  0.24007558547872782  0.33545276306525534  1.0000
  C   C4        1.0  0.5702203492803408  0.7599363868278527  0.6645206464176423  1.0000
  C   C5        1.0  0.3465546549722873  0.3720308573582684  0.33479657283862  1.0000
  C   C6        1.0  0.6534489499504091  0.6279812511224065  0.6651828803430389  1.0000
  C   C7        1.0  0.20660321059185094  0.39485520912882777  0.41736710531736065  1.0000
  C   C8        1.0  0.7934188744079121  0.6051561662322839  0.5826291106141567  1.0000
  C   C9        1.0  0.15176430432578777  0.2894414388091063  0.5005624892138412  1.0000
  C   C10       1.0  0.8482337109832727  0.7105735917342101  0.4994123633477373  1.0000
  C   C11       1.0  0.23371843049642393  0.15895849918351956  0.5017708141524578  1.0000
  C   C12       1.0  0.7662788896466213  0.841055544235239  0.4982070476326895  1.0000
  C   C13       1.0  0.37037191423744525  0.13585911713229848  0.41805195434759657  1.0000
  C   C14       1.0  0.6296366735716038  0.8641491083344657  0.5819391543037539  1.0000
  C   C15       1.0  0.2338489382266148  0.726193771080595  0.3449551555628361  1.0000
  C   C16       1.0  0.7662066139832788  0.2738306516813366  0.6550021287712012  1.0000
  C   C17       1.0  0.3077217523997079  0.6375145240803659  0.44313766469154786  1.0000
  C   C18       1.0  0.6923233801883201  0.3625018393815225  0.5568246079721673  1.0000
  C   C19       1.0  0.305157071054019  0.6805214088008353  0.535179085304982  1.0000
  C   C20       1.0  0.694844570438633  0.3194777283932878  0.4648075504752426  1.0000
  C   C21       1.0  0.23390395804037933  0.8138068746520303  0.5287352899147562  1.0000
  C   C22       1.0  0.7660973617697168  0.18619028568294738  0.4712554603943245  1.0000
  C   C23       1.0  0.16288641550044505  0.9027971089254124  0.4303998925741366  1.0000
  C   C24       1.0  0.8371316099735041  0.09720915806922648  0.5695846683432603  1.0000
  C   C25       1.0  0.15742005236280932  0.8603103718364835  0.3401742920280667  1.0000
  C   C26       1.0  0.8426079687109438  0.1397108930841995  0.6597961629617114  1.0000
  C   C27       1.0  0.061014253907949116  0.9544623499825916  0.24646498657104843  1.0000
  C   C28       1.0  0.9389493392419299  0.045557560964077495  0.7535388015065008  1.0000
  C   C29       1.0  0.8301805206851399  0.483104448387266  0.9679707254061894  1.0000
  C   C30       1.0  0.1698229626686399  0.5168829873309448  0.03206077779906742  1.0000
  C   C31       1.0  0.9785527862014192  0.6177903208689344  0.7987761416685968  1.0000
  C   C32       1.0  0.021441226152717298  0.3821979631897108  0.20124440469605526  1.0000
  C   C33       1.0  0.7279162672687678  0.7239036162438524  0.9126880316006946  1.0000
  C   C34       1.0  0.27209313116816264  0.276091821163959  0.08733558032025708  1.0000
  C   C35       1.0  0.79730722057527  0.8312614343723723  0.1360332177885936  1.0000
  C   C36       1.0  0.2026936625895175  0.1687128416116224  0.8639763395076511  1.0000
  C   C37       1.0  0.6516743661645706  0.6996822727972399  0.3068118048364069  1.0000
  C   C38       1.0  0.34833697296537036  0.30031420147167853  0.6932149851947994  1.0000
  C   C39       1.0  0.5150724915120151  0.9118320648079533  0.16538747793342884  1.0000
  C   C40       1.0  0.4849251702466475  0.08815932458473699  0.8346447923481431  1.0000
  S   S1        1.0  0.4209978252365332  0.5051784667099994  0.22979721006748116  1.0000
  S   S2        1.0  0.5789873193375996  0.4948332804625082  0.7701504031653881  1.0000
  S   S3        1.0  0.23112812937302618  0.673605183464076  0.22757978213712704  1.0000
  S   S4        1.0  0.7688892287212425  0.32642396002225377  0.7723862574609652  1.0000
  N   N1        1.0  0.844775278486047  0.6027859756686522  0.8958454364870431  1.0000
  N   N2        1.0  0.15522443087053972  0.3972024000329951  0.10418177279044023  1.0000
  N   N3        1.0  0.6598800758849138  0.8154149528901937  0.19977190913111542  1.0000
  N   N4        1.0  0.34012038519338017  0.18459451875095567  0.8002697361956306  1.0000
  O   O1        1.0  0.6443161852466305  0.3006195629476807  0.18967537858085137  1.0000
  O   O2        1.0  0.35564939291319325  0.6993929147197661  0.8102565666952228  1.0000
  O   O3        1.0  0.6371765889763452  0.09185414407507858  0.24118221536638626  1.0000
  O   O4        1.0  0.36277381709987816  0.9081612896145757  0.7587638828045156  1.0000
  O   O5        1.0  0.011266395161122511  0.07889742712549717  0.2320008198034173  1.0000
  O   O6        1.0  0.9885844001688893  0.9211089176636233  0.7680697500841092  1.0000
  O   O7        1.0  0.025808701644180684  0.9039494616077375  0.18688204410968007  1.0000
  O   O8        1.0  0.9742034895962063  0.09607268301751758  0.8130913049247821  1.0000
  O   O9        1.0  0.9280690068969835  0.3744885479302623  0.9604245628515427  1.0000
  O   O10       1.0  0.07192163905661182  0.6254967145488449  0.0395972055995557  1.0000
  O   O11       1.0  0.8163424163595605  0.9248923150241735  0.03937345489067944  1.0000
  O   O12       1.0  0.18366259388412937  0.07505585093607439  0.9606125807505914  1.0000
