data_image0
_chemical_formula_structural       Al2H5C20S2Cl4O10F
_chemical_formula_sum              "Al2 H5 C20 S2 Cl4 O10 F1"
_cell_length_a       6.622875189044547
_cell_length_b       11.181418127210263
_cell_length_c       12.713655583006203
_cell_angle_alpha    82.73530910183548
_cell_angle_beta     75.17406697570668
_cell_angle_gamma    71.50790723381408

_space_group_name_H-M_alt    "P 1"
_space_group_IT_number       1

loop_
  _space_group_symop_operation_xyz
  'x, y, z'

loop_
  _atom_site_type_symbol
  _atom_site_label
  _atom_site_symmetry_multiplicity
  _atom_site_fract_x
  _atom_site_fract_y
  _atom_site_fract_z
  _atom_site_occupancy
  Al  Al1       1.0  0.49913628301641216  0.501205393333045  0.5006859071854137  1.0000
  Al  Al2       1.0  0.0004573840354212739  0.49754919066354825  0.5020297714874502  1.0000
  H   H1        1.0  0.2899219789380467  0.3570493141928637  0.5842251515128468  1.0000
  H   H2        1.0  0.7099204980910443  0.6508053610819147  0.4376637276434039  1.0000
  H   H3        1.0  0.694936018895895  0.5578905709967615  0.1497304698636057  1.0000
  H   H4        1.0  0.2287223797384357  0.2326807241455597  0.3477125499142986  1.0000
  H   H5        1.0  0.43779908880118507  0.7637728206433535  0.35176190767735704  1.0000
  C   C1        1.0  0.862461074509845  0.2748056392395313  0.4906292131870131  1.0000
  C   C2        1.0  0.6607695394351865  0.5003590535520104  0.6962094768562039  1.0000
  C   C3        1.0  0.1330200768019481  0.7252405875340884  0.5081090450822856  1.0000
  C   C4        1.0  0.33314259985913  0.5032344991288511  0.3057877995648255  1.0000
  C   C5        1.0  0.4128759390063053  0.47743349111737393  0.884589600044137  1.0000
  C   C6        1.0  0.5746425189323574  0.5337648336828593  0.11892493532554481  1.0000
  C   C7        1.0  0.5924851531431301  0.5055195205543441  0.8148245863117225  1.0000
  C   C8        1.0  0.39427485974845683  0.5053525149079761  0.18653780335291972  1.0000
  C   C9        1.0  0.5786515894237139  0.5250813039431252  0.008532365918632913  1.0000
  C   C10       1.0  0.40133566415989447  0.4889266956006537  0.9952332436107981  1.0000
  C   C11       1.0  0.9324046545810843  0.13327246925103964  0.49281881196627353  1.0000
  C   C12       1.0  0.13300158231975695  0.0666680896844341  0.4232487478910585  1.0000
  C   C13       1.0  0.8027708461288937  0.0679159351225422  0.5642172106559116  1.0000
  C   C14       1.0  0.2719362953957187  0.13014088626574252  0.35081284607827  1.0000
  C   C15       1.0  0.4662127834227262  0.0637402964780449  0.28506393778591393  1.0000
  C   C16       1.0  0.060483011232506004  0.8667193187907218  0.5014388673756969  1.0000
  C   C17       1.0  0.867569211745433  0.9334452175967772  0.56902088830779  1.0000
  C   C18       1.0  0.1960333385067798  0.9315058053727868  0.426602077753536  1.0000
  C   C19       1.0  0.3915274047843622  0.8660095550435829  0.3546357830391785  1.0000
  C   C20       1.0  0.5258236656252604  0.9295840580486615  0.2863262868435541  1.0000
  S   S1        1.0  0.7525990616587848  0.5454266085415682  0.8857253310808063  1.0000
  S   S2        1.0  0.22825053942801793  0.46762001967194766  0.11763936054325802  1.0000
  Cl  Cl1       1.0  0.7106522313411432  0.8552352906001345  0.6631982016026187  1.0000
  Cl  Cl2       1.0  0.569309007025112  0.1466448401806133  0.6548537542575588  1.0000
  Cl  Cl3       1.0  0.6346346269700547  0.14417775673432942  0.2019217493398031  1.0000
  Cl  Cl4       1.0  0.7655207858804756  0.8446453763567664  0.20344498714311499  1.0000
  O   O1        1.0  0.6800706374001282  0.3321457555325509  0.46712483639406344  1.0000
  O   O2        1.0  0.8446451558130333  0.5197900957669505  0.6515189255517981  1.0000
  O   O3        1.0  0.00810619482935953  0.6700370415976238  0.4875294439011597  1.0000
  O   O4        1.0  0.4576986524141589  0.5319912736543914  0.3536807323136131  1.0000
  O   O5        1.0  0.3183743657349181  0.6718419664162952  0.5303876598026633  1.0000
  O   O6        1.0  0.15780958849241958  0.4744893756120946  0.3516505992301191  1.0000
  O   O7        1.0  0.9913700221850518  0.32604500862858293  0.5132363371191317  1.0000
  O   O8        1.0  0.5341076927044809  0.4751575581183687  0.6475628351469496  1.0000
  O   O9        1.0  0.2607053664524768  0.43959226689961645  0.546580333038321  1.0000
  O   O10       1.0  0.7412681590359893  0.5605634683610177  0.4543529781458844  1.0000
  F   F1        1.0  0.26605681450039503  0.439511696929017  0.8521570924018392  1.0000
