data_image0
_chemical_formula_structural       Al6H19C70N3O29
_chemical_formula_sum              "Al6 H19 C70 N3 O29"
_cell_length_a       11.18826021344596
_cell_length_b       11.828783440314238
_cell_length_c       27.13918475347576
_cell_angle_alpha    81.53779542346442
_cell_angle_beta     81.77800625153522
_cell_angle_gamma    65.79168073894624

_space_group_name_H-M_alt    "P 1"
_space_group_IT_number       1

loop_
  _space_group_symop_operation_xyz
  'x, y, z'

loop_
  _atom_site_type_symbol
  _atom_site_label
  _atom_site_symmetry_multiplicity
  _atom_site_fract_x
  _atom_site_fract_y
  _atom_site_fract_z
  _atom_site_occupancy
  Al  Al1       1.0  0.3918885819858104  0.39832000702886466  0.5137597159597576  1.0000
  Al  Al2       1.0  0.6698366127725918  0.424272102250967  0.49464075510971367  1.0000
  Al  Al3       1.0  0.4233020443976656  0.6598444779062123  0.49848027573066384  1.0000
  Al  Al4       1.0  0.9435990920790968  0.9375054969718026  0.9804019511213511  1.0000
  Al  Al5       1.0  0.911802597909137  0.6761498794228802  0.9978013448415268  1.0000
  Al  Al6       1.0  0.6657205971643657  0.9118292753032339  0.9947248988816495  1.0000
  H   H1        1.0  0.3051346314164859  0.7877105701411083  0.1962068008777464  1.0000
  H   H2        1.0  0.28009370321448296  0.45513203996237933  0.21938057855870596  1.0000
  H   H3        1.0  0.06308747853980623  0.5490377560717264  0.2915514055213605  1.0000
  H   H4        1.0  0.5404043903756985  0.03402870255415282  0.24271649602597725  1.0000
  H   H5        1.0  0.7575473249322966  0.9730234415912166  0.29826230141424753  1.0000
  H   H6        1.0  0.4258791605467351  0.2747983787513206  0.27882899844784237  1.0000
  H   H7        1.0  0.6134092090436808  0.9835097765049029  0.7463074576578705  1.0000
  H   H8        1.0  0.4524869086140626  0.9805298898768059  0.7534925541937552  1.0000
  H   H9        1.0  0.49957426319217285  0.06893621733071603  0.7005355060622447  1.0000
  H   H10       1.0  0.5557368711299943  0.36606666164998813  0.19464802622044164  1.0000
  H   H11       1.0  0.8868779007011014  0.06508289988311591  0.21418355429256755  1.0000
  H   H12       1.0  0.45706506101792843  0.758810574221677  0.7831941947909371  1.0000
  H   H13       1.0  0.7743047928161956  0.4392986415823118  0.7884173691133824  1.0000
  H   H14       1.0  0.9097958796639105  0.5405879226447897  0.7102499301642168  1.0000
  H   H15       1.0  0.8217191111804353  0.7607211602599907  0.7586654419062242  1.0000
  H   H16       1.0  0.08755299358617907  0.8811253615801253  0.26860370353402624  1.0000
  H   H17       1.0  0.4161662500112087  0.5695310757219687  0.2625369283215305  1.0000
  H   H18       1.0  0.26533076484206214  0.29437240047143126  0.558261482867529  1.0000
  H   H19       1.0  0.042917947802756394  0.06753513028530021  0.9374473478971763  1.0000
  C   C1        1.0  0.6169245657008275  0.28196058316839884  0.4365675368877503  1.0000
  C   C2        1.0  0.17904457467483317  0.6700318241667135  0.1937626201058009  1.0000
  C   C3        1.0  0.1184131692856738  0.600784893359176  0.2703880865814199  1.0000
  C   C4        1.0  0.6198681297836045  0.6274905993118765  0.4173833821381335  1.0000
  C   C5        1.0  0.1923003672615237  0.6650961492717473  0.2943871572273196  1.0000
  C   C6        1.0  0.2387559380845445  0.5493430319155054  0.23095503670727877  1.0000
  C   C7        1.0  0.31373594110635133  0.612734012398221  0.253684900782261  1.0000
  C   C8        1.0  0.15982824635671722  0.6772856967934262  0.1429627361039678  1.0000
  C   C9        1.0  0.2051496150229111  0.6580873923956504  0.3458966000379036  1.0000
  C   C10       1.0  0.7125829397392777  0.059708288403882606  0.2746655250098299  1.0000
  C   C11       1.0  0.5908263947722645  0.09476477580718523  0.24480849875862984  1.0000
  C   C12       1.0  0.6377729040970691  0.6734212223373677  0.2687279420585539  1.0000
  C   C13       1.0  0.6844815583090307  0.0999957301466594  0.10407669419441846  1.0000
  C   C14       1.0  0.6387256475295331  0.23692335137489812  0.3882821029482458  1.0000
  C   C15       1.0  0.784317117473016  0.11015413742674704  0.22898890503176964  1.0000
  C   C16       1.0  0.26914235707656786  0.6147060826705018  0.4388940808084882  1.0000
  C   C17       1.0  0.662868980154947  0.14537372909371982  0.19778323102276832  1.0000
  C   C18       1.0  0.7221785055788033  0.24360959916657524  0.24792136238101384  1.0000
  C   C19       1.0  0.6490282504804271  0.19226749990603056  0.29532992943645536  1.0000
  C   C20       1.0  0.5990987727981005  0.27849626025668067  0.218077126255352  1.0000
  C   C21       1.0  0.5280271249956812  0.22726692980766938  0.2638781400645057  1.0000
  C   C22       1.0  0.6718370625477232  0.12237263077680892  0.14738852788644147  1.0000
  C   C23       1.0  0.6381734843625606  0.664284133547561  0.31849011996489196  1.0000
  C   C24       1.0  0.6438485251198146  0.2155656430484499  0.3452801419755501  1.0000
  C   C25       1.0  0.633330280128369  0.7685118986759606  0.7231957859249858  1.0000
  C   C26       1.0  0.5579225391323632  0.7126260674391461  0.7667368200847591  1.0000
  C   C27       1.0  0.6897213252811126  0.680960541780202  0.891186960794812  1.0000
  C   C28       1.0  0.6188018852083772  0.28046997291356496  0.5787476434380636  1.0000
  C   C29       1.0  0.668694821522635  0.6330397429112582  0.6012994499232462  1.0000
  C   C30       1.0  0.7605068342185529  0.7127155590538055  0.752748505863771  1.0000
  C   C31       1.0  0.6838264662188747  0.6569218813610648  0.7967256373954112  1.0000
  C   C32       1.0  0.8098068813289312  0.5900786591639646  0.7267820756183524  1.0000
  C   C33       1.0  0.6854379629583746  0.6460997438146308  0.6957863106797005  1.0000
  C   C34       1.0  0.6384585033251966  0.6541554538363102  0.36416978768988884  1.0000
  C   C35       1.0  0.7356415328213258  0.5336635999649816  0.7696146411451252  1.0000
  C   C36       1.0  0.6087346359192124  0.5895293317552445  0.7404906968610303  1.0000
  C   C37       1.0  0.6859776127586129  0.6672439717002803  0.8478338443917864  1.0000
  C   C38       1.0  0.6793023477297595  0.6394913204807013  0.6447811497125358  1.0000
  C   C39       1.0  0.10495495051689813  0.6992514885601937  0.8625511869281864  1.0000
  C   C40       1.0  0.6388516838982454  0.6121965514438729  0.5547201815752274  1.0000
  C   C41       1.0  0.12237166926740163  0.6863190617390276  0.8177041773844919  1.0000
  C   C42       1.0  0.139650074895222  0.6742483665624875  0.7686325142805401  1.0000
  C   C43       1.0  0.1558780283588276  0.6646479431845693  0.7232881618365709  1.0000
  C   C44       1.0  0.180479052586243  0.6523875593415056  0.6742017865130663  1.0000
  C   C45       1.0  0.132333675636552  0.7863814874977212  0.25746534374544433  1.0000
  C   C46       1.0  0.20746828274178591  0.6407778463557181  0.6293306634109541  1.0000
  C   C47       1.0  0.6912540461951907  0.11826951192260543  0.8640571641515604  1.0000
  C   C48       1.0  0.6876259742815449  0.14599529902432104  0.8187216229660237  1.0000
  C   C49       1.0  0.6834605590522145  0.1721861234825326  0.7691055867922998  1.0000
  C   C50       1.0  0.6785400358648986  0.19197041134648177  0.7233534259102185  1.0000
  C   C51       1.0  0.6668629139909968  0.21355522520993023  0.6740503195875361  1.0000
  C   C52       1.0  0.26500342746849265  0.6143829003523181  0.5793632331989329  1.0000
  C   C53       1.0  0.6521706746120799  0.23403105134199367  0.629186673846732  1.0000
  C   C54       1.0  0.07376174731302837  0.716326398239531  0.053731389281395495  1.0000
  C   C55       1.0  0.6971264410745446  0.719808858307701  0.07450971801002028  1.0000
  C   C56       1.0  0.2524292886758203  0.7342396477739687  0.21799201788539335  1.0000
  C   C57       1.0  0.7175018825396791  0.052186657090885526  0.05601197222813427  1.0000
  C   C58       1.0  0.06023915710095191  0.7276960559754218  0.9133372787578579  1.0000
  C   C59       1.0  0.7115595291416169  0.7099277144204877  0.9376495090061849  1.0000
  C   C60       1.0  0.7150389144359081  0.06396857503613523  0.9145793796910339  1.0000
  C   C61       1.0  0.6631671956663181  0.6951080125326786  0.12687874531446394  1.0000
  C   C62       1.0  0.6501254316899502  0.6867855806732451  0.1727974746778429  1.0000
  C   C63       1.0  0.640062941218474  0.6793634669720492  0.22285987208958594  1.0000
  C   C64       1.0  0.791401913990981  0.31985832638590495  0.25046353727260134  1.0000
  C   C65       1.0  0.5342572067954023  0.9841545012927071  0.7262863706926126  1.0000
  C   C66       1.0  0.5298734177008909  0.5263934727481542  0.7327047243789906  1.0000
  C   C67       1.0  0.13182020518450344  0.6882950819474942  0.10030426140539112  1.0000
  C   C68       1.0  0.923656504386436  0.7828410378924249  0.22261129935561288  1.0000
  C   C69       1.0  0.2226619614734914  0.6457220378027915  0.38998145495818176  1.0000
  C   C70       1.0  0.05618497553813726  0.723167593719481  0.23468976734315558  1.0000
  N   N1        1.0  0.8490192981790088  0.38140429667539183  0.2533107970189263  1.0000
  N   N2        1.0  0.46476958638540816  0.4754147375760596  0.7256129319637524  1.0000
  N   N3        1.0  0.815619089902398  0.8349568035323078  0.21170364406454914  1.0000
  O   O1        1.0  0.29077406172520165  0.5059129720231398  0.459145228816638  1.0000
  O   O2        1.0  0.618440062352711  0.8196479761652431  0.05191307756104637  1.0000
  O   O3        1.0  0.6275693396434433  0.032941923334576004  0.037753750530555394  1.0000
  O   O4        1.0  0.5091152511538084  0.2957333512617454  0.4619196236389271  1.0000
  O   O5        1.0  0.823160285696609  0.04889721367296571  0.9292285299432732  1.0000
  O   O6        1.0  0.03931698479110674  0.835590861599357  0.9231286276724759  1.0000
  O   O7        1.0  0.040155985980902434  0.6412758163120673  0.9437044097432972  1.0000
  O   O8        1.0  0.8146818089035007  0.6331705098403477  0.9582954514600316  1.0000
  O   O9        1.0  0.6311588148126926  0.8130741776224967  0.9538218177785892  1.0000
  O   O10       1.0  0.6259903885876665  0.03056168663022162  0.9396304456235001  1.0000
  O   O11       1.0  0.839284440396959  0.8405747574575884  0.9906370858001522  1.0000
  O   O12       1.0  0.7173761344955947  0.5125576576549238  0.5351994083437219  1.0000
  O   O13       1.0  0.7083592005453027  0.30955082474545054  0.44896084978331885  1.0000
  O   O14       1.0  0.7032909108126403  0.5266388387976662  0.4372379673209892  1.0000
  O   O15       1.0  0.5161574449889482  0.7038966486576329  0.4398686871465856  1.0000
  O   O16       1.0  0.2905688689850334  0.6991681914705411  0.4568638203977713  1.0000
  O   O17       1.0  0.28026796799279907  0.5115461964244618  0.565687175207266  1.0000
  O   O18       1.0  0.5030755279163657  0.3033687105252697  0.569816412183151  1.0000
  O   O19       1.0  0.7089133264396422  0.29941174204412146  0.5477526255996563  1.0000
  O   O20       1.0  0.5826015430048981  0.8815487347905916  0.6960313914941522  1.0000
  O   O21       1.0  0.5320432925169244  0.6909538723390015  0.5373767677698423  1.0000
  O   O22       1.0  0.3011589912562725  0.6977457052818681  0.55377022745121  1.0000
  O   O23       1.0  0.4961402426367696  0.4954478592252445  0.5022833629288144  1.0000
  O   O24       1.0  0.8333030487343295  0.02869807349371461  0.03615034342183778  1.0000
  O   O25       1.0  0.056386147743062054  0.8207228501354962  0.02980374090696361  1.0000
  O   O26       1.0  0.03877398273829872  0.6333284905345736  0.0417736379832405  1.0000
  O   O27       1.0  0.8066906883370563  0.643495729150942  0.055663362953865224  1.0000
  O   O28       1.0  0.2993628806138913  0.3075191244875129  0.5240937862862366  1.0000
  O   O29       1.0  0.0415807467893003  0.0232227250630714  0.9702878823795658  1.0000
