data_image0
_chemical_formula_structural       Ca4H24C24S4O24
_chemical_formula_sum              "Ca4 H24 C24 S4 O24"
_cell_length_a       7.529486303226191
_cell_length_b       8.003337592003142
_cell_length_c       15.177441278120355
_cell_angle_alpha    89.99998986998474
_cell_angle_beta     102.96955372225808
_cell_angle_gamma    89.99990395842268

_space_group_name_H-M_alt    "P 1"
_space_group_IT_number       1

loop_
  _space_group_symop_operation_xyz
  'x, y, z'

loop_
  _atom_site_type_symbol
  _atom_site_label
  _atom_site_symmetry_multiplicity
  _atom_site_fract_x
  _atom_site_fract_y
  _atom_site_fract_z
  _atom_site_occupancy
  Ca  Ca1       1.0  0.9725486815603261  0.3985965402275654  0.876946358368123  1.0000
  Ca  Ca2       1.0  0.5274526398558591  0.8985959204363927  0.12305424454147837  1.0000
  Ca  Ca3       1.0  0.027451485295941297  0.6014040521501302  0.1230538122843186  1.0000
  Ca  Ca4       1.0  0.47254888532071243  0.10140342246138093  0.8769467384173595  1.0000
  H   H1        1.0  0.9325272041242698  0.14514619954454136  0.06768281087891381  1.0000
  H   H2        1.0  0.5674732419993942  0.6451452397193481  0.9323177155049649  1.0000
  H   H3        1.0  0.0674743256004362  0.8548581412682172  0.9323175137171731  1.0000
  H   H4        1.0  0.4325282877289141  0.35485535265725343  0.0676826090916904  1.0000
  H   H5        1.0  0.0503157660533589  0.7038774194062541  0.7826770939144155  1.0000
  H   H6        1.0  0.4496830491091471  0.20387705152471375  0.21732261317969662  1.0000
  H   H7        1.0  0.9496830379308744  0.2961231729725498  0.21732292279380513  1.0000
  H   H8        1.0  0.5503157594280239  0.7961235408541969  0.7826767451665333  1.0000
  H   H9        1.0  0.23213925564516558  0.6016149392079345  0.7878448399453646  1.0000
  H   H10       1.0  0.26786111456525674  0.10161485921050682  0.21215571069181044  1.0000
  H   H11       1.0  0.7678622740819422  0.39838690264738136  0.212155484651106  1.0000
  H   H12       1.0  0.7321376894177691  0.8983869826470113  0.7878443060162185  1.0000
  H   H13       1.0  0.33829272342175903  0.07475846272022581  0.4779283306556437  1.0000
  H   H14       1.0  0.1617090749847421  0.5747587445367232  0.5220704070432731  1.0000
  H   H15       1.0  0.6617088108630894  0.9252383812203323  0.5220713355796036  1.0000
  H   H16       1.0  0.8382951850417727  0.42524059835906786  0.4779295670800323  1.0000
  H   H17       1.0  0.623273126361454  0.728381769722006  0.6396390525889117  1.0000
  H   H18       1.0  0.8767258013143008  0.22838396663294705  0.36036063606330526  1.0000
  H   H19       1.0  0.3767270450513536  0.27161507421964615  0.36036045970212166  1.0000
  H   H20       1.0  0.1232757238622781  0.7716153762648265  0.6396403468955256  1.0000
  H   H21       1.0  0.40539504276906513  0.1607674992751313  0.6399320433614832  1.0000
  H   H22       1.0  0.0946011386866559  0.6607691916297899  0.3600660522881824  1.0000
  H   H23       1.0  0.5946037748775764  0.8392293446678352  0.3600659982613621  1.0000
  H   H24       1.0  0.9053990281696115  0.3392314007479129  0.639934118364252  1.0000
  C   C1        1.0  0.8027711643774184  0.14421170038374953  0.016104013236805836  1.0000
  C   C2        1.0  0.6972251903715615  0.6442142671562651  0.9838967099613073  1.0000
  C   C3        1.0  0.1972262721818367  0.8557888919960424  0.9838965078891703  1.0000
  C   C4        1.0  0.3027722416323542  0.3557888241808486  0.016104469526276005  1.0000
  C   C5        1.0  0.4896771566751354  0.4074907549489951  0.6124286061105976  1.0000
  C   C6        1.0  0.010323992524902802  0.9074925705092131  0.3875713466762889  1.0000
  C   C7        1.0  0.5103243821614498  0.5925073384703838  0.3875704017624813  1.0000
  C   C8        1.0  0.9896748069039845  0.09251052082692013  0.6124293283935316  1.0000
  C   C9        1.0  0.5209057152438348  0.5255439899232572  0.5467549307870243  1.0000
  C   C10       1.0  0.9790922352195818  0.0255459939506295  0.45324532424142205  1.0000
  C   C11       1.0  0.4790917304224962  0.47445535297803343  0.45324427361518366  1.0000
  C   C12       1.0  0.0209079270837478  0.9744545984269594  0.5467555047729961  1.0000
  C   C13       1.0  0.3884134818380147  0.20023107302014154  0.4966216661508866  1.0000
  C   C14       1.0  0.1115880660813744  0.7002326895848371  0.5033783499451658  1.0000
  C   C15       1.0  0.6115866941253287  0.7997682698790528  0.5033771877777724  1.0000
  C   C16       1.0  0.8884134545386572  0.2997704017489796  0.49662329137507294  1.0000
  C   C17       1.0  0.5884305058200852  0.689246886217312  0.5693584938004861  1.0000
  C   C18       1.0  0.9115685016974453  0.18924650528169457  0.43064054844420946  1.0000
  C   C19       1.0  0.41156693984744663  0.3107512072052573  0.4306407106019066  1.0000
  C   C20       1.0  0.0884330325850016  0.8107528376162991  0.5693591177906612  1.0000
  C   C21       1.0  0.4266163806678378  0.24817477519059855  0.5882683140246456  1.0000
  C   C22       1.0  0.07338507501778929  0.7481777327258075  0.4117316874264176  1.0000
  C   C23       1.0  0.5733824278741364  0.7518208192734338  0.4117310443223516  1.0000
  C   C24       1.0  0.9266164547129208  0.2518203606933582  0.5882686371706285  1.0000
  S   S1        1.0  0.533337315022564  0.4608159533496521  0.7292980754818572  1.0000
  S   S2        1.0  0.9666598026331599  0.9608170908308156  0.2707013882274083  1.0000
  S   S3        1.0  0.4666628609407795  0.5391833895495495  0.270700778446809  1.0000
  S   S4        1.0  0.0333376384790327  0.03918350154908271  0.7292984745365914  1.0000
  O   O1        1.0  0.4242618840120543  0.6116231211559864  0.7377655776918103  1.0000
  O   O2        1.0  0.0757371177338655  0.11162082738048443  0.2622328408584522  1.0000
  O   O3        1.0  0.5757382965030188  0.38837747122204297  0.2622326178746803  1.0000
  O   O4        1.0  0.9242616816974304  0.8883797649982059  0.7377678342117518  1.0000
  O   O5        1.0  0.661365254840561  0.08423058227559473  0.03639463838275958  1.0000
  O   O6        1.0  0.8386366804488289  0.5842291850390213  0.963604743828611  1.0000
  O   O7        1.0  0.3386362839924146  0.9157712595799413  0.9636043694897438  1.0000
  O   O8        1.0  0.16136620760218523  0.41576765890021516  0.036396393074824084  1.0000
  O   O9        1.0  0.7297682803737332  0.4948253552387387  0.7573665498861573  1.0000
  O   O10       1.0  0.7702301210675772  0.9948280609091856  0.24263503246459087  1.0000
  O   O11       1.0  0.270231891035472  0.5051752371390706  0.2426329624043007  1.0000
  O   O12       1.0  0.2297686783625181  0.005173780948226202  0.7573656426054214  1.0000
  O   O13       1.0  0.119767042254658  0.6056833263415201  0.8111461634152661  1.0000
  O   O14       1.0  0.38023332012929967  0.10568307749328915  0.1888543859792122  1.0000
  O   O15       1.0  0.8802344920253802  0.3943185155139092  0.18885350281922086  1.0000
  O   O16       1.0  0.6197641209816921  0.8943187643653306  0.8111454767845956  1.0000
  O   O17       1.0  0.8002716493863531  0.20209364621172202  0.9378531194575997  1.0000
  O   O18       1.0  0.6997273288645546  0.7020927761803935  0.06214657722500763  1.0000
  O   O19       1.0  0.19972715914961006  0.797908195645903  0.062146238888445296  1.0000
  O   O20       1.0  0.30027147512087987  0.29790656671968213  0.9378534394834048  1.0000
  O   O21       1.0  0.4749163239557035  0.31652119117180894  0.7748043481864642  1.0000
  O   O22       1.0  0.025079544210989003  0.8165192906629604  0.2251956749734774  1.0000
  O   O23       1.0  0.525083842900564  0.6834794012058936  0.2251958224659703  1.0000
  O   O24       1.0  0.9749178923482729  0.18348130171683152  0.7748048461525059  1.0000
