data_image0
_chemical_formula_structural       Zn2H32C42N4O10
_chemical_formula_sum              "Zn2 H32 C42 N4 O10"
_cell_length_a       8.840652939689075
_cell_length_b       9.630672547320021
_cell_length_c       13.57876325397235
_cell_angle_alpha    102.55785357353801
_cell_angle_beta     97.09625435782908
_cell_angle_gamma    112.09739446020819

_space_group_name_H-M_alt    "P 1"
_space_group_IT_number       1

loop_
  _space_group_symop_operation_xyz
  'x, y, z'

loop_
  _atom_site_type_symbol
  _atom_site_label
  _atom_site_symmetry_multiplicity
  _atom_site_fract_x
  _atom_site_fract_y
  _atom_site_fract_z
  _atom_site_occupancy
  Zn  Zn1       1.0  0.8441068721594719  0.560654228444008  0.7418508855528289  1.0000
  Zn  Zn2       1.0  0.15589586122923998  0.43934822601766393  0.25814907195304215  1.0000
  H   H1        1.0  0.3739291801457014  0.0762216530416069  0.7810235388310716  1.0000
  H   H2        1.0  0.6260746402299447  0.923783140880083  0.2189783396803406  1.0000
  H   H3        1.0  0.007251501909216439  0.7760454573519624  0.4995943869423556  1.0000
  H   H4        1.0  0.9927500508380123  0.2239593632418533  0.500407324873855  1.0000
  H   H5        1.0  0.4384129004380384  0.1814808662146135  0.49379396008967547  1.0000
  H   H6        1.0  0.5615881734880617  0.8185204316862523  0.50620642781805  1.0000
  H   H7        1.0  0.24077901258218048  0.14478702062056206  0.3486464394512083  1.0000
  H   H8        1.0  0.7592231215632523  0.8552166169906171  0.6513536580837141  1.0000
  H   H9        1.0  0.16155919742942593  0.9719160418388878  0.24077657790877532  1.0000
  H   H10       1.0  0.8384429545610743  0.028087595605420297  0.7592249938783767  1.0000
  H   H11       1.0  0.3622755107189591  0.0318454749579971  0.324375530102337  1.0000
  H   H12       1.0  0.6377249639638691  0.9681570060923759  0.67562499783444  1.0000
  H   H13       1.0  0.06974500650922269  0.6874634435036029  0.9586328551103024  1.0000
  H   H14       1.0  0.9302561320892265  0.3125355014343185  0.04136716939171952  1.0000
  H   H15       1.0  0.30547497777894966  0.6503698679722234  0.04781299452749721  1.0000
  H   H16       1.0  0.694525626248563  0.3496279071522679  0.952186806597865  1.0000
  H   H17       1.0  0.22811242395847126  0.28726766311309854  0.7690884463509136  1.0000
  H   H18       1.0  0.7718859860355067  0.712727785637142  0.23091156179965824  1.0000
  H   H19       1.0  0.9872497563926005  0.3340887547879205  0.693613808218913  1.0000
  H   H20       1.0  0.012750248391640047  0.6659102034860707  0.30638613293550776  1.0000
  H   H21       1.0  0.4667714890297034  0.3594072006203533  0.9065056949045315  1.0000
  H   H22       1.0  0.5332274466126776  0.6405894180267636  0.09349379949657079  1.0000
  H   H23       1.0  0.927927143030708  0.8113715715020434  0.9472283725316119  1.0000
  H   H24       1.0  0.0720684357817092  0.1886250867360957  0.052774557457262006  1.0000
  H   H25       1.0  0.7892240517841173  0.9661902250658156  0.03635828086217429  1.0000
  H   H26       1.0  0.2107687159064184  0.03380529011445079  0.9636435219287165  1.0000
  H   H27       1.0  0.37448468339984237  0.735762141074396  0.7667222330019142  1.0000
  H   H28       1.0  0.6255136262316513  0.2642356609725239  0.23327519004988767  1.0000
  H   H29       1.0  0.524844293763401  0.5768988663581567  0.6942338483586852  1.0000
  H   H30       1.0  0.4751573526383766  0.42310124864350473  0.30576418814163736  1.0000
  H   H31       1.0  0.3591103872896326  0.9296463345743716  0.8996795912592078  1.0000
  H   H32       1.0  0.6408872495037058  0.0703550036684248  0.10031759810123479  1.0000
  C   C1        1.0  0.42068955524121787  0.1409031689430407  0.6419953093262477  1.0000
  C   C2        1.0  0.579313178147494  0.8590992855186385  0.3580046481796231  1.0000
  C   C3        1.0  0.32879557711702745  0.046698584332645496  0.697701723954289  1.0000
  C   C4        1.0  0.671207699765155  0.9533050398590318  0.30229919405435624  1.0000
  C   C5        1.0  0.1795698851830209  0.91523989059673  0.6463965277706903  1.0000
  C   C6        1.0  0.8204333916991616  0.08476373359495426  0.35360439023794743  1.0000
  C   C7        1.0  0.12324383834237544  0.8784360473374733  0.5394521713235179  1.0000
  C   C8        1.0  0.8767583136481323  0.12156759010684232  0.4605494004636412  1.0000
  C   C9        1.0  0.21470255422655535  0.9737583379969905  0.4837089375475543  1.0000
  C   C10       1.0  0.7852985286220858  0.026242959820443397  0.5162921874862931  1.0000
  C   C11       1.0  0.36387470478072004  0.10529056758610979  0.5346047686737521  1.0000
  C   C12       1.0  0.6361275029595957  0.8947107169786929  0.46539570258158136  1.0000
  C   C13       1.0  0.5787130363561204  0.2824518642504756  0.699068355785478  1.0000
  C   C14       1.0  0.4212902316035212  0.7175517600246408  0.30093182509704525  1.0000
  C   C15       1.0  0.07978238523911325  0.8151325611402669  0.706544497244451  1.0000
  C   C16       1.0  0.9202192321804574  0.18486990649060428  0.2934568511660487  1.0000
  C   C17       1.0  0.2350333670110843  0.026375089996839997  0.32078054013999246  1.0000
  C   C18       1.0  0.7649682414859527  0.9736273777174703  0.6792200711443925  1.0000
  C   C19       1.0  0.10842027391045411  0.5996939569909544  0.9192148838853457  1.0000
  C   C20       1.0  0.8915791963028499  0.40030383146959275  0.08078483389241603  1.0000
  C   C21       1.0  0.2424777827775486  0.5801593173398912  0.9682197871971355  1.0000
  C   C22       1.0  0.7575200190506167  0.41983731464328855  0.03177962385636591  1.0000
  C   C23       1.0  0.294149141812504  0.46980130925494723  0.9141012670266093  1.0000
  C   C24       1.0  0.7058503373233409  0.5301964791221677  0.085899187877267  1.0000
  C   C25       1.0  0.19730572642635022  0.3774380678966267  0.8140957060900432  1.0000
  C   C26       1.0  0.8026920932468826  0.622558563919682  0.18590517921569463  1.0000
  C   C27       1.0  0.06373190758282726  0.40400023745688424  0.7708271500538046  1.0000
  C   C28       1.0  0.9362669633872046  0.5959987341531771  0.22917270775300844  1.0000
  C   C29       1.0  0.4438699735303331  0.4525519735475071  0.9552490112374058  1.0000
  C   C30       1.0  0.556128962112041  0.5474446450996024  0.04475048316370327  1.0000
  C   C31       1.0  0.8031627985997931  0.795350917630202  0.9113564919690305  1.0000
  C   C32       1.0  0.1968316196308137  0.20464575419430278  0.0886441432938909  1.0000
  C   C33       1.0  0.726474689613795  0.8839512578555357  0.959436994886616  1.0000
  C   C34       1.0  0.2735180602316661  0.11604425749159467  0.040563333652045196  1.0000
  C   C35       1.0  0.5681165705544515  0.8649711332304333  0.9080925978520754  1.0000
  C   C36       1.0  0.43187780306348594  0.13502553901123798  0.09190435178025778  1.0000
  C   C37       1.0  0.4962399419460937  0.7543058495012714  0.8098625515622544  1.0000
  C   C38       1.0  0.5037572427937249  0.24569196579827954  0.1901355252680617  1.0000
  C   C39       1.0  0.5789779814903397  0.6664566362421097  0.7689387630709916  1.0000
  C   C40       1.0  0.42102088055715825  0.3335423354513765  0.2310603576096995  1.0000
  C   C41       1.0  0.4758417782524944  0.9509602970541662  0.9514186963781912  1.0000
  C   C42       1.0  0.5241541901556986  0.04903988471125589  0.04857818625799131  1.0000
  N   N1        1.0  0.021147268691613905  0.5156496240730846  0.8214998591608591  1.0000
  N   N2        1.0  0.9788538699068428  0.4843493208648437  0.17850016534116261  1.0000
  N   N3        1.0  0.7310759626670915  0.6867969985239171  0.81832973773259  1.0000
  N   N4        1.0  0.268921230995268  0.31320081669219485  0.18166907622384088  1.0000
  O   O1        1.0  0.6543519268636118  0.37248559645679086  0.6453286385645569  1.0000
  O   O2        1.0  0.3456519871665832  0.6275144918727447  0.35466956463098137  1.0000
  O   O3        1.0  0.6297647331292281  0.31027795548678216  0.7947516653035862  1.0000
  O   O4        1.0  0.37023673710058347  0.6897292182368486  0.2052489356660914  1.0000
  O   O5        1.0  0.117703132482056  0.8597831659163403  0.8041544931943746  1.0000
  O   O6        1.0  0.8822984760149809  0.1402193017979698  0.1958461180900031  1.0000
  O   O7        1.0  0.9571047067868436  0.6845211858038169  0.6519482680721823  1.0000
  O   O8        1.0  0.04289857009533899  0.31548243838786044  0.34805264993645585  1.0000
  O   O9        1.0  0.14801208696431434  0.928896761014272  0.37958384822352537  1.0000
  O   O10       1.0  0.851991198840402  0.07110686309397347  0.6204178069112345  1.0000
