data_image0
_chemical_formula_structural       Mn3H12C21O15
_chemical_formula_sum              "Mn3 H12 C21 O15"
_cell_length_a       9.241604252890061
_cell_length_b       9.220982533039061
_cell_length_c       10.413845918289597
_cell_angle_alpha    90.01364109335066
_cell_angle_beta     90.01214209223576
_cell_angle_gamma    119.87578240584935

_space_group_name_H-M_alt    "P 1"
_space_group_IT_number       1

loop_
  _space_group_symop_operation_xyz
  'x, y, z'

loop_
  _atom_site_type_symbol
  _atom_site_label
  _atom_site_symmetry_multiplicity
  _atom_site_fract_x
  _atom_site_fract_y
  _atom_site_fract_z
  _atom_site_occupancy
  Mn  Mn1       1.0  0.9984125042954947  0.9981627807119725  0.5018846670952753  1.0000
  Mn  Mn2       1.0  0.0016767752011831076  0.9996208623595424  0.16460032613500178  1.0000
  Mn  Mn3       1.0  0.9997598807104281  0.0009877998235838425  0.8335587628679519  1.0000
  H   H1        1.0  0.6315388419197491  0.8887284563025518  0.37754077261997304  1.0000
  H   H2        1.0  0.11116750770877812  0.7423689360033735  0.0426464693748372  1.0000
  H   H3        1.0  0.25799121841408384  0.37015350667107333  0.7089937112757523  1.0000
  H   H4        1.0  0.8886320746733818  0.6309190696857032  0.6231949757330709  1.0000
  H   H5        1.0  0.7422752497107226  0.11217844287845233  0.9580578915922118  1.0000
  H   H6        1.0  0.3682870260590789  0.2572716006292239  0.2895031065585059  1.0000
  H   H7        1.0  0.4086735538769374  0.9228668921396945  0.4691927689884706  1.0000
  H   H8        1.0  0.07649775631403344  0.4848011073738762  0.13397773714376626  1.0000
  H   H9        1.0  0.5147476466846757  0.5917006813319788  0.8006599277977315  1.0000
  H   H10       1.0  0.9234984549641825  0.4082923728667682  0.5314907513021367  1.0000
  H   H11       1.0  0.48520483311048673  0.0770690434506136  0.8665917175750975  1.0000
  H   H12       1.0  0.5910246581128361  0.5139652827543983  0.19808995598874185  1.0000
  C   C1        1.0  0.2715984256039334  0.9997020173636528  0.6678925191716871  1.0000
  C   C2        1.0  0.9998272265833207  0.2707218194005067  0.33274131749995917  1.0000
  C   C3        1.0  0.7281485765307849  0.7278978238813282  0.9994364676199723  1.0000
  C   C4        1.0  0.7361914737227762  0.0006680765402223211  0.6677946275868791  1.0000
  C   C5        1.0  0.00016427827532089042  0.7363923397650398  0.3330127942353442  1.0000
  C   C6        1.0  0.2639852068794255  0.26439423959924824  0.999119926867877  1.0000
  C   C7        1.0  0.6344712222699729  0.9534507089767889  0.5573084754502631  1.0000
  C   C8        1.0  0.0468262298243261  0.6810355243068855  0.2224569825870474  1.0000
  C   C9        1.0  0.31901211341365615  0.36626549890083043  0.8886676922358488  1.0000
  C   C10       1.0  0.9534134856118827  0.6342920979388754  0.4434139533611939  1.0000
  C   C11       1.0  0.6810890402847889  0.04731630658458391  0.7783814934485205  1.0000
  C   C12       1.0  0.3655530322063214  0.3188582379399493  0.10969488257133969  1.0000
  C   C13       1.0  0.4859412523228173  0.9567916969556337  0.5554761719371014  1.0000
  C   C14       1.0  0.042933028625050385  0.5285777182017952  0.22033195911848938  1.0000
  C   C15       1.0  0.47109510771745283  0.5143251658140572  0.8869084528146585  1.0000
  C   C16       1.0  0.9570981584995834  0.4856269106644858  0.445185714681365  1.0000
  C   C17       1.0  0.5288728380751876  0.043232901451993745  0.7803449822855411  1.0000
  C   C18       1.0  0.5139482676732214  0.47067619884933976  0.11171244187961091  1.0000
  C   C19       1.0  0.43214341851567895  0.999852670570917  0.6679371948882176  1.0000
  C   C20       1.0  0.9999921618616343  0.4316546246931028  0.3327207467041404  1.0000
  C   C21       1.0  0.5677711038889585  0.5675857166542074  0.9993433316749145  1.0000
  O   O1        1.0  0.8810844133712763  0.0012827414352260186  0.667695008565232  1.0000
  O   O2        1.0  0.0003595451570530818  0.8811873215503068  0.33319218923220717  1.0000
  O   O3        1.0  0.1193194729513039  0.12014671263800383  0.9990527901994354  1.0000
  O   O4        1.0  0.22841260235447436  0.042233374902906524  0.5641113276960538  1.0000
  O   O5        1.0  0.9566618179184445  0.18489969034229153  0.22901786854747996  1.0000
  O   O6        1.0  0.8134724268525345  0.7709919242943428  0.8955535010076828  1.0000
  O   O7        1.0  0.04292816438578479  0.22790279959115622  0.4364348211600841  1.0000
  O   O8        1.0  0.1861353674690205  0.9571486483694114  0.7716814257204019  1.0000
  O   O9        1.0  0.77137235568145  0.813403305690848  0.1033092678865231  1.0000
  O   O10       1.0  0.6957613181792935  0.9039144517867188  0.45554947757093334  1.0000
  O   O11       1.0  0.09664714285318601  0.7919898833687498  0.1206860301835633  1.0000
  O   O12       1.0  0.20860255868842614  0.3056916409354572  0.7868322083598895  1.0000
  O   O13       1.0  0.9038511680361481  0.6955397917329125  0.545363337143712  1.0000
  O   O14       1.0  0.7916364307501098  0.0971383442461615  0.8801419216282296  1.0000
  O   O15       1.0  0.304288154858753  0.2081180838967356  0.21143420447882727  1.0000
