data_image0
_chemical_formula_structural       CuH36C46S2N8O6F6
_chemical_formula_sum              "Cu1 H36 C46 S2 N8 O6 F6"
_cell_length_a       9.117915271809592
_cell_length_b       11.23121739864208
_cell_length_c       12.16965614439604
_cell_angle_alpha    114.02235208113258
_cell_angle_beta     104.87734273144203
_cell_angle_gamma    93.4965147290967

_space_group_name_H-M_alt    "P 1"
_space_group_IT_number       1

loop_
  _space_group_symop_operation_xyz
  'x, y, z'

loop_
  _atom_site_type_symbol
  _atom_site_label
  _atom_site_symmetry_multiplicity
  _atom_site_fract_x
  _atom_site_fract_y
  _atom_site_fract_z
  _atom_site_occupancy
  Cu  Cu1       1.0  0.999999226094921  0.5000004893012501  0.5000013655090568  1.0000
  H   H1        1.0  0.8308270159156235  0.7273154373946795  0.5526576956259747  1.0000
  H   H2        1.0  0.16917240831668315  0.27268763273948327  0.4473506151962425  1.0000
  H   H3        1.0  0.21645958347790636  0.7492265834961954  0.5451600120485339  1.0000
  H   H4        1.0  0.7835371875685622  0.2507696395126615  0.4548377589275887  1.0000
  H   H5        1.0  0.7970468763448011  0.38576515730705546  0.18812611077979113  1.0000
  H   H6        1.0  0.20294740678439643  0.6142300783599737  0.8118708024319831  1.0000
  H   H7        1.0  0.27337689837554535  0.5264877904571817  0.3057821930868982  1.0000
  H   H8        1.0  0.7266257205755835  0.4735143443504838  0.6942214409671053  1.0000
  H   H9        1.0  0.669168513578924  0.23089659700074341  0.2861007969986106  1.0000
  H   H10       1.0  0.3308383973483586  0.7691095641995744  0.713900279999585  1.0000
  H   H11       1.0  0.29736681685551497  0.9270083023550979  0.5003427258733026  1.0000
  H   H12       1.0  0.7026269961309666  0.07298994510456677  0.4996527904757144  1.0000
  H   H13       1.0  0.1743364306439403  0.9432128005999373  0.37059938994669744  1.0000
  H   H14       1.0  0.8256576406814985  0.05678148573681338  0.6293938302835755  1.0000
  H   H15       1.0  0.3904662768589587  0.13653783986110568  0.1792279208864613  1.0000
  H   H16       1.0  0.6095390609324837  0.863466339152552  0.8207720913158384  1.0000
  H   H17       1.0  0.6172621387365069  0.8441451244552739  0.5548109526459727  1.0000
  H   H18       1.0  0.3827375202426992  0.15585902404981058  0.4451912440406858  1.0000
  H   H19       1.0  0.42909815465039  0.7529607250051311  0.5001962131619565  1.0000
  H   H20       1.0  0.5709035552550857  0.24704243690752745  0.49980517614432785  1.0000
  H   H21       1.0  0.02146009631145768  0.7682936085200253  0.127210244689735  1.0000
  H   H22       1.0  0.9785337071153887  0.23170458517270015  0.8727893579580552  1.0000
  H   H23       1.0  0.24644910078940538  0.9319125217541708  0.2031475677071128  1.0000
  H   H24       1.0  0.7535472390018396  0.06808175958059337  0.7968460863450276  1.0000
  H   H25       1.0  0.19453283417661993  0.2804330105475827  0.1887219184738598  1.0000
  H   H26       1.0  0.8054745449814503  0.719570128106703  0.8112813726468459  1.0000
  H   H27       1.0  0.6988778708798333  0.7324014342145161  0.3115519658521392  1.0000
  H   H28       1.0  0.30112474807128814  0.26760070059315666  0.6884516682018572  1.0000
  H   H29       1.0  0.6572479225992678  0.7901814414444813  0.1330758011378634  1.0000
  H   H30       1.0  0.3427531659273555  0.20981377921657432  0.8669224135395128  1.0000
  H   H31       1.0  0.6935426927176279  0.40551821158062024  0.9865963811127187  1.0000
  H   H32       1.0  0.306454074504991  0.594477989921465  0.013403024382917237  1.0000
  H   H33       1.0  0.8023119113689318  0.5935850888117216  0.9576605830346595  1.0000
  H   H34       1.0  0.19768258929980928  0.4064111284457397  0.04233757137935609  1.0000
  H   H35       1.0  0.42929643359147457  0.8906295817839619  0.07730913531902668  1.0000
  H   H36       1.0  0.5707017319387901  0.10936268835438055  0.9226857391895322  1.0000
  C   C1        1.0  0.7453054146980589  0.6388012014702227  0.4878119266672912  1.0000
  C   C2        1.0  0.2546965050992469  0.3612028990193181  0.5121939728802474  1.0000
  C   C3        1.0  0.14335165847714393  0.7017252154740062  0.4479130157941925  1.0000
  C   C4        1.0  0.8566453339327251  0.2982720106320683  0.552084361864658  1.0000
  C   C5        1.0  0.5153922955553937  0.514367896435992  0.36868753993007886  1.0000
  C   C6        1.0  0.4846094143500821  0.48563526547665953  0.6313138493762055  1.0000
  C   C7        1.0  0.629123374819791  0.4332024407320958  0.3669829703347389  1.0000
  C   C8        1.0  0.3708823942268822  0.5668036799556617  0.6330211587915427  1.0000
  C   C9        1.0  0.028430108969338588  0.6749261306829977  0.253448364237819  1.0000
  C   C10       1.0  0.9715600703953909  0.3250710674155073  0.7465509809944494  1.0000
  C   C11       1.0  0.9644341244348451  0.5690014985461075  0.2725128171648449  1.0000
  C   C12       1.0  0.03555718725086621  0.4309956862980044  0.7274875622381173  1.0000
  C   C13       1.0  0.8440411429724148  0.4691416041775509  0.17567654802990518  1.0000
  C   C14       1.0  0.15595173802527995  0.5308575413464495  0.8243265306884524  1.0000
  C   C15       1.0  0.3588513391833245  0.46282264121345656  0.3037162711788497  1.0000
  C   C16       1.0  0.6411531150664587  0.5371775361647335  0.6962844970327922  1.0000
  C   C17       1.0  0.5844364877455489  0.2954236435002001  0.2951805290318319  1.0000
  C   C18       1.0  0.4155708544369644  0.7045844593742101  0.7048246648903385  1.0000
  C   C19       1.0  0.36623469951877746  0.8533197170852913  0.3276961536199251  1.0000
  C   C20       1.0  0.6337587115403237  0.14667158146659887  0.6722966120426648  1.0000
  C   C21       1.0  0.4958796916154139  0.7976084437283146  0.35936347028516724  1.0000
  C   C22       1.0  0.5041186506549805  0.2023897507138129  0.6406361827466044  1.0000
  C   C23       1.0  0.246123719878689  0.8781404135553997  0.39697371460585623  1.0000
  C   C24       1.0  0.7538707884377587  0.12185584671561861  0.6030211707691322  1.0000
  C   C25       1.0  0.42763395890681005  0.24361255251547934  0.23266090993695346  1.0000
  C   C26       1.0  0.5723732122713584  0.7563896583153066  0.7673370536827377  1.0000
  C   C27       1.0  0.531157926236844  0.7646802774967724  0.4714570494350738  1.0000
  C   C28       1.0  0.4688433447656947  0.23532089972822945  0.5285434919862482  1.0000
  C   C29       1.0  0.972995377081574  0.6862116088642123  0.14065638631375066  1.0000
  C   C30       1.0  0.026998424433344305  0.3137865740751309  0.8593440335937998  1.0000
  C   C31       1.0  0.34528188895829703  0.8868690423342898  0.22629405773464137  1.0000
  C   C32       1.0  0.6547151442509858  0.11312324105843892  0.7736997826032237  1.0000
  C   C33       1.0  0.31614109808368346  0.3254002434849284  0.23725686111681918  1.0000
  C   C34       1.0  0.6838630978271424  0.6746038950161689  0.7627462032135667  1.0000
  C   C35       1.0  0.5984346078065882  0.7756158234959825  0.2879142292257909  1.0000
  C   C36       1.0  0.40156892592597154  0.22438531646686496  0.712089197796665  1.0000
  C   C37       1.0  0.17247946425124636  0.9717367034724728  0.905216392932054  1.0000
  C   C38       1.0  0.8275308474628246  0.028269439471465305  0.09478615205868829  1.0000
  C   C39       1.0  0.5752674543049848  0.8080578114331869  0.18659016847544754  1.0000
  C   C40       1.0  0.4247342906641194  0.1919403755059506  0.813410135289125  1.0000
  C   C41       1.0  0.7880498235116348  0.48100094302191104  0.06348376015520073  1.0000
  C   C42       1.0  0.21194127063453289  0.5189952602317687  0.9365153780455202  1.0000
  C   C43       1.0  0.8506747102309191  0.5878960686747234  0.04668103773026644  1.0000
  C   C44       1.0  0.14931569432106778  0.41210215402776373  0.9533162796652164  1.0000
  C   C45       1.0  0.4482774879620735  0.864459398052169  0.1559868780408067  1.0000
  C   C46       1.0  0.5517229052345838  0.13553780979753327  0.8440119676105979  1.0000
  S   S1        1.0  0.05938473387756459  0.889157031581554  0.7341224195075569  1.0000
  S   S2        1.0  0.9406226471924338  0.11084611782612087  0.2658800543533957  1.0000
  N   N1        1.0  0.5941753148118636  0.6436902628978983  0.44634906424185067  1.0000
  N   N2        1.0  0.4058238976166919  0.35631185790598596  0.5536555535988655  1.0000
  N   N3        1.0  0.772485174236685  0.5157418524935122  0.44363825705306675  1.0000
  N   N4        1.0  0.22751719019934308  0.48426426494384595  0.5563660386001672  1.0000
  N   N5        1.0  0.04031356729881705  0.5898851382931338  0.39623009520084906  1.0000
  N   N6        1.0  0.9596834193752741  0.41011205555277996  0.6037697342372611  1.0000
  N   N7        1.0  0.14279766143899048  0.7560604912572088  0.36681328487019016  1.0000
  N   N8        1.0  0.8571957049968403  0.2439357285012491  0.6331846526328918  1.0000
  O   O1        1.0  0.06655758585242202  0.748866922618056  0.7001560899158719  1.0000
  O   O2        1.0  0.933445949792066  0.25113422809818087  0.29984651984683103  1.0000
  O   O3        1.0  0.9057542505258027  0.9203870033863236  0.7319055760441415  1.0000
  O   O4        1.0  0.0942472361043514  0.07961514467572779  0.268097023839168  1.0000
  O   O5        1.0  0.14323357889047364  0.9498292248395542  0.6773502824127037  1.0000
  O   O6        1.0  0.8567626793019443  0.05017494192190951  0.32265044628139355  1.0000
  F   F1        1.0  0.1644759151150197  0.10246475987604238  0.9571247797061986  1.0000
  F   F2        1.0  0.8355257967023844  0.8975384127899982  0.04287579234033234  1.0000
  F   F3        1.0  0.3245132562839359  0.9629341245290988  0.921364814536588  1.0000
  F   F4        1.0  0.6754970337499983  0.03707706866206449  0.0786330951775867  1.0000
  F   F5        1.0  0.12081001195517872  0.9151316165939607  0.9710272118662646  1.0000
  F   F6        1.0  0.8792067089647233  0.08486759469639078  0.028971432124386385  1.0000
