data_image0
_chemical_formula_structural       Na4H64C24S8N4O12
_chemical_formula_sum              "Na4 H64 C24 S8 N4 O12"
_cell_length_a       5.746566936463386
_cell_length_b       13.945534969060066
_cell_length_c       14.741510469484131
_cell_angle_alpha    108.11815753654868
_cell_angle_beta     90.02904024929522
_cell_angle_gamma    101.87111846412859

_space_group_name_H-M_alt    "P 1"
_space_group_IT_number       1

loop_
  _space_group_symop_operation_xyz
  'x, y, z'

loop_
  _atom_site_type_symbol
  _atom_site_label
  _atom_site_symmetry_multiplicity
  _atom_site_fract_x
  _atom_site_fract_y
  _atom_site_fract_z
  _atom_site_occupancy
  Na  Na1       1.0  0.20742218973174442  0.44050253356032  0.9508355607332463  1.0000
  Na  Na2       1.0  0.7668864899127144  0.559626960046586  0.5492125367729699  1.0000
  Na  Na3       1.0  0.7925763001235494  0.5594983554456832  0.049163431949629924  1.0000
  Na  Na4       1.0  0.2331166817834075  0.4403693660310851  0.4507879226976783  1.0000
  H   H1        1.0  0.7902383096447709  0.3311233420017958  0.44380945288281753  1.0000
  H   H2        1.0  0.45925928344297523  0.6690047559333507  0.05629778506251168  1.0000
  H   H3        1.0  0.20976525775071062  0.6688737749596358  0.5561919014665405  1.0000
  H   H4        1.0  0.5407425102419481  0.33099926000143404  0.9437034202081449  1.0000
  H   H5        1.0  0.8778852084730601  0.2385772801853037  0.875723353635486  1.0000
  H   H6        1.0  0.6394623690040931  0.7615831988783698  0.6244058126093465  1.0000
  H   H7        1.0  0.12211077850179212  0.7614220819260639  0.12427589975972352  1.0000
  H   H8        1.0  0.36052361599941923  0.23841007392106667  0.3755951671778491  1.0000
  H   H9        1.0  0.15041151366067143  0.23256196200195234  0.8742052783812395  1.0000
  H   H10       1.0  0.9179996016393944  0.7675452704263749  0.6257975160248037  1.0000
  H   H11       1.0  0.8495827618324441  0.767437454982286  0.12579602548371585  1.0000
  H   H12       1.0  0.08199064547857664  0.2324495657279401  0.3742045702937276  1.0000
  H   H13       1.0  0.2328754780752433  0.5445875305063127  0.1509004538180747  1.0000
  H   H14       1.0  0.6880905219689027  0.45537381235367763  0.3492231985802761  1.0000
  H   H15       1.0  0.7671282321793598  0.4554133582806729  0.8490985393397069  1.0000
  H   H16       1.0  0.3119132169370786  0.5446271312331703  0.6507778452055533  1.0000
  H   H17       1.0  0.024422753648302514  0.45377690359482875  0.1511211043831793  1.0000
  H   H18       1.0  0.5705141562335144  0.5461992590288247  0.3488720978133912  1.0000
  H   H19       1.0  0.9755770710902779  0.5462231761877873  0.8488763100366086  1.0000
  H   H20       1.0  0.4294832133769049  0.45379938519226926  0.6511289950321383  1.0000
  H   H21       1.0  0.4535189299365926  0.3036336404172674  0.5773037020613856  1.0000
  H   H22       1.0  0.15037605299084342  0.6965529400490739  0.9224859268907721  1.0000
  H   H23       1.0  0.5464919696636628  0.6963711843028622  0.42269908242217014  1.0000
  H   H24       1.0  0.8496172451165195  0.30344800397582367  0.0775151159452534  1.0000
  H   H25       1.0  0.5677446096168596  0.20089369010036506  0.5027653422956817  1.0000
  H   H26       1.0  0.36694572775284956  0.7994137445008607  0.997188258154381  1.0000
  H   H27       1.0  0.43225082432297046  0.7991080447352771  0.4972365955773553  1.0000
  H   H28       1.0  0.633042349955211  0.2005871997430546  0.002812784206746215  1.0000
  H   H29       1.0  0.8729653253976508  0.3955889551610668  0.6479627649821537  1.0000
  H   H30       1.0  0.47861082017527684  0.6048478409378433  0.8521856308694353  1.0000
  H   H31       1.0  0.12704768630977276  0.6044096518697232  0.35203696220271047  1.0000
  H   H32       1.0  0.5213896290759124  0.39515696595369576  0.1478164691216293  1.0000
  H   H33       1.0  0.9841777504271291  0.29331740917218957  0.5676135607752855  1.0000
  H   H34       1.0  0.6914378833612603  0.707141419683815  0.9328929732416  1.0000
  H   H35       1.0  0.015828515386296448  0.7066781441423303  0.4323866876759368  1.0000
  H   H36       1.0  0.30855849438686533  0.29286568701152765  0.06710907673996759  1.0000
  H   H37       1.0  0.5971959166077171  0.0751437907278216  0.5412091615421772  1.0000
  H   H38       1.0  0.522573862504814  0.9250875455716356  0.9587011964180263  1.0000
  H   H39       1.0  0.4027994982311969  0.9248579075745769  0.45879140924549944  1.0000
  H   H40       1.0  0.4774219384829976  0.07491492534789762  0.0412995857056728  1.0000
  H   H41       1.0  0.5082785542578562  0.06112902501798351  0.6530064608707349  1.0000
  H   H42       1.0  0.4476616750194255  0.9390475438211399  0.8468497438092798  1.0000
  H   H43       1.0  0.49172439324939893  0.9388703368013581  0.3469927931576748  1.0000
  H   H44       1.0  0.552339732516593  0.06095569949650331  0.1531512501253474  1.0000
  H   H45       1.0  0.928704264378112  0.1475671782186936  0.7231420316387654  1.0000
  H   H46       1.0  0.7815464445622595  0.8524996497363233  0.7768740742659473  1.0000
  H   H47       1.0  0.07130153395667088  0.8524344100459303  0.2768544388426122  1.0000
  H   H48       1.0  0.21844728282191994  0.147495186271982  0.2231280123691874  1.0000
  H   H49       1.0  0.015650309028259805  0.1474116051788528  0.6084653273554393  1.0000
  H   H50       1.0  0.8686341981228337  0.8526726132688934  0.8916045927391423  1.0000
  H   H51       1.0  0.9843475227369821  0.8525914556185725  0.3915288308357603  1.0000
  H   H52       1.0  0.1313576126916729  0.14732534988720403  0.10839970600887479  1.0000
  H   H53       1.0  0.0891272399343209  0.9903194634282569  0.6505053141731166  1.0000
  H   H54       1.0  0.09928289097984332  0.0097409015412495  0.8495539702710957  1.0000
  H   H55       1.0  0.9108862339279256  0.009683560178871202  0.3494874783574176  1.0000
  H   H56       1.0  0.9007187265702115  0.9902523158012643  0.15044496031275403  1.0000
  H   H57       1.0  0.8889444613325921  0.9523171758353043  0.5473210430949179  1.0000
  H   H58       1.0  0.9371085279894656  0.047782955836766  0.9526698928847281  1.0000
  H   H59       1.0  0.11106204244678251  0.0476858297972242  0.4526710652597359  1.0000
  H   H60       1.0  0.06289229323578381  0.9522156334384491  0.0473291496493502  1.0000
  H   H61       1.0  0.778500066771386  0.9526809067595394  0.6594195248365223  1.0000
  H   H62       1.0  0.8262411745231049  0.04738349626293831  0.840531503926833  1.0000
  H   H63       1.0  0.2215097457637043  0.04731827210154191  0.3405728943982567  1.0000
  H   H64       1.0  0.1737633129553872  0.9526119840580947  0.15946601019535928  1.0000
  C   C1        1.0  0.5096104469056614  0.2567372071301222  0.7341071022582212  1.0000
  C   C2        1.0  0.25332950003982563  0.7434500948067894  0.7658014776871127  1.0000
  C   C3        1.0  0.490390798670326  0.7432622278287154  0.2658948857826147  1.0000
  C   C4        1.0  0.7466651520517402  0.2565500765279652  0.23419935397118508  1.0000
  C   C5        1.0  0.5973172607399846  0.2619406244613245  0.5723616756910275  1.0000
  C   C6        1.0  0.33580614320869984  0.7383338664323561  0.9276193962329415  1.0000
  C   C7        1.0  0.4026886139984569  0.7380611099362825  0.4276402631318135  1.0000
  C   C8        1.0  0.6641875601484841  0.2616678867429202  0.07238322502448111  1.0000
  C   C9        1.0  0.8385544396744607  0.3353043509518088  0.57781105472165  1.0000
  C   C10       1.0  0.5038905015370503  0.6650512105443626  0.9223820441454436  1.0000
  C   C11       1.0  0.16145337073457017  0.6646942928312429  0.4221900390736836  1.0000
  C   C12       1.0  0.4961047273148225  0.33495359656620144  0.07762005537072272  1.0000
  C   C13       1.0  0.6331995673295906  0.10839545289702103  0.6191511742724174  1.0000
  C   C14       1.0  0.5253209843937299  0.8918023915783239  0.8807757075588611  1.0000
  C   C15       1.0  0.36680065310834925  0.8916054177693555  0.3808471350260803  1.0000
  C   C16       1.0  0.47467157961766304  0.10819708027879224  0.1192276467758404  1.0000
  C   C17       1.0  0.8881075256533463  0.10600205562655417  0.6464516966479152  1.0000
  C   C18       1.0  0.7825695714064338  0.8940918016499496  0.8535629973690035  1.0000
  C   C19       1.0  0.1118971237851768  0.893997233053284  0.3535448233680611  1.0000
  C   C20       1.0  0.21742879469065457  0.10590535206374341  0.1464397235908166  1.0000
  C   C21       1.0  0.913613803601976  0.9944536821484605  0.6244720335782218  1.0000
  C   C22       1.0  0.9196176411135325  0.005626036203132399  0.8755418755180102  1.0000
  C   C23       1.0  0.08639271927831518  0.005549360017312201  0.37552144186179953  1.0000
  C   C24       1.0  0.08038550193121813  0.9943702350746619  0.12445653332459018  1.0000
  S   S1        1.0  0.43634837406524696  0.3756543365458782  0.7619284033119341  1.0000
  S   S2        1.0  0.06120792706434499  0.6245312697803912  0.7379925601447042  1.0000
  S   S3        1.0  0.5636455439303419  0.6243443626211019  0.23807473984503966  1.0000
  S   S4        1.0  0.9387950490942883  0.3754681468388128  0.2620087445117534  1.0000
  S   S5        1.0  0.4900577701964437  0.19188884033317066  0.8173467565283301  1.0000
  S   S6        1.0  0.2985136463894733  0.8082438242284696  0.6825115083176598  1.0000
  S   S7        1.0  0.5099430987811004  0.8081098402751579  0.18265570371916337  1.0000
  S   S8        1.0  0.7014788985210031  0.19175561109540243  0.31749047893167404  1.0000
  N   N1        1.0  0.5789339205626334  0.2116520095395487  0.6463061601323261  1.0000
  N   N2        1.0  0.367825495933815  0.7885599396105649  0.8536245988606979  1.0000
  N   N3        1.0  0.42106555622888214  0.788347370692428  0.3536937771221602  1.0000
  N   N4        1.0  0.6321685840218123  0.21144256791521343  0.146377550190067  1.0000
  O   O1        1.0  0.8373605247514674  0.38655327412487145  0.5069065161309965  1.0000
  O   O2        1.0  0.4510369372341573  0.6136466251539475  0.9931407645166885  1.0000
  O   O3        1.0  0.1626486014399334  0.6134445239015494  0.49309163231587416  1.0000
  O   O4        1.0  0.548967001833688  0.38635819985820063  0.006862019333667026  1.0000
  O   O5        1.0  0.032670580236825196  0.26682198967402115  0.9132531633177834  1.0000
  O   O6        1.0  0.7658428325583204  0.7332938064593293  0.5868227128602115  1.0000
  O   O7        1.0  0.9673244198018053  0.7331788812113729  0.08674514550581588  1.0000
  O   O8        1.0  0.23414602237362916  0.26670172931863334  0.4131768504653195  1.0000
  O   O9        1.0  0.08720492192327364  0.4987806170395714  0.11207877598315717  1.0000
  O   O10       1.0  0.5883020912679341  0.5012377581037484  0.3879919009082826  1.0000
  O   O11       1.0  0.9128004902625976  0.5012201986079178  0.8879174831621908  1.0000
  O   O12       1.0  0.41169526879202323  0.49876086785072726  0.6120085083945596  1.0000
