data_image0
_chemical_formula_structural       Cd2H18C26N2Cl4
_chemical_formula_sum              "Cd2 H18 C26 N2 Cl4"
_cell_length_a       7.0988930075347625
_cell_length_b       10.05272557538395
_cell_length_c       10.087474349535393
_cell_angle_alpha    119.88459414868383
_cell_angle_beta     107.10826326585061
_cell_angle_gamma    89.99857218531191

_space_group_name_H-M_alt    "P 1"
_space_group_IT_number       1

loop_
  _space_group_symop_operation_xyz
  'x, y, z'

loop_
  _atom_site_type_symbol
  _atom_site_label
  _atom_site_symmetry_multiplicity
  _atom_site_fract_x
  _atom_site_fract_y
  _atom_site_fract_z
  _atom_site_occupancy
  Cd  Cd1       1.0  0.2500038049915148  0.927932343538771  0.9999989256213768  1.0000
  Cd  Cd2       1.0  0.7500002664892804  0.0720687372208744  3.1891307798735087e-06  1.0000
  H   H1        1.0  0.00298462285298481  0.6771391626555925  0.731820486368065  1.0000
  H   H2        1.0  0.49702331516338216  0.945300102027936  0.268173409081186  1.0000
  H   H3        1.0  0.9970214610142706  0.3228699629276903  0.2681790049305307  1.0000
  H   H4        1.0  0.5029865654545987  0.054688050515480306  0.731820723310861  1.0000
  H   H5        1.0  0.7938728148014889  0.43412347857815087  0.4888533244458985  1.0000
  H   H6        1.0  0.7061315631403603  0.9452529819966456  0.5111485766531488  1.0000
  H   H7        1.0  0.2061329206663274  0.5658845953736458  0.5111525246257926  1.0000
  H   H8        1.0  0.29387179170260685  0.0547387159340289  0.4888458767408607  1.0000
  H   H9        1.0  0.009313857749383194  0.1736365306716721  0.7187637733271616  1.0000
  H   H10       1.0  0.4907099147311484  0.454875751089766  0.28126545123539165  1.0000
  H   H11       1.0  0.9906755083469677  0.8263646313988319  0.2812342519437224  1.0000
  H   H12       1.0  0.509280987511545  0.5451195963471491  0.7187320748970124  1.0000
  H   H13       1.0  0.7972632335905842  0.1830603583349699  0.47712075417920374  1.0000
  H   H14       1.0  0.7027539019266342  0.7059324145559387  0.5228977772686536  1.0000
  H   H15       1.0  0.20273518471914537  0.8169476993219928  0.5228795600720134  1.0000
  H   H16       1.0  0.2972441112112421  0.29406166974324327  0.47709768113796275  1.0000
  H   H17       1.0  0.25000919138278027  0.3112219598825945  1.2536056537727489e-05  1.0000
  H   H18       1.0  0.7499831279735928  0.6887791663999322  0.9999851105118014  1.0000
  C   C1        1.0  0.1321631317149965  0.5662484271249966  0.8674294316484678  1.0000
  C   C2        1.0  0.3678506926729527  0.6988245609518132  0.1325796762422017  1.0000
  C   C3        1.0  0.8678407371798685  0.4337456669557584  0.1325702551813921  1.0000
  C   C4        1.0  0.6321541766665463  0.3011857724647484  0.867422122542756  1.0000
  C   C5        1.0  0.0067636434226017225  0.5673391992826212  0.7293527384688901  1.0000
  C   C6        1.0  0.49323927005790585  0.8379843555050216  0.27065542914304086  1.0000
  C   C7        1.0  0.9932437536998436  0.43265715753118883  0.2706458201002634  1.0000
  C   C8        1.0  0.5067641618626908  0.16202023160893478  0.7293482435373164  1.0000
  C   C9        1.0  0.1301524526159312  0.4202197098359192  0.8626215455358307  1.0000
  C   C10       1.0  0.36986109180064375  0.5575906852366331  0.13739121961685907  1.0000
  C   C11       1.0  0.8698359726068646  0.5797895328462063  0.13737423498404433  1.0000
  C   C12       1.0  0.6301265733752145  0.442397841481423  0.862612234621139  1.0000
  C   C13       1.0  0.8895770176969717  0.43178792140643196  0.5939225202156564  1.0000
  C   C14       1.0  0.6104275063084046  0.8378586125680771  0.4060912945813302  1.0000
  C   C15       1.0  0.11041861714844714  0.5682084972017735  0.4060725673353433  1.0000
  C   C16       1.0  0.38957580792411767  0.162133150448625  0.5939071474753492  1.0000
  C   C17       1.0  0.007213981357345714  0.2824253589276325  0.7194850517902723  1.0000
  C   C18       1.0  0.49281259377299586  0.5629409767561241  0.2805348520001233  1.0000
  C   C19       1.0  0.9927853197089506  0.7175861139678757  0.28051214379236467  1.0000
  C   C20       1.0  0.5071935823460479  0.437050896916162  0.7194721858450283  1.0000
  C   C21       1.0  0.8905974622255995  0.28772462101386514  0.5875571914444465  1.0000
  C   C22       1.0  0.609419215836077  0.700165459992448  0.41246454433811414  1.0000
  C   C23       1.0  0.10939654142300982  0.7122834659178069  0.4124421951120853  1.0000
  C   C24       1.0  0.3905787363861393  0.2998287219357749  0.5875368970625133  1.0000
  C   C25       1.0  0.2500187854185185  0.41987830573348356  1.2367131333270575e-05  1.0000
  C   C26       1.0  0.7499782360827538  0.580123940534854  0.9999858323526072  1.0000
  N   N1        1.0  0.25000441565610737  0.6999519030556981  5.754986446495417e-06  1.0000
  N   N2        1.0  0.7500020280912808  0.3000523048864069  1.9626686338706104e-06  1.0000
  Cl  Cl1       1.0  0.51909902996276  0.16810821383825925  0.1913063083412113  1.0000
  Cl  Cl2       1.0  0.9808892332613512  0.9768009065365179  0.8086857153614279  1.0000
  Cl  Cl3       1.0  0.48090446655046293  0.8318905684003469  0.8086965559691139  1.0000
  Cl  Cl4       1.0  0.019112801850781097  0.023197869188820202  0.191315842551667  1.0000
