data_image0
_chemical_formula_structural       Zn2H13C24N2O8F
_chemical_formula_sum              "Zn2 H13 C24 N2 O8 F1"
_cell_length_a       9.74553788710222
_cell_length_b       11.084499793696196
_cell_length_c       14.140086864566404
_cell_angle_alpha    91.07365078013476
_cell_angle_beta     80.61792697487657
_cell_angle_gamma    91.15005632785841

_space_group_name_H-M_alt    "P 1"
_space_group_IT_number       1

loop_
  _space_group_symop_operation_xyz
  'x, y, z'

loop_
  _atom_site_type_symbol
  _atom_site_label
  _atom_site_symmetry_multiplicity
  _atom_site_fract_x
  _atom_site_fract_y
  _atom_site_fract_z
  _atom_site_occupancy
  Zn  Zn1       1.0  0.36436745426932765  0.5017054247502486  0.5024961260754779  1.0000
  Zn  Zn2       1.0  0.6507348224679675  0.5067257745663838  0.4880237925895443  1.0000
  H   H1        1.0  0.3436023383842794  0.5071424586393505  0.0182322673800144  1.0000
  H   H2        1.0  0.17026281764382392  0.40904001774694626  0.3706865654916385  1.0000
  H   H3        1.0  0.09650162643023211  0.7057658444195525  0.6617519614113831  1.0000
  H   H4        1.0  0.8149603837489963  0.5701598329697005  0.7158928810058782  1.0000
  H   H5        1.0  0.8355434747277499  0.7109423058287659  0.6544383546761878  1.0000
  H   H6        1.0  0.6641438544599509  0.4951606799929777  0.971627679660223  1.0000
  H   H7        1.0  0.7275534516637947  0.891884395884581  0.44868435509184934  1.0000
  H   H8        1.0  0.7313635807588739  0.1160451158570908  0.445281284885894  1.0000
  H   H9        1.0  0.20042302480882057  0.12286376318088087  0.6135862020845835  1.0000
  H   H10       1.0  0.1745473178345094  0.11482425751177062  0.49164519760248737  1.0000
  H   H11       1.0  0.19788068892068372  0.8968798802982153  0.6199903289156125  1.0000
  H   H12       1.0  0.1697604680808595  0.8874464531138389  0.49813048636104174  1.0000
  H   H13       1.0  0.9136552731437393  0.4166913244737741  0.36152177311020484  1.0000
  C   C1        1.0  0.5055847724531758  0.7397893756235445  0.4965017198709276  1.0000
  C   C2        1.0  0.4601660921995787  0.503484341386013  0.7866692228540586  1.0000
  C   C3        1.0  0.3853909339006094  0.9413880578666466  0.5149299512169634  1.0000
  C   C4        1.0  0.5061278701833987  0.874191336512176  0.49309002681253833  1.0000
  C   C5        1.0  0.6309722012645836  0.9412692572481233  0.4673046752079557  1.0000
  C   C6        1.0  0.6330064910219093  0.06707450003543158  0.46509262892288916  1.0000
  C   C7        1.0  0.5102516689463742  0.1343420092108687  0.4881676547261975  1.0000
  C   C8        1.0  0.3874378050177185  0.0673534008720225  0.51230818905902  1.0000
  C   C9        1.0  0.2317850049419832  0.07636132751488128  0.5443964455255426  1.0000
  C   C10       1.0  0.22940359160407553  0.9338377153529933  0.5479448180125104  1.0000
  C   C11       1.0  0.916995628325097  0.5528610594516934  0.5657145696010132  1.0000
  C   C12       1.0  0.4733398291594851  0.5030671440403083  0.6833879025133314  1.0000
  C   C13       1.0  0.9550099322373526  0.4550209099273913  0.42287663599056197  1.0000
  C   C14       1.0  0.09686911029148601  0.4496314378914974  0.4283369282976537  1.0000
  C   C15       1.0  0.057794091273564205  0.5461783845781268  0.5715383709134939  1.0000
  C   C16       1.0  0.04072095143654051  0.6183533837376912  0.6659034308362662  1.0000
  C   C17       1.0  0.8800432943713616  0.6215312173020705  0.6592777318775161  1.0000
  C   C18       1.0  0.5126434810343954  0.26885370528933084  0.4887755887308245  1.0000
  C   C19       1.0  0.5408858617125816  0.5029058863405709  0.3064003196037106  1.0000
  C   C20       1.0  0.5517819217596269  0.5006628607586379  0.2032464715132321  1.0000
  C   C21       1.0  0.56169511276714  0.4990062566046871  0.016665470984371177  1.0000
  C   C22       1.0  0.4463451128035487  0.503377676004355  0.9735830668380814  1.0000
  C   C23       1.0  0.4536274749199691  0.5034909687674656  0.8736365523645871  1.0000
  C   C24       1.0  0.555721490533209  0.4996456542576553  0.11648246214090108  1.0000
  N   N1        1.0  0.862060237603487  0.5089427546194826  0.49171022793324676  1.0000
  N   N2        1.0  0.1513108553123388  0.49680758550911724  0.5036536317594127  1.0000
  O   O1        1.0  0.38729919354069153  0.6861371155572583  0.5039206341278799  1.0000
  O   O2        1.0  0.6226254095840673  0.6885201335875877  0.4919094418011624  1.0000
  O   O3        1.0  0.36129819183816647  0.5033469298453568  0.6481909980962969  1.0000
  O   O4        1.0  0.5972054253259316  0.5024720923605839  0.6370331734848662  1.0000
  O   O5        1.0  0.3948009440728129  0.31969903374915287  0.49724272682276177  1.0000
  O   O6        1.0  0.6305361816722198  0.3229141299615179  0.48190583005528237  1.0000
  O   O7        1.0  0.41748293339883724  0.5018361117872486  0.35353215318600206  1.0000
  O   O8        1.0  0.6540093253717458  0.5061879478997751  0.3406770972197251  1.0000
  F   F1        1.0  0.06889503844443108  0.5577537217602853  0.745355780166399  1.0000
