data_image0
_chemical_formula_structural       Ce2H12C18O24
_chemical_formula_sum              "Ce2 H12 C18 O24"
_cell_length_a       9.818920079834996
_cell_length_b       9.977305071690441
_cell_length_c       9.97774435601661
_cell_angle_alpha    119.94525882322836
_cell_angle_beta     90.00749933502676
_cell_angle_gamma    89.95956684254718

_space_group_name_H-M_alt    "P 1"
_space_group_IT_number       1

loop_
  _space_group_symop_operation_xyz
  'x, y, z'

loop_
  _atom_site_type_symbol
  _atom_site_label
  _atom_site_symmetry_multiplicity
  _atom_site_fract_x
  _atom_site_fract_y
  _atom_site_fract_z
  _atom_site_occupancy
  Ce  Ce1       1.0  0.9253629191583242  0.333002126717716  0.6668430759035787  1.0000
  Ce  Ce2       1.0  0.07466150739500678  0.6669699529724868  0.33315692515365214  1.0000
  H   H1        1.0  0.6086826985371658  0.8880415514324584  0.30846400342943514  1.0000
  H   H2        1.0  0.7171372491678197  0.9247385117891728  0.5387666273479326  1.0000
  H   H3        1.0  0.6084684379636441  0.42100904956802054  0.11259185338085582  1.0000
  H   H4        1.0  0.7164476347237638  0.6140583197517984  0.07493850323047012  1.0000
  H   H5        1.0  0.6085984677581776  0.6911962571371788  0.5782303613850032  1.0000
  H   H6        1.0  0.7171344256586208  0.46107541370078325  0.3855066178510497  1.0000
  H   H7        1.0  0.39131217822264114  0.1119275582197974  0.6913026569444867  1.0000
  H   H8        1.0  0.2827629224628794  0.07521937763097962  0.46108139741130577  1.0000
  H   H9        1.0  0.3914694083630366  0.5790079897651028  0.8874773937145689  1.0000
  H   H10       1.0  0.2835727223399189  0.3859231766062481  0.925176255166285  1.0000
  H   H11       1.0  0.3913383279123082  0.3088982262952626  0.4218075124918598  1.0000
  H   H12       1.0  0.2829042023749366  0.5390534381745696  0.6145529156732722  1.0000
  C   C1        1.0  0.8674742860763375  0.9694276326269037  0.4024722596311748  1.0000
  C   C2        1.0  0.621671399309534  0.008838391735338352  0.405352684928296  1.0000
  C   C3        1.0  0.7387269718828476  0.02082268138040905  0.5157140779311576  1.0000
  C   C4        1.0  0.8671381680058232  0.4334293385614958  0.030916769741708167  1.0000
  C   C5        1.0  0.6215156373383692  0.3966317980363317  0.9915897680330445  1.0000
  C   C6        1.0  0.7382603210405135  0.4950358187864694  0.9790850342691327  1.0000
  C   C7        1.0  0.8672959029815602  0.5974666238893108  0.5667902912900971  1.0000
  C   C8        1.0  0.6216441253986035  0.5947185170022494  0.6028939208165198  1.0000
  C   C9        1.0  0.738517042674303  0.48380150131409766  0.5045188827839127  1.0000
  C   C10       1.0  0.13249819419850442  0.030568206980198957  0.5975781123577804  1.0000
  C   C11       1.0  0.3783479366659889  0.9911049810933438  0.5945097940203964  1.0000
  C   C12       1.0  0.2612852279181084  0.9791431484396897  0.48417201314631353  1.0000
  C   C13       1.0  0.1327844183293649  0.5665294950999215  0.9690664870056409  1.0000
  C   C14       1.0  0.3784863599135946  0.6034139741194267  0.008482760041594936  1.0000
  C   C15       1.0  0.2617671450744226  0.5049877096197904  0.0209756756084047  1.0000
  C   C16       1.0  0.13270612205051444  0.4025008055393616  0.433244412495803  1.0000
  C   C17       1.0  0.37836397144880607  0.4053423588771424  0.3971034189644128  1.0000
  C   C18       1.0  0.2615470617579803  0.5162849858365279  0.4955249186153167  1.0000
  O   O1        1.0  0.5496399399876779  0.11437017555073949  0.4214347081072702  1.0000
  O   O2        1.0  0.9423931374996571  0.07997098815012303  0.4228923131288981  1.0000
  O   O3        1.0  0.8813101043898256  0.8268205007703746  0.3133784227201915  1.0000
  O   O4        1.0  0.7641555846735599  0.15577781001648827  0.6418496241939095  1.0000
  O   O5        1.0  0.5497980610908827  0.3067483056718175  0.8862169951884341  1.0000
  O   O6        1.0  0.9421848425662132  0.34325705152976843  0.9205461293709546  1.0000
  O   O7        1.0  0.8807538585957317  0.4873672717283812  0.17361357079323614  1.0000
  O   O8        1.0  0.7637430963178602  0.485843665655601  0.8439684914864074  1.0000
  O   O9        1.0  0.5498826607874533  0.5792523120712119  0.69283411782353  1.0000
  O   O10       1.0  0.9421034696029122  0.5769121679860094  0.6569304889054878  1.0000
  O   O11       1.0  0.8807489552158712  0.6864903600229512  0.5131042462004132  1.0000
  O   O12       1.0  0.7639787010465183  0.35783395278328817  0.5135230704233038  1.0000
  O   O13       1.0  0.4503447629065461  0.8856155169091906  0.5785777376334664  1.0000
  O   O14       1.0  0.0576221256197229  0.9199858352629707  0.5770588592489149  1.0000
  O   O15       1.0  0.11868175382878117  0.17312809482413646  0.6868052978045612  1.0000
  O   O16       1.0  0.23586172943457476  0.844143309158426  0.35810520404975665  1.0000
  O   O17       1.0  0.45023650226075057  0.6933455255650998  0.1137774199786605  1.0000
  O   O18       1.0  0.05772862544933589  0.6565826759449678  0.07945809245384788  1.0000
  O   O19       1.0  0.11914014834562887  0.5127633541630561  0.8264222326875625  1.0000
  O   O20       1.0  0.2363566549944167  0.5142524534284975  0.15614977644882094  1.0000
  O   O21       1.0  0.45016113585430156  0.4206497337374843  0.3070576553751465  1.0000
  O   O22       1.0  0.057893429553935505  0.4231570797568339  0.3431886648605555  1.0000
  O   O23       1.0  0.11927143981829151  0.3133502202665924  0.486768888685269  1.0000
  O   O24       1.0  0.23613328058500835  0.6422130654574831  0.4864500200597632  1.0000
