data_image0
_chemical_formula_structural       Zn8H120C184N16O48
_chemical_formula_sum              "Zn8 H120 C184 N16 O48"
_cell_length_a       15.103493243021054
_cell_length_b       15.857679726766081
_cell_length_c       24.170430673005164
_cell_angle_alpha    89.99995724105632
_cell_angle_beta     90.00007329002328
_cell_angle_gamma    111.81904099879205

_space_group_name_H-M_alt    "P 1"
_space_group_IT_number       1

loop_
  _space_group_symop_operation_xyz
  'x, y, z'

loop_
  _atom_site_type_symbol
  _atom_site_label
  _atom_site_symmetry_multiplicity
  _atom_site_fract_x
  _atom_site_fract_y
  _atom_site_fract_z
  _atom_site_occupancy
  Zn  Zn1       1.0  0.692122785147937  0.6424833551710591  0.27568904187760523  1.0000
  Zn  Zn2       1.0  0.3078765450166118  0.8575159433874336  0.7756877866447311  1.0000
  Zn  Zn3       1.0  0.3078765582095073  0.3575184561375765  0.7243119118490073  1.0000
  Zn  Zn4       1.0  0.6921238410305861  0.14248178408666945  0.22431233962596767  1.0000
  Zn  Zn5       1.0  0.8365286228943275  0.864799646039664  0.2754176389173751  1.0000
  Zn  Zn6       1.0  0.1634708467129613  0.6352016925068754  0.7754159638681701  1.0000
  Zn  Zn7       1.0  0.1634713817549169  0.13520216321174425  0.7245824873521658  1.0000
  Zn  Zn8       1.0  0.8365282167479435  0.3647960390823571  0.2245829212160119  1.0000
  H   H1        1.0  0.46689188021662176  0.1754674636709694  0.2987205140753773  1.0000
  H   H2        1.0  0.5331074617959928  0.32453138498143375  0.7987194556075539  1.0000
  H   H3        1.0  0.5331091799370354  0.8245336621982916  0.7012787847374327  1.0000
  H   H4        1.0  0.466892669985519  0.6754690636776388  0.20128025693371404  1.0000
  H   H5        1.0  0.13266859597641206  0.7755502644303861  0.27360607479796073  1.0000
  H   H6        1.0  0.8673315187447556  0.7244476724604568  0.7736057472606391  1.0000
  H   H7        1.0  0.8673323370449709  0.2244522220312177  0.7263936377431225  1.0000
  H   H8        1.0  0.13267006275415838  0.2755514114914347  0.22639355155288146  1.0000
  H   H9        1.0  0.6397751995120373  0.9569305765648155  0.3543619312701909  1.0000
  H   H10       1.0  0.3602242768010981  0.5430686848877002  0.8543612867912389  1.0000
  H   H11       1.0  0.36022307552556737  0.043068517673781115  0.6456390224566564  1.0000
  H   H12       1.0  0.6397742525021926  0.4569276881659335  0.14564008066504644  1.0000
  H   H13       1.0  0.46900003364087434  0.6714118047882564  0.35614386260261466  1.0000
  H   H14       1.0  0.5309975892374298  0.8285861014036371  0.856143214173436  1.0000
  H   H15       1.0  0.5310006194862851  0.3285866019533543  0.6438562636680275  1.0000
  H   H16       1.0  0.4690004059024844  0.1714089131158545  0.1438544297249891  1.0000
  H   H17       1.0  0.33683535340178844  0.7037651693029687  0.40404158287171316  1.0000
  H   H18       1.0  0.6631639481201291  0.7962333894506558  0.9040414700430193  1.0000
  H   H19       1.0  0.6631650326438746  0.2962325581715249  0.5959568884843309  1.0000
  H   H20       1.0  0.3368353824207376  0.20376502140609185  0.09595741504109873  1.0000
  H   H21       1.0  0.5089271717263841  0.9890390897449493  0.4027064790847846  1.0000
  H   H22       1.0  0.4910721273145811  0.5109594696385643  0.9027055415726724  1.0000
  H   H23       1.0  0.491070302070959  0.0109579666912225  0.5972940609135835  1.0000
  H   H24       1.0  0.5089272032289713  0.4890389412174941  0.09729623961209913  1.0000
  H   H25       1.0  0.4834221827055813  0.8351658931820438  0.4965178265425437  1.0000
  H   H26       1.0  0.5165758537039693  0.6648373871149006  0.9965184884981116  1.0000
  H   H27       1.0  0.516577694811012  0.1648372766618067  0.5034822997266204  1.0000
  H   H28       1.0  0.4834244052113448  0.33516170095144565  0.0034824652295384014  1.0000
  H   H29       1.0  0.2228738236013185  0.8876687552062207  0.5004609570957967  1.0000
  H   H30       1.0  0.7771228842724226  0.6123320399270542  0.0004614678607524001  1.0000
  H   H31       1.0  0.7771257740210443  0.11233033491763682  0.4995395829029194  1.0000
  H   H32       1.0  0.22287790880357508  0.38766840667411634  0.9995403133240973  1.0000
  H   H33       1.0  0.2223223231814019  0.8787353135938079  0.6035075300591971  1.0000
  H   H34       1.0  0.777675898703677  0.6212654288230228  0.10350803686107923  1.0000
  H   H35       1.0  0.7776763460680485  0.12126309932006053  0.3964925962106492  1.0000
  H   H36       1.0  0.2223245001593313  0.3787356991031743  0.8964933305947795  1.0000
  H   H37       1.0  0.48219905124561524  0.8275974585327432  0.5991999039469038  1.0000
  H   H38       1.0  0.5177990355048508  0.6724046465081559  0.09920059099444963  1.0000
  H   H39       1.0  0.5178016146958129  0.1724043486613454  0.40079980859423614  1.0000
  H   H40       1.0  0.4822007020648229  0.3275964834756522  0.9007999490038191  1.0000
  H   H41       1.0  0.8950638442212835  0.547013580303066  0.337503519025212  1.0000
  H   H42       1.0  0.10493679622702948  0.9529870455782684  0.8375028815321316  1.0000
  H   H43       1.0  0.1049358933487667  0.4529875496806426  0.6624974347017201  1.0000
  H   H44       1.0  0.8950624071796438  0.047012725871304915  0.16249434863694745  1.0000
  H   H45       1.0  0.051595878387772125  0.8317317335840217  0.3644674628171033  1.0000
  H   H46       1.0  0.9484050792320531  0.6682695588469657  0.8644684691430559  1.0000
  H   H47       1.0  0.9484061101376399  0.16827006949552734  0.6355310085385854  1.0000
  H   H48       1.0  0.051594785470655304  0.3317302105443006  0.13553248458426745  1.0000
  H   H49       1.0  0.0213548706156175  0.5100331517739818  0.3878783664991587  1.0000
  H   H50       1.0  0.978644935039334  0.9899667731382422  0.8878771697662347  1.0000
  H   H51       1.0  0.9786439385819107  0.48996730099963776  0.6121225872275745  1.0000
  H   H52       1.0  0.0213558580328268  0.0100336734639015  0.11212047413197725  1.0000
  H   H53       1.0  0.17796769346522717  0.7946492815913403  0.4157388473318521  1.0000
  H   H54       1.0  0.8220334865315237  0.7053506260654389  0.9157389066397389  1.0000
  H   H55       1.0  0.8220340279817647  0.20535184222030983  0.5842612789385485  1.0000
  H   H56       1.0  0.1779675736232846  0.29465049980353103  0.0842616333590627  1.0000
  H   H57       1.0  0.2936022966355978  0.6145911645646649  0.5050857117830463  1.0000
  H   H58       1.0  0.7063990488768256  0.8854096139855728  0.005085617467742101  1.0000
  H   H59       1.0  0.7063961183489269  0.3854099695339813  0.4949148282146966  1.0000
  H   H60       1.0  0.29360319391543044  0.11458946790870782  0.9949145088033692  1.0000
  H   H61       1.0  0.026231823155626405  0.653688751336766  0.49467949164127145  1.0000
  H   H62       1.0  0.9737681809014518  0.8463111232027176  0.9946796030319336  1.0000
  H   H63       1.0  0.9737669860411343  0.3463117014370454  0.5053206346281273  1.0000
  H   H64       1.0  0.02623273930566231  0.15368796280640143  0.005320523238644602  1.0000
  H   H65       1.0  0.28673537997772763  0.6222234866567646  0.6084177509094816  1.0000
  H   H66       1.0  0.713266157491205  0.8777772431572191  0.10841766586135294  1.0000
  H   H67       1.0  0.7132651588318168  0.3777796811295673  0.39158278908860933  1.0000
  H   H68       1.0  0.2867347627155254  0.1222218428519994  0.8915820466805616  1.0000
  H   H69       1.0  0.020175484546832947  0.6608533643874426  0.5972593724959767  1.0000
  H   H70       1.0  0.9798251038216179  0.8391466934791226  0.0972599338462672  1.0000
  H   H71       1.0  0.9798226633565789  0.3391470904439871  0.4027399263158244  1.0000
  H   H72       1.0  0.020175816385879803  0.16085239252990394  0.9027406061529748  1.0000
  H   H73       1.0  0.7004172148292013  0.4548571490683956  0.2909308554624631  1.0000
  H   H74       1.0  0.29958264687385144  0.0451430617927144  0.7909309888201719  1.0000
  H   H75       1.0  0.29958450661703045  0.5451439747434537  0.7090684433506098  1.0000
  H   H76       1.0  0.7004172178280826  0.9548567075987507  0.20906913744981648  1.0000
  H   H77       1.0  0.487074664730514  0.5607960603810298  0.2959720276298087  1.0000
  H   H78       1.0  0.5129256314864818  0.9392039058209182  0.7959717238932243  1.0000
  H   H79       1.0  0.5129271838499035  0.4392037028379859  0.7040289260983031  1.0000
  H   H80       1.0  0.4870751615875974  0.06079654078073561  0.20402798864830635  1.0000
  H   H81       1.0  0.584376010880625  0.29743669798368433  0.2868651361973562  1.0000
  H   H82       1.0  0.4156242374815307  0.2025628334702674  0.7868644574584068  1.0000
  H   H83       1.0  0.4156259776467123  0.7025651050953741  0.7131354038016442  1.0000
  H   H84       1.0  0.5843746988471069  0.7974362587113006  0.21313484135404798  1.0000
  H   H85       1.0  0.3593621715885717  0.4043933030232836  0.2925074511864737  1.0000
  H   H86       1.0  0.6406390156286363  0.09560690297932692  0.7925078329766537  1.0000
  H   H87       1.0  0.6406386214858913  0.5956071435782706  0.7074926750837278  1.0000
  H   H88       1.0  0.35936204452617193  0.9043942228896426  0.20749270702214065  1.0000
  H   H89       1.0  0.3704322504225246  0.025705195752316  0.3457635301372194  1.0000
  H   H90       1.0  0.6295688957784762  0.47429294527252347  0.8457628888435312  1.0000
  H   H91       1.0  0.6295710606880291  0.9742966032123945  0.6542349412189952  1.0000
  H   H92       1.0  0.3704318972952194  0.5257075013292294  0.15423640996933594  1.0000
  H   H93       1.0  0.2845603554564136  0.12122154411356689  0.19595770127412493  1.0000
  H   H94       1.0  0.7154381343646677  0.3787773550640027  0.6959567621728838  1.0000
  H   H95       1.0  0.7154399162724019  0.8787809444054561  0.8040420112666952  1.0000
  H   H96       1.0  0.2845608019643535  0.621221737117473  0.3040429503682348  1.0000
  H   H97       1.0  0.17045021052441464  0.964866683085667  0.17565040348856806  1.0000
  H   H98       1.0  0.8295505234673114  0.5351333378082829  0.6756497253085599  1.0000
  H   H99       1.0  0.8295513837895497  0.0351358013185106  0.824349309052785  1.0000
  H   H100      1.0  0.17045000252642237  0.464866429525962  0.3243495735043639  1.0000
  H   H101      1.0  0.2576226472551114  0.8696387308518043  0.32524564491149743  1.0000
  H   H102      1.0  0.7423782246877054  0.630359179625984  0.825245263638351  1.0000
  H   H103      1.0  0.742379341271075  0.13036307222755283  0.6747536539015188  1.0000
  H   H104      1.0  0.25762296259860307  0.369640585650842  0.17475403517484275  1.0000
  H   H105      1.0  0.15230366984224014  0.6381983925940985  0.22620108616872875  1.0000
  H   H106      1.0  0.8476961025504933  0.8618022878401561  0.7262002614294545  1.0000
  H   H107      1.0  0.8476955335678936  0.36180137885459374  0.7737998675583243  1.0000
  H   H108      1.0  0.152302439565922  0.13819748566624673  0.27379945111134424  1.0000
  H   H109      1.0  0.9070830432235509  0.6973874772680521  0.17525317136370694  1.0000
  H   H110      1.0  0.09291940683385749  0.8026118583720034  0.6752588043286211  1.0000
  H   H111      1.0  0.09291748277018999  0.3026122900661932  0.8247461274492167  1.0000
  H   H112      1.0  0.9070803307358091  0.1973892716118044  0.32474173566964754  1.0000
  H   H113      1.0  0.04343135856782251  0.47407162712784884  0.23457577863928242  1.0000
  H   H114      1.0  0.9565690597374186  0.025928608255909997  0.7345743793332745  1.0000
  H   H115      1.0  0.9565687732144569  0.5259288215310322  0.7654247613593131  1.0000
  H   H116      1.0  0.04342815979270407  0.9740711693656224  0.2654240920210001  1.0000
  H   H117      1.0  0.8081908715601072  0.5318368191501932  0.18680240822621397  1.0000
  H   H118      1.0  0.1918108115247961  0.9681638736930438  0.6868059701548788  1.0000
  H   H119      1.0  0.19181018859354987  0.4681643067190677  0.8131968905865962  1.0000
  H   H120      1.0  0.8081865479545556  0.0318379437879486  0.313194569842267  1.0000
  C   C1        1.0  0.6434807798260422  0.7928412221775006  0.32775591026712914  1.0000
  C   C2        1.0  0.35651612902426427  0.7071566994609241  0.8277551818948015  1.0000
  C   C3        1.0  0.35651842358370806  0.20715854927129132  0.6722446297312601  1.0000
  C   C4        1.0  0.6434792209472917  0.2928383232877536  0.17224453064589085  1.0000
  C   C5        1.0  0.5629182611897718  0.8120666096949593  0.3533656775709489  1.0000
  C   C6        1.0  0.43708055197969037  0.6879326542849571  0.8533646095138611  1.0000
  C   C7        1.0  0.43708187059289133  0.18793383896382213  0.6466352761563103  1.0000
  C   C8        1.0  0.5629177102421039  0.3120630395015525  0.14663510302782612  1.0000
  C   C9        1.0  0.5734481658995988  0.9018095620800112  0.3651527893096117  1.0000
  C   C10       1.0  0.42654974079351154  0.5981890191305438  0.8651513433431222  1.0000
  C   C11       1.0  0.4265507704301896  0.0981895301012727  0.6348477506888416  1.0000
  C   C12       1.0  0.5734487885082444  0.4018073539234734  0.1348483691985081  1.0000
  C   C13       1.0  0.47688862023817796  0.7407770242267447  0.36614491166353963  1.0000
  C   C14       1.0  0.5231112721760595  0.7592215503435256  0.8661438773930572  1.0000
  C   C15       1.0  0.5231124271015872  0.259220701189939  0.6338552146074294  1.0000
  C   C16       1.0  0.4768891138696034  0.240776177130968  0.13385459396299382  1.0000
  C   C17       1.0  0.4034493039539484  0.7581963515743553  0.39249939386283483  1.0000
  C   C18       1.0  0.5965477251683424  0.7418015395279483  0.892498840764347  1.0000
  C   C19       1.0  0.5965472414697075  0.24180002765201183  0.6074999049493287  1.0000
  C   C20       1.0  0.40345107121222407  0.2581955127938684  0.10749963059122793  1.0000
  C   C21       1.0  0.5006798552958144  0.9200143557822571  0.39156312495379103  1.0000
  C   C22       1.0  0.4993184946715771  0.5799835316469952  0.891561746281582  1.0000
  C   C23       1.0  0.4993174913696521  0.0799840612461509  0.6084382425015208  1.0000
  C   C24       1.0  0.5006793733379952  0.420012843464349  0.10843837998844921  1.0000
  C   C25       1.0  0.41759571472211116  0.8478301176956363  0.40594349037841243  1.0000
  C   C26       1.0  0.5824031961199267  0.6521691214859759  0.905942970147713  1.0000
  C   C27       1.0  0.5824026874473772  0.1521676159507237  0.5940566358914978  1.0000
  C   C28       1.0  0.41759586734252  0.34782861010286575  0.09405756985112393  1.0000
  C   C29       1.0  0.3528165460922921  0.8619416925685429  0.4925430763281541  1.0000
  C   C30       1.0  0.6471809487732969  0.6380602310681383  0.9925434424264171  1.0000
  C   C31       1.0  0.6471846540098197  0.1380614731603701  0.5074574636701997  1.0000
  C   C32       1.0  0.35281652502443006  0.3619368253679341  0.007457511300614802  1.0000
  C   C33       1.0  0.42646899280154577  0.8451215364602122  0.5198562352248005  1.0000
  C   C34       1.0  0.5735294807143916  0.6548819645379994  0.019856561847390708  1.0000
  C   C35       1.0  0.5735331356727116  0.1548823064788891  0.4801438910450956  1.0000
  C   C36       1.0  0.42646931566885377  0.3451150877831425  0.9801448056088379  1.0000
  C   C37       1.0  0.27950356203148624  0.8748039664059276  0.522532166018401  1.0000
  C   C38       1.0  0.7204931868439246  0.6251968183173419  0.0225334525136063  1.0000
  C   C39       1.0  0.7204964426177581  0.12519784284548763  0.47746796025113986  1.0000
  C   C40       1.0  0.27950719920404055  0.3748009091565621  0.9774675012144274  1.0000
  C   C41       1.0  0.27958333796252066  0.8698825124709799  0.5798368971108376  1.0000
  C   C42       1.0  0.7204147128173234  0.6301196017025747  0.07983693992922271  1.0000
  C   C43       1.0  0.7204177221922875  0.1301186133979897  0.42016364288796393  1.0000
  C   C44       1.0  0.2795842235120817  0.3698794904788017  0.9201631863405669  1.0000
  C   C45       1.0  0.425570354026938  0.8408437792785294  0.5773252160462193  1.0000
  C   C46       1.0  0.5744288875397956  0.6591596925571966  0.07732554127964873  1.0000
  C   C47       1.0  0.5744317744477101  0.15916006366047952  0.4226753239523334  1.0000
  C   C48       1.0  0.42557071008256037  0.3408393975666685  0.9226749987190676  1.0000
  C   C49       1.0  0.3526772367480504  0.8531287032684958  0.6080321252797918  1.0000
  C   C50       1.0  0.6473208664098423  0.6468733976066902  0.10803292871624143  1.0000
  C   C51       1.0  0.6473218395286581  0.1468724287728236  0.39196800098955015  1.0000
  C   C52       1.0  0.35267965958543357  0.35312636972716394  0.8919680250113374  1.0000
  C   C53       1.0  0.3547881287110711  0.8505221051657941  0.6694389763226738  1.0000
  C   C54       1.0  0.6452084988548136  0.64947929159446  0.1694393630529163  1.0000
  C   C55       1.0  0.6452094850331987  0.1494769911304203  0.3305611499465827  1.0000
  C   C56       1.0  0.3547883264642381  0.3505211673516087  0.8305607632156866  1.0000
  C   C57       1.0  0.8865396136774777  0.712827703628854  0.3228396896708858  1.0000
  C   C58       1.0  0.11346032542241595  0.7871695307738449  0.8228383133259387  1.0000
  C   C59       1.0  0.11346131934391221  0.28717478283275005  0.6771600228701973  1.0000
  C   C60       1.0  0.8865387252246036  0.21282480036281026  0.17716139921640214  1.0000
  C   C61       1.0  0.9650246004025219  0.6913107150008031  0.3490883278086088  1.0000
  C   C62       1.0  0.03497672285870831  0.808689903359266  0.849087291683347  1.0000
  C   C63       1.0  0.03497606553890622  0.3086910921932927  0.6509113847325383  1.0000
  C   C64       1.0  0.9650235360543036  0.19130918470766284  0.15091117967230624  1.0000
  C   C65       1.0  0.9574315941001642  0.6008785228859566  0.3543828327832515  1.0000
  C   C66       1.0  0.042567488039559065  0.8991214198815386  0.8543825856016202  1.0000
  C   C67       1.0  0.04256655380363843  0.3991219319453735  0.6456168797572135  1.0000
  C   C68       1.0  0.9574314482883111  0.1008776723002285  0.14561588575350734  1.0000
  C   C69       1.0  0.04572761050887663  0.7616379603686667  0.36988566833840514  1.0000
  C   C70       1.0  0.9542734843087928  0.7383619689144112  0.8698866447997703  1.0000
  C   C71       1.0  0.9542741109377316  0.2383631634430756  0.6301140442033317  1.0000
  C   C72       1.0  0.045727970059005016  0.26163847562953185  0.13011430892802175  1.0000
  C   C73       1.0  0.027387060995103223  0.5800706469583191  0.38229342840566727  1.0000
  C   C74       1.0  0.9726132684444551  0.9199306391231376  0.8822918476498104  1.0000
  C   C75       1.0  0.972611748203185  0.4199298058151016  0.6177083527783938  1.0000
  C   C76       1.0  0.0273881859214313  0.0800698054212958  0.11770703743465565  1.0000
  C   C77       1.0  0.11567083584398563  0.7414866603086311  0.3981665379161826  1.0000
  C   C78       1.0  0.8843287218445749  0.7585125804832983  0.8981670346585562  1.0000
  C   C79       1.0  0.8843284946976481  0.2585117505479104  0.601833174625263  1.0000
  C   C80       1.0  0.11567207123027151  0.2414878661181632  0.10183350534030212  1.0000
  C   C81       1.0  0.10403778965562077  0.6505562832027252  0.4054245976360279  1.0000
  C   C82       1.0  0.8959607260107845  0.849443637548319  0.905425058856814  1.0000
  C   C83       1.0  0.8959619479132854  0.34944484678128174  0.5945751149049131  1.0000
  C   C84       1.0  0.10404033414402392  0.1505574883206506  0.09457548114198741  1.0000
  C   C85       1.0  0.16095685272213708  0.6340792559821866  0.4940362023873136  1.0000
  C   C86       1.0  0.8390442056457559  0.8659199354781889  0.9940370235975708  1.0000
  C   C87       1.0  0.8390432790597587  0.3659211926767868  0.505963923882618  1.0000
  C   C88       1.0  0.160958304227222  0.1340798256834077  0.005963930130811002  1.0000
  C   C89       1.0  0.23415020581487064  0.6245178577313056  0.5258250760014604  1.0000
  C   C90       1.0  0.7658501227196337  0.8754835944195066  0.025825447954204606  1.0000
  C   C91       1.0  0.7658497988339904  0.37548395152020225  0.4741746365394165  1.0000
  C   C92       1.0  0.2341507974874801  0.1245154915896123  0.9741746783163807  1.0000
  C   C93       1.0  0.08344675271067815  0.6468790980687943  0.5193956666566991  1.0000
  C   C94       1.0  0.9165530297207101  0.8531209985792858  0.0193965841385975  1.0000
  C   C95       1.0  0.9165516622726956  0.35312203603014325  0.4806036321550452  1.0000
  C   C96       1.0  0.0834465679020298  0.1468780915444796  0.9806043695887826  1.0000
  C   C97       1.0  0.22993868213743698  0.6286890692440393  0.5830834655218811  1.0000
  C   C98       1.0  0.7700624140574207  0.8713123538434148  0.08308467036444263  1.0000
  C   C99       1.0  0.7700614624595018  0.3713147798672267  0.41691707447587606  1.0000
  C   C100      1.0  0.22993731069720275  0.12868537568810723  0.9169154559059935  1.0000
  C   C101      1.0  0.0800500104603117  0.6507852565742668  0.5768741602184094  1.0000
  C   C102      1.0  0.9199510741986928  0.8492161694420448  0.07687425489167773  1.0000
  C   C103      1.0  0.9199490658164038  0.3492158754670599  0.4231259660509253  1.0000
  C   C104      1.0  0.0800501130879923  0.15078359583468176  0.92312545765018  1.0000
  C   C105      1.0  0.15303643421945884  0.6418005453670191  0.6092811442320426  1.0000
  C   C106      1.0  0.8469653719338267  0.8582008633071325  0.10928158971255195  1.0000
  C   C107      1.0  0.846962247844651  0.3582012679992275  0.39071898203697236  1.0000
  C   C108      1.0  0.15303528119333273  0.14179754343447837  0.8907185365580904  1.0000
  C   C109      1.0  0.14709139485845674  0.6440449895740843  0.6705539427635048  1.0000
  C   C110      1.0  0.8529094696137136  0.8559570735833759  0.17055398038600345  1.0000
  C   C111      1.0  0.852905163379859  0.3559547901046686  0.3294453560478346  1.0000
  C   C112      1.0  0.14708960666185078  0.14404405845823479  0.8294449046973471  1.0000
  C   C113      1.0  0.6242862459442692  0.441601535113719  0.2911099727373526  1.0000
  C   C114      1.0  0.37571388317115156  0.058399354930500594  0.7911097468399151  1.0000
  C   C115      1.0  0.3757157425834521  0.5584002679652471  0.7088909809903188  1.0000
  C   C116      1.0  0.6242866428233569  0.9416004124035455  0.20889037943033634  1.0000
  C   C117      1.0  0.504485673335367  0.5000879912803172  0.29441270623979693  1.0000
  C   C118      1.0  0.49551501419711036  0.9999112943322573  0.7944119448827466  1.0000
  C   C119      1.0  0.4955151197406309  0.49991245532085327  0.70558907494506  1.0000
  C   C120      1.0  0.5044857788777363  8.915226919730051e-05  0.2055885951161117  1.0000
  C   C121      1.0  0.558095541453298  0.3527832615718012  0.2889606477045136  1.0000
  C   C122      1.0  0.441904443721704  0.14721558962629194  0.7889600173215571  1.0000
  C   C123      1.0  0.44190750257883593  0.6472178581250106  0.71103947856642  1.0000
  C   C124      1.0  0.5580944926073172  0.8527835025551838  0.21103969521956153  1.0000
  C   C125      1.0  0.43440863840002913  0.4138314979665694  0.29244831573100794  1.0000
  C   C126      1.0  0.5655913532540211  0.0861673515865462  0.7924478145766329  1.0000
  C   C127      1.0  0.5655932101807721  0.5861682652523469  0.7075530517257747  1.0000
  C   C128      1.0  0.43440877852825815  0.9138330970723345  0.20755272542196226  1.0000
  C   C129      1.0  0.4608207090745751  0.3383060045290095  0.2877194263035322  1.0000
  C   C130      1.0  0.5391788795824867  0.1616935285793204  0.7877192804645574  1.0000
  C   C131      1.0  0.5391803510798425  0.6616951213400598  0.7122806999666055  1.0000
  C   C132      1.0  0.4608209851190636  0.838306240812244  0.21228043207676714  1.0000
  C   C133      1.0  0.3814965656598801  0.24836290507732173  0.27707004087569953  1.0000
  C   C134      1.0  0.6185031303460775  0.2516352724615132  0.7770690867927926  1.0000
  C   C135      1.0  0.618503566122399  0.7516375435815591  0.7229304991228961  1.0000
  C   C136      1.0  0.3814973956484309  0.7483644948725399  0.22293103947746576  1.0000
  C   C137      1.0  0.3346185510351631  0.08403850486065782  0.2722977024676326  1.0000
  C   C138      1.0  0.6653816702648712  0.4159610334641571  0.7722962911846526  1.0000
  C   C139      1.0  0.6653830432780267  0.9159639795437187  0.7277011826163858  1.0000
  C   C140      1.0  0.3346195170214373  0.584038731812669  0.2277030076285413  1.0000
  C   C141      1.0  0.3261459141195786  0.012664040589299902  0.3087335589589345  1.0000
  C   C142      1.0  0.673853573626616  0.4873334427480316  0.8087325329953787  1.0000
  C   C143      1.0  0.6738567356991753  0.9873377604326309  0.6912657398543446  1.0000
  C   C144      1.0  0.32614734657973077  0.5126656432612862  0.19126676581787194  1.0000
  C   C145      1.0  0.2781297522556514  0.06608215960506672  0.2244127286443459  1.0000
  C   C146      1.0  0.7218698459305555  0.4339160427694325  0.7244117675043713  1.0000
  C   C147      1.0  0.7218709136853932  0.9339196475891286  0.7755865701681304  1.0000
  C   C148      1.0  0.2781304129839911  0.5660830452971056  0.2755883587659441  1.0000
  C   C149      1.0  0.213600485664422  0.978834266293866  0.2129985313261075  1.0000
  C   C150      1.0  0.7863993893351235  0.5211650597748729  0.7129978254539466  1.0000
  C   C151      1.0  0.786401108649535  0.021168218110318503  0.7870011812152455  1.0000
  C   C152      1.0  0.21360153087160674  0.47883402623434534  0.2870018870879748  1.0000
  C   C153      1.0  0.26204691753529374  0.9253182345832444  0.2975580832765986  1.0000
  C   C154      1.0  0.7379532416803156  0.5746796910108146  0.7975573121880757  1.0000
  C   C155      1.0  0.7379548039109308  0.07468288922859762  0.7024412155364745  1.0000
  C   C156      1.0  0.2620486068981762  0.42532007220869167  0.202441572896717  1.0000
  C   C157      1.0  0.20495090561428245  0.9075705283935778  0.24979805521520154  1.0000
  C   C158      1.0  0.7950488977988074  0.5924267404589261  0.7497969074018089  1.0000
  C   C159      1.0  0.7950504216197201  0.09243127674309194  0.7502016573262154  1.0000
  C   C160      1.0  0.20495148824800677  0.40757098701526934  0.25020280514023346  1.0000
  C   C161      1.0  0.09821131425006503  0.7788437482718821  0.19269769630007977  1.0000
  C   C162      1.0  0.9017903797838825  0.7211569417914773  0.6926986391867376  1.0000
  C   C163      1.0  0.9017890846110177  0.22115737965479812  0.8073016025124603  1.0000
  C   C164      1.0  0.09821014621024202  0.278842825542668  0.3073010733548572  1.0000
  C   C165      1.0  0.0372668536087701  0.6797444246045146  0.1993909986484539  1.0000
  C   C166      1.0  0.962733797355078  0.8202569456840153  0.6993931826886738  1.0000
  C   C167      1.0  0.9627328839601289  0.3202567053794852  0.8006087138924871  1.0000
  C   C168      1.0  0.03726567313348279  0.17974350503256886  0.30060611612366034  1.0000
  C   C169      1.0  0.07643191094269496  0.6166923802606448  0.21658807555317597  1.0000
  C   C170      1.0  0.9235704887629765  0.8833082964777788  0.716587714740662  1.0000
  C   C171      1.0  0.9235707388772169  0.3833094207609946  0.7834124644460946  1.0000
  C   C172      1.0  0.07642646368718431  0.11669080187624561  0.28341075661366943  1.0000
  C   C173      1.0  0.939876621126615  0.6495377749106341  0.1873659304101168  1.0000
  C   C174      1.0  0.06012558435072888  0.8504608757493699  0.6873698585821445  1.0000
  C   C175      1.0  0.0601235106541296  0.3504626737486376  0.8126329546738165  1.0000
  C   C176      1.0  0.9398736190586378  0.14953889569952133  0.3126302676875811  1.0000
  C   C177      1.0  0.016767591115126455  0.5258400287305565  0.22104682786458343  1.0000
  C   C178      1.0  0.9832334942879016  0.9741606500198402  0.7210460563322556  1.0000
  C   C179      1.0  0.9832333290923714  0.474159057278463  0.7789537121346584  1.0000
  C   C180      1.0  0.0167645264817082  0.025841165404315802  0.2789520012931632  1.0000
  C   C181      1.0  0.8849059848803406  0.5579580766889335  0.19393594215598853  1.0000
  C   C182      1.0  0.1150950501636742  0.9420426148472175  0.6939394554875664  1.0000
  C   C183      1.0  0.11509427403343854  0.4420410113778032  0.8060633566569992  1.0000
  C   C184      1.0  0.884903237687432  0.05795987984405569  0.30606025705245804  1.0000
  N   N1        1.0  0.5981556299644452  0.5140759121312614  0.2924297388354163  1.0000
  N   N2        1.0  0.4018437312995218  0.9859233785313323  0.792429323038448  1.0000
  N   N3        1.0  0.4018451631115525  0.48592453446990197  0.7075720423494404  1.0000
  N   N4        1.0  0.5981564004827575  0.014077070127548606  0.20757121696014746  1.0000
  N   N5        1.0  0.40144417365319635  0.1721359367590765  0.28397478534480314  1.0000
  N   N6        1.0  0.59855421259428  0.3278622416380017  0.7839737776830733  1.0000
  N   N7        1.0  0.5985564922870809  0.8278658704353108  0.7160236860103455  1.0000
  N   N8        1.0  0.40144631339983766  0.6721375256961437  0.21602593485852145  1.0000
  N   N9        1.0  0.1412749907364343  0.8183669777311238  0.24098645860240006  1.0000
  N   N10       1.0  0.8587262588412514  0.681632331022165  0.7409865590124484  1.0000
  N   N11       1.0  0.8587251410454612  0.18163347092785637  0.7590136676675314  1.0000
  N   N12       1.0  0.1412769123227662  0.3183674280824036  0.2590127398015484  1.0000
  N   N13       1.0  0.9225444683454285  0.49696944005368954  0.21022695216520765  1.0000
  N   N14       1.0  0.0774566931554546  0.003029444163644301  0.7102281694669518  1.0000
  N   N15       1.0  0.07745671894087279  0.5030303252231363  0.7897723466479863  1.0000
  N   N16       1.0  0.9225398650828679  0.9969703355151083  0.2897711293443877  1.0000
  O   O1        1.0  0.7203695272278949  0.8600929374343025  0.3183824878727251  1.0000
  O   O2        1.0  0.2796306834879658  0.6399083787901673  0.8183825585063148  1.0000
  O   O3        1.0  0.2796307445024624  0.1399095510843296  0.6816188795827501  1.0000
  O   O4        1.0  0.7203693083470099  0.36009003000876305  0.18161798149272812  1.0000
  O   O5        1.0  0.6283189136440868  0.7096742702884953  0.317459045700062  1.0000
  O   O6        1.0  0.3716794386108831  0.7903256919514308  0.8174587021920845  1.0000
  O   O7        1.0  0.3716808239263543  0.2903268596951136  0.6825423217555414  1.0000
  O   O8        1.0  0.6283184293986893  0.20967068315990642  0.18254142407794666  1.0000
  O   O9        1.0  0.3473583444746994  0.8662127032303745  0.4356326266581548  1.0000
  O   O10       1.0  0.65263756932314  0.6337838110504563  0.9356329992375977  1.0000
  O   O11       1.0  0.6526392564549114  0.13378299261346172  0.5643674996119332  1.0000
  O   O12       1.0  0.3473584419421343  0.3662112096405039  0.06436795448934873  1.0000
  O   O13       1.0  0.42483494442432596  0.8436460052540794  0.6947695435627921  1.0000
  O   O14       1.0  0.5751642482341097  0.6563567319220596  0.19476904331035888  1.0000
  O   O15       1.0  0.5751639919050786  0.15635308692729674  0.3052305827069973  1.0000
  O   O16       1.0  0.42483364540323276  0.34364644409443923  0.8052294280433403  1.0000
  O   O17       1.0  0.2825988633902553  0.8574640273103711  0.6953578053228072  1.0000
  O   O18       1.0  0.7173974052977314  0.6425346380976719  0.19535908078634637  1.0000
  O   O19       1.0  0.7173995387788492  0.14253370633608142  0.30464190721843215  1.0000
  O   O20       1.0  0.28259795749001887  0.3574637851029935  0.8046422866681626  1.0000
  O   O21       1.0  0.8992097648413947  0.7964016291149252  0.3178356259441629  1.0000
  O   O22       1.0  0.10078753260548722  0.703599016330358  0.8178326257445862  1.0000
  O   O23       1.0  0.1007881287997989  0.20360154690059323  0.6821669826961881  1.0000
  O   O24       1.0  0.8992102082710433  0.2963987193735136  0.18216708679639035  1.0000
  O   O25       1.0  0.8125171490693288  0.6454262959665584  0.3082818061165754  1.0000
  O   O26       1.0  0.1874830300672343  0.8545716245697224  0.8082808695812744  1.0000
  O   O27       1.0  0.18748365681786786  0.35457755108787126  0.6917162515094688  1.0000
  O   O28       1.0  0.8125194669907074  0.14542473613958867  0.1917196704192818  1.0000
  O   O29       1.0  0.1700555186932959  0.6294167705456317  0.4371836827660547  1.0000
  O   O30       1.0  0.8299438443972276  0.8705817725762017  0.9371853218421438  1.0000
  O   O31       1.0  0.8299440789282998  0.3705823195784249  0.5628160297753342  1.0000
  O   O32       1.0  0.17005787705092246  0.12941935123514983  0.06281604561424813  1.0000
  O   O33       1.0  0.07342088524478643  0.6457411606121326  0.6944450882794584  1.0000
  O   O34       1.0  0.9265816132750971  0.8542615664296066  0.1944460132352576  1.0000
  O   O35       1.0  0.9265749988863093  0.3542552206716537  0.3055542105324492  1.0000
  O   O36       1.0  0.07342078227988938  0.14574295577681798  0.8055549404919093  1.0000
  O   O37       1.0  0.2196130454515881  0.6423231364440909  0.69902719265901  1.0000
  O   O38       1.0  0.7803885332072937  0.8576789112265504  0.19902758504300525  1.0000
  O   O39       1.0  0.780385903691709  0.3576793561898625  0.3009721061526137  1.0000
  O   O40       1.0  0.21961093728087633  0.1423215394901405  0.800971300040665  1.0000
  O   O41       1.0  0.1062012490197901  0.817347837851507  0.14757064966783426  1.0000
  O   O42       1.0  0.8938012895549149  0.6826535507061707  0.6475707776831146  1.0000
  O   O43       1.0  0.89379756017658  0.1826526149224037  0.8524290628729007  1.0000
  O   O44       1.0  0.10620016481134803  0.31734689383816334  0.35242852113002254  1.0000
  O   O45       1.0  0.3023957823964807  0.2471365944266495  0.2618700320817809  1.0000
  O   O46       1.0  0.6976028298678046  0.2528622736635526  0.7618691407842705  1.0000
  O   O47       1.0  0.6976048835472568  0.7528652127668564  0.7381321628313489  1.0000
  O   O48       1.0  0.3023961064631422  0.74713681851744  0.23813264040017404  1.0000
