data_image0
_chemical_formula_structural       Ag8H40C16S12O20
_chemical_formula_sum              "Ag8 H40 C16 S12 O20"
_cell_length_a       6.8776390280111395
_cell_length_b       9.590243897509305
_cell_length_c       14.703965164844387
_cell_angle_alpha    89.99880358525975
_cell_angle_beta     90.00014752730033
_cell_angle_gamma    89.99986226836072

_space_group_name_H-M_alt    "P 1"
_space_group_IT_number       1

loop_
  _space_group_symop_operation_xyz
  'x, y, z'

loop_
  _atom_site_type_symbol
  _atom_site_label
  _atom_site_symmetry_multiplicity
  _atom_site_fract_x
  _atom_site_fract_y
  _atom_site_fract_z
  _atom_site_occupancy
  Ag  Ag1       1.0  0.1364528242842766  0.7512406969709531  0.6220191181835446  1.0000
  Ag  Ag2       1.0  0.3635417371358756  0.25124591153959847  0.6220144348905734  1.0000
  Ag  Ag3       1.0  0.13646515259201664  0.7512260934857978  0.8779908890334622  1.0000
  Ag  Ag4       1.0  0.6364704404859721  0.7487646350819901  0.12200805340109609  1.0000
  Ag  Ag5       1.0  0.86354114794527  0.24874690425983204  0.3779826219704461  1.0000
  Ag  Ag6       1.0  0.6364653209419869  0.7487615015134425  0.37798526487308237  1.0000
  Ag  Ag7       1.0  0.8635564453642034  0.24877819137524426  0.12200881075994369  1.0000
  Ag  Ag8       1.0  0.3635395255914063  0.2512240089274727  0.8779896062236927  1.0000
  H   H1        1.0  0.6873034098322961  0.5659200850823967  0.5910902591188218  1.0000
  H   H2        1.0  0.8126859090304706  0.06592330477685951  0.5910875541501426  1.0000
  H   H3        1.0  0.6873231763139247  0.5659211561443486  0.9089106530023299  1.0000
  H   H4        1.0  0.1873086525091736  0.9340788663023575  0.0910917517622849  1.0000
  H   H5        1.0  0.31268474641591854  0.4340758580753176  0.4089046800892929  1.0000
  H   H6        1.0  0.187305155217345  0.934066381931409  0.40891282581082317  1.0000
  H   H7        1.0  0.31269115171144796  0.43407270152625443  0.091084966324317  1.0000
  H   H8        1.0  0.8126925896315242  0.06592333310192798  0.9089093082099707  1.0000
  H   H9        1.0  0.7021586517287945  0.4769199082992159  0.4841999673525379  1.0000
  H   H10       1.0  0.7978185762212747  0.9769175343788278  0.4842041671420745  1.0000
  H   H11       1.0  0.7021675553071844  0.47692337950304875  0.0157929816556575  1.0000
  H   H12       1.0  0.20216794639846816  0.023077022921413004  0.9842038785513763  1.0000
  H   H13       1.0  0.297828050532253  0.5230770775750458  0.5157956519363864  1.0000
  H   H14       1.0  0.2021637641187297  0.0230690240915905  0.5158002933664463  1.0000
  H   H15       1.0  0.29782496288918736  0.52307882003106  0.9842005973359987  1.0000
  H   H16       1.0  0.7978332957619332  0.976921005499811  0.0158019420693734  1.0000
  H   H17       1.0  0.006615183845816801  0.4602416647537382  0.6399277171396207  1.0000
  H   H18       1.0  0.49337443603038633  0.9602410278718525  0.6399307949805078  1.0000
  H   H19       1.0  0.006624506688787301  0.4602443293714842  0.8600751374930837  1.0000
  H   H20       1.0  0.5066305691686637  0.039750165081144914  0.1399235247906319  1.0000
  H   H21       1.0  0.9933686104429144  0.539758449257775  0.3600706224812881  1.0000
  H   H22       1.0  0.5066064503007368  0.0397497015940189  0.3600682247899698  1.0000
  H   H23       1.0  0.9933840053931321  0.5397516137015189  0.1399238822593958  1.0000
  H   H24       1.0  0.4933735809502339  0.9602509915831094  0.8600782152790245  1.0000
  H   H25       1.0  0.8291330476874564  0.33129884847536323  0.6145502107691668  1.0000
  H   H26       1.0  0.6708642630772772  0.8312987862588415  0.6145528956838929  1.0000
  H   H27       1.0  0.8291439625937116  0.3313017277770244  0.8854506077292612  1.0000
  H   H28       1.0  0.32914060404122847  0.16869844833374262  0.11455048770570639  1.0000
  H   H29       1.0  0.17085510857251054  0.6687012654767912  0.38545152929771126  1.0000
  H   H30       1.0  0.32911807725025716  0.1686909004350028  0.3854488444490798  1.0000
  H   H31       1.0  0.17086309550056467  0.66869212986677  0.114547051858942  1.0000
  H   H32       1.0  0.6708635460958449  0.8313006227890442  0.8854566930871783  1.0000
  H   H33       1.0  0.788927200100375  0.6760939532640152  0.750005222826715  1.0000
  H   H34       1.0  0.7110437247255774  0.1760858839837454  0.7500071547335094  1.0000
  H   H35       1.0  0.288957517422034  0.8239131872304031  0.24999458534830404  1.0000
  H   H36       1.0  0.21106241010203772  0.32392701528038975  0.2499924365697836  1.0000
  H   H37       1.0  0.8433002404536439  0.842656926353506  0.7500007430398127  1.0000
  H   H38       1.0  0.6567224883086454  0.3426541675201876  0.7500039688767541  1.0000
  H   H39       1.0  0.3432889317468907  0.6573469891375937  0.2499977711973287  1.0000
  H   H40       1.0  0.15671990348251802  0.15736299944844495  0.2499962362935904  1.0000
  C   C1        1.0  0.7869203759353028  0.5222024397725917  0.540152651065597  1.0000
  C   C2        1.0  0.7130688073682805  0.0222183497061152  0.5401484644703345  1.0000
  C   C3        1.0  0.7869316956318357  0.522209147874989  0.9598448858208568  1.0000
  C   C4        1.0  0.2869298389646247  0.977788611677703  0.0401542398774097  1.0000
  C   C5        1.0  0.21307359629931003  0.4777820332791479  0.4598490891092837  1.0000
  C   C6        1.0  0.2869193488962694  0.9777755079212371  0.45985123537234057  1.0000
  C   C7        1.0  0.2130680925170196  0.4777878379765212  0.0401514135647005  1.0000
  C   C8        1.0  0.7130757651477924  0.022216715812980698  0.959852260785908  1.0000
  C   C9        1.0  0.9171019727019926  0.4157308853855853  0.5852895658287949  1.0000
  C   C10       1.0  0.5829036292510849  0.9157361935391535  0.5852921435392131  1.0000
  C   C11       1.0  0.9170810590594486  0.41574636548157434  0.9147047911961295  1.0000
  C   C12       1.0  0.4171039866259676  0.08426512400646402  0.0852902905160491  1.0000
  C   C13       1.0  0.08289926944481613  0.5842629722522902  0.41470877384452354  1.0000
  C   C14       1.0  0.41707725707954785  0.08425140778096112  0.4147048359861714  1.0000
  C   C15       1.0  0.08290273520587021  0.5842579195352047  0.08528742759896349  1.0000
  C   C16       1.0  0.5829016174807364  0.9157391608022535  0.9147134897995881  1.0000
  S   S1        1.0  0.4260950221223326  0.5637050596683865  0.7500111931542576  1.0000
  S   S2        1.0  0.0739081131586374  0.06371808940718181  0.7500061569400884  1.0000
  S   S3        1.0  0.9260916749862815  0.936289323630142  0.24999490299646246  1.0000
  S   S4        1.0  0.5739134899640987  0.4362960969586924  0.2499925871840389  1.0000
  S   S5        1.0  0.9192677535398416  0.6700356030049834  0.493994126800473  1.0000
  S   S6        1.0  0.5807265157045762  0.1700225524057331  0.4939904592501491  1.0000
  S   S7        1.0  0.919280965817123  0.6700373081872399  0.006008068616893098  1.0000
  S   S8        1.0  0.41928768594748783  0.8299664718142453  0.9939959789095808  1.0000
  S   S9        1.0  0.08072040269953361  0.32997493823284435  0.5060062530194287  1.0000
  S   S10       1.0  0.4192674565226398  0.8299619206903871  0.5060085605700806  1.0000
  S   S11       1.0  0.08073045423729042  0.32995654946376624  0.9939889108853066  1.0000
  S   S12       1.0  0.5807164641816982  0.1700294712071653  0.0060064412835600985  1.0000
  O   O1        1.0  0.3893743229324045  0.7175677067887778  0.7500189842978385  1.0000
  O   O2        1.0  0.11059341821501793  0.21757858596483  0.7499963105084717  1.0000
  O   O3        1.0  0.8894092778747977  0.7824277845321819  0.24999318792955447  1.0000
  O   O4        1.0  0.6106400051280404  0.28243762054988514  0.24999635752340768  1.0000
  O   O5        1.0  0.34009736115469746  0.5011554337353347  0.6663069260574301  1.0000
  O   O6        1.0  0.15989970538820586  0.0011599683578040997  0.6663067552888149  1.0000
  O   O7        1.0  0.34009345466555635  0.5011287198300566  0.8337100703885268  1.0000
  O   O8        1.0  0.840105443268975  0.9988543467606803  0.1662925206271666  1.0000
  O   O9        1.0  0.6599242367790837  0.4988592784224793  0.3336907334003385  1.0000
  O   O10       1.0  0.8401044447099295  0.998850572876876  0.3336929444521672  1.0000
  O   O11       1.0  0.6599106954731939  0.4988453260933738  0.1662828287095905  1.0000
  O   O12       1.0  0.1599001608047601  0.0011760061512688998  0.833714659957671  1.0000
  O   O13       1.0  0.6427275451810885  0.5371977201367031  0.7500128623355662  1.0000
  O   O14       1.0  0.8572612774889097  0.0371873048958591  0.7500142922968891  1.0000
  O   O15       1.0  0.14273851068296037  0.9628148943987686  0.2499935685611021  1.0000
  O   O16       1.0  0.35728387486818036  0.46281073557222646  0.24999091795574904  1.0000
  O   O17       1.0  0.8965890313573865  0.7467646358349428  0.7499918947191943  1.0000
  O   O18       1.0  0.6034078362422692  0.24674737385176831  0.7499923353602822  1.0000
  O   O19       1.0  0.3965977678428843  0.7532610819511092  0.2500060042181929  1.0000
  O   O20       1.0  0.10341075677168732  0.25324799087850647  0.250006444827882  1.0000
