data_image0
_chemical_formula_structural       Li2H8C6S2O10
_chemical_formula_sum              "Li2 H8 C6 S2 O10"
_cell_length_a       4.729024268049859
_cell_length_b       7.034908482263719
_cell_length_c       8.442557489209442
_cell_angle_alpha    91.69082522661233
_cell_angle_beta     94.3220104610674
_cell_angle_gamma    101.00136603316642

_space_group_name_H-M_alt    "P 1"
_space_group_IT_number       1

loop_
  _space_group_symop_operation_xyz
  'x, y, z'

loop_
  _atom_site_type_symbol
  _atom_site_label
  _atom_site_symmetry_multiplicity
  _atom_site_fract_x
  _atom_site_fract_y
  _atom_site_fract_z
  _atom_site_occupancy
  Li  Li1       1.0  0.18149614984440635  0.3495849543477903  0.973563904369684  1.0000
  Li  Li2       1.0  0.8185020759483024  0.6504140551361814  0.02643692892906561  1.0000
  H   H1        1.0  0.7728440109529586  0.020807156909704395  0.8840766865373699  1.0000
  H   H2        1.0  0.22715421483975026  0.9791918525742606  0.11592414676137965  1.0000
  H   H3        1.0  0.02077457432014281  0.08028598447067743  0.7781109331066747  1.0000
  H   H4        1.0  0.9792253434714839  0.9197115590395486  0.2218911094155019  1.0000
  H   H5        1.0  0.6516396310753834  0.2695853440370897  0.8138845715699009  1.0000
  H   H6        1.0  0.3483607122006305  0.7304136548333843  0.18611634498866186  1.0000
  H   H7        1.0  0.32989007459775627  0.8086055014001161  0.4539921040350806  1.0000
  H   H8        1.0  0.6701111371388964  0.1913963964740617  0.5460089299489399  1.0000
  C   C1        1.0  0.5077859976863693  0.4270907370689088  0.6538827604656492  1.0000
  C   C2        1.0  0.49221901478656355  0.5729096900764361  0.3461183813252689  1.0000
  C   C3        1.0  0.4113707486109065  0.600505833987249  0.6244598648437362  1.0000
  C   C4        1.0  0.5886274596899527  0.39949318721353694  0.37553859910234183  1.0000
  C   C5        1.0  0.40338417989574543  0.6729225259434841  0.47267281879511114  1.0000
  C   C6        1.0  0.5966259360044219  0.32708077897859067  0.5273286069408984  1.0000
  S   S1        1.0  0.3091285920387818  0.734539280224979  0.7839695961843065  1.0000
  S   S2        1.0  0.690869633753927  0.26545972925899264  0.21603123711444286  1.0000
  O   O1        1.0  0.09206028042125065  0.5971137184849907  0.8620009930786171  1.0000
  O   O2        1.0  0.9079400453629066  0.40288529210230456  0.13799755412727427  1.0000
  O   O3        1.0  0.9009052863058074  0.1392266794471695  0.8492384263499564  1.0000
  O   O4        1.0  0.0990908132576749  0.8607723465086963  0.15076113901263716  1.0000
  O   O5        1.0  0.5714481162990523  0.7978092628565748  0.8949818180104575  1.0000
  O   O6        1.0  0.4285505262321153  0.2021912078460559  0.10501670464834946  1.0000
  O   O7        1.0  0.20309780648031517  0.896736256163891  0.713298869457383  1.0000
  O   O8        1.0  0.7969017045114911  0.10326711354244371  0.2866997706268678  1.0000
  O   O9        1.0  0.5106129854785594  0.36061742249030004  0.8040612799362566  1.0000
  O   O10       1.0  0.4893899095110684  0.6393830152685426  0.1959397785948483  1.0000
