data_image0
_chemical_formula_structural       B2H24Pb2C24I2N16
_chemical_formula_sum              "B2 H24 Pb2 C24 I2 N16"
_cell_length_a       8.634227186162674
_cell_length_b       10.02436206792077
_cell_length_c       10.924510685167105
_cell_angle_alpha    101.97425566205816
_cell_angle_beta     104.56574322352257
_cell_angle_gamma    103.59850273793397

_space_group_name_H-M_alt    "P 1"
_space_group_IT_number       1

loop_
  _space_group_symop_operation_xyz
  'x, y, z'

loop_
  _atom_site_type_symbol
  _atom_site_label
  _atom_site_symmetry_multiplicity
  _atom_site_fract_x
  _atom_site_fract_y
  _atom_site_fract_z
  _atom_site_occupancy
  B   B1        1.0  0.7708624064614329  0.3528248943506398  0.22901243218434075  1.0000
  B   B2        1.0  0.22913020742260676  0.6471613928232145  0.7710227415784343  1.0000
  H   H1        1.0  0.6338043547637895  0.5762112623955957  0.16699880053881333  1.0000
  H   H2        1.0  0.3661891994752722  0.42384786564969795  0.8330028608081432  1.0000
  H   H3        1.0  0.7619196873671186  0.4224309319362262  0.4991773938646487  1.0000
  H   H4        1.0  0.23810697582692347  0.5775744719719996  0.5007802367638233  1.0000
  H   H5        1.0  0.6514428466211157  0.6583203490262617  0.5651625822859427  1.0000
  H   H6        1.0  0.3485815949363769  0.3416679629339184  0.434875564720464  1.0000
  H   H7        1.0  0.9854939895786504  0.6482495204413395  0.29407392557689593  1.0000
  H   H8        1.0  0.014533411758606  0.35173021669257304  0.7059796426645801  1.0000
  H   H9        1.0  0.01890340478544061  0.23089400702560428  0.15780027310833583  1.0000
  H   H10       1.0  0.9810776875916932  0.7691008618776961  0.842172946426423  1.0000
  H   H11       1.0  0.31023360500189784  0.433298191263411  0.17571226325394915  1.0000
  H   H12       1.0  0.6897406712283569  0.5666581127574304  0.8242312038729478  1.0000
  H   H13       1.0  0.5195939087639517  0.08592348487273678  0.1952366750643292  1.0000
  H   H14       1.0  0.48039104577387803  0.9140585263967362  0.8047641407155051  1.0000
  H   H15       1.0  0.021102161459900504  0.3069096953424548  0.435920703957862  1.0000
  H   H16       1.0  0.9788749027303113  0.6931366450543023  0.5640963331187334  1.0000
  H   H17       1.0  0.897637353733387  0.06845584172756249  0.5153615932129013  1.0000
  H   H18       1.0  0.10242839219770872  0.931561229434763  0.48464712883838945  1.0000
  H   H19       1.0  0.8150465815134069  0.3147596228599809  0.9696829629470965  1.0000
  H   H20       1.0  0.1849115052765172  0.6852546099322794  0.030272043882717987  1.0000
  H   H21       1.0  0.4054256323822544  0.24299523655525948  0.12040682716195046  1.0000
  H   H22       1.0  0.5945746700959661  0.7569695741121761  0.8795964648498111  1.0000
  H   H23       1.0  0.28605845281887105  0.15905223422480216  0.847796248847224  1.0000
  H   H24       1.0  0.7139479053614509  0.8409393438139076  0.15221151013877687  1.0000
  Pb  Pb1       1.0  0.4389826862731142  0.8271211474689862  0.3562220591746693  1.0000
  Pb  Pb2       1.0  0.5610196046834305  0.17284682542414487  0.6436989273982902  1.0000
  C   C1        1.0  0.653260098553048  0.5683307717847086  0.26697948887246525  1.0000
  C   C2        1.0  0.34673650142024576  0.4316372573243896  0.7330053830053271  1.0000
  C   C3        1.0  0.7185528384237048  0.4893110438820542  0.4407418018700894  1.0000
  C   C4        1.0  0.2814275011113168  0.5107342223797459  0.5592930653726638  1.0000
  C   C5        1.0  0.663045914852596  0.6059308813839693  0.4719706193795686  1.0000
  C   C6        1.0  0.3369517049705948  0.39412287617178504  0.5280353919700216  1.0000
  C   C7        1.0  0.03514371905462356  0.5630411569893283  0.25935596276108436  1.0000
  C   C8        1.0  0.9648510646881763  0.43694509482847366  0.7406292844649085  1.0000
  C   C9        1.0  0.0541439386816407  0.3469375160476956  0.18716354174411978  1.0000
  C   C10       1.0  0.9458275862904417  0.6530541675176024  0.8127971224350643  1.0000
  C   C11       1.0  0.19877153816917567  0.4482755387289357  0.19752220182415664  1.0000
  C   C12       1.0  0.8012221832783484  0.5516978555291344  0.8024567213156499  1.0000
  C   C13       1.0  0.6395015010430072  0.11278629374690748  0.2709073493612307  1.0000
  C   C14       1.0  0.3605004719830803  0.887203153606201  0.7290927344348501  1.0000
  C   C15       1.0  0.898965117023842  0.22697311738104986  0.39910108399222105  1.0000
  C   C16       1.0  0.10106005354425919  0.7730141103209643  0.600918691634561  1.0000
  C   C17       1.0  0.837818886106014  0.10774823136667779  0.43644485306369046  1.0000
  C   C18       1.0  0.1621859883233513  0.8922390730941386  0.563575529634427  1.0000
  C   C19       1.0  0.6876357476249809  0.2853312298284861  0.9732527503720473  1.0000
  C   C20       1.0  0.31237054552041615  0.7147128758260735  0.02679797500721289  1.0000
  C   C21       1.0  0.47258052879115553  0.2476442243237357  0.04903641584004246  1.0000
  C   C22       1.0  0.5274055836167904  0.7523409975721548  0.9509652400379164  1.0000
  C   C23       1.0  0.4142638632239298  0.20602498957335055  0.9136739023973345  1.0000
  C   C24       1.0  0.5857499019839523  0.7939708338889486  0.08631049043115974  1.0000
  I   I1        1.0  0.1852779698628878  0.994619322402826  0.24638844093247755  1.0000
  I   I2        1.0  0.8147017811568631  0.0054312881665481  0.753618038721427  1.0000
  N   N1        1.0  0.7121436410549506  0.4658920725726004  0.30972969054278093  1.0000
  N   N2        1.0  0.28785529407757343  0.5340952581072215  0.6902977695759274  1.0000
  N   N3        1.0  0.62308204945699  0.6548783259284221  0.3625088882135329  1.0000
  N   N4        1.0  0.376910226849354  0.3451111399581278  0.6374581726555204  1.0000
  N   N5        1.0  0.9498423140779195  0.4209097395814894  0.22712502782169247  1.0000
  N   N6        1.0  0.05013758323074312  0.5790851336947326  0.7728479579360296  1.0000
  N   N7        1.0  0.1859759537122728  0.5833373474974763  0.24312736577273594  1.0000
  N   N8        1.0  0.8140361197696182  0.41663705621378  0.7568645066173258  1.0000
  N   N9        1.0  0.7720010812339809  0.2293510731416787  0.2929579916090289  1.0000
  N   N10       1.0  0.22802535995214163  0.770626500834993  0.707051952525745  1.0000
  N   N11       1.0  0.6746866996511471  0.037211873548230294  0.3552668891722489  1.0000
  N   N12       1.0  0.3253080554499589  0.9627872527815878  0.6447482710240278  1.0000
  N   N13       1.0  0.6469476873501777  0.2975617670459343  0.08635711796300427  1.0000
  N   N14       1.0  0.35303712980311286  0.7024459835711453  0.9136851986334518  1.0000
  N   N15       1.0  0.5508618200690876  0.23106680811969224  0.8677172667351909  1.0000
  N   N16       1.0  0.4491899414611  0.768994259151718  0.13231266858659294  1.0000
