data_image0
_chemical_formula_structural       Cd4H32C56S8N24O8
_chemical_formula_sum              "Cd4 H32 C56 S8 N24 O8"
_cell_length_a       10.810849956325137
_cell_length_b       10.592170052771923
_cell_length_c       17.492613189898016
_cell_angle_alpha    89.99976661079403
_cell_angle_beta     89.99888432729985
_cell_angle_gamma    92.54717590421431

_space_group_name_H-M_alt    "P 1"
_space_group_IT_number       1

loop_
  _space_group_symop_operation_xyz
  'x, y, z'

loop_
  _atom_site_type_symbol
  _atom_site_label
  _atom_site_symmetry_multiplicity
  _atom_site_fract_x
  _atom_site_fract_y
  _atom_site_fract_z
  _atom_site_occupancy
  Cd  Cd1       1.0  0.16084838886801114  0.2475361441316366  0.2518908686579309  1.0000
  Cd  Cd2       1.0  0.3391527125762225  0.7524697389887437  0.7518838737770892  1.0000
  Cd  Cd3       1.0  0.8391481204069609  0.7524745972538581  0.7481106601719247  1.0000
  Cd  Cd4       1.0  0.66085192928346  0.2475379864515261  0.24811365331631663  1.0000
  H   H1        1.0  0.7313113945074576  0.9739961835530339  0.845164687343491  1.0000
  H   H2        1.0  0.7686970364116448  0.026034978311550102  0.3451672738799019  1.0000
  H   H3        1.0  0.26868814057367274  0.0260040841798315  0.15484427318426702  1.0000
  H   H4        1.0  0.23130434687239187  0.9739652492130303  0.6548171048319703  1.0000
  H   H5        1.0  0.7216218011120858  0.06689447156551862  0.9760218157592817  1.0000
  H   H6        1.0  0.7783809101365406  0.9331249139695926  0.47601718438991014  1.0000
  H   H7        1.0  0.278373612142893  0.9330992631571181  0.0239882881383551  1.0000
  H   H8        1.0  0.22160503170482573  0.06685105103247932  0.5239597627262997  1.0000
  H   H9        1.0  0.975991868900664  0.7877719839602549  0.050005411716902905  1.0000
  H   H10       1.0  0.5239682640475749  0.21220115612226212  0.550008231568448  1.0000
  H   H11       1.0  0.0239909856571998  0.2122135096800477  0.9500018339142714  1.0000
  H   H12       1.0  0.4760077187073862  0.7877494804543804  0.4499744323265844  1.0000
  H   H13       1.0  0.971535582482268  0.703231053155676  0.9158384030112074  1.0000
  H   H14       1.0  0.528425563015368  0.29676059631781027  0.4158492252504686  1.0000
  H   H15       1.0  0.028459089665723497  0.29676553622528695  0.0841619825008948  1.0000
  H   H16       1.0  0.47155754599515387  0.7032144843057466  0.5841420136305828  1.0000
  H   H17       1.0  0.00441693147023159  0.7867263585292789  0.5897100065105436  1.0000
  H   H18       1.0  0.49557128185492155  0.21330341835638933  0.08971697051966032  1.0000
  H   H19       1.0  0.9956025032851771  0.21326685173807655  0.4103063856095518  1.0000
  H   H20       1.0  0.504423186313929  0.7867187212930635  0.9102828433043373  1.0000
  H   H21       1.0  0.016737471607136505  0.6989892844867214  0.4566481180502252  1.0000
  H   H22       1.0  0.483251364889064  0.30103912874459143  0.9566572030129025  1.0000
  H   H23       1.0  0.9832873848834326  0.30100191515457914  0.5433648440190738  1.0000
  H   H24       1.0  0.5167522098671427  0.6989951119125664  0.043346040765563  1.0000
  H   H25       1.0  0.6919293820154523  0.4621184018955233  0.5094384635199134  1.0000
  H   H26       1.0  0.8080805998546126  0.5378910124745815  0.009443219064635902  1.0000
  H   H27       1.0  0.3080891289855003  0.5378748285940133  0.49056821021792263  1.0000
  H   H28       1.0  0.19192544217612104  0.4621384435998906  0.9905623113819148  1.0000
  H   H29       1.0  0.6924869596940724  0.5594482771917485  0.6394841358283117  1.0000
  H   H30       1.0  0.8075175715149638  0.4405531487644652  0.1394884749401086  1.0000
  H   H31       1.0  0.30752458624993306  0.44055172835180656  0.36052082293723947  1.0000
  H   H32       1.0  0.19249008551658162  0.5594582953862285  0.8605141971609456  1.0000
  C   C1        1.0  0.7833802119641717  0.9344799173422302  0.8920556212837738  1.0000
  C   C2        1.0  0.7166263751013702  0.06554507268636202  0.3920582113246668  1.0000
  C   C3        1.0  0.2166177797951647  0.06552511481859108  0.10794819422088862  1.0000
  C   C4        1.0  0.2833633840275169  0.9344327012227751  0.6079255958053764  1.0000
  C   C5        1.0  0.7775537040300478  0.9858913393825542  0.9647588773706984  1.0000
  C   C6        1.0  0.7224481339349538  0.014123463035716101  0.4647609030604585  1.0000
  C   C7        1.0  0.2224367244006373  0.0140968273211541  0.0352506548917262  1.0000
  C   C8        1.0  0.2775393512912956  0.9858477375598655  0.5352171873897191  1.0000
  C   C9        1.0  0.8478560985547717  0.9339997729859847  0.023485744894102805  1.0000
  C   C10       1.0  0.6521464144094296  0.0660153209414673  0.5234906537521128  1.0000
  C   C11       1.0  0.1521404213905484  0.0659967760487206  0.9765157839465104  1.0000
  C   C12       1.0  0.34783429909570884  0.9339512967996126  0.4764845783934959  1.0000
  C   C13       1.0  0.9196507587311091  0.8305387751469411  0.0062095220712521  1.0000
  C   C14       1.0  0.5803277401016658  0.16945433284799802  0.5062151494765885  1.0000
  C   C15       1.0  0.0803413958581061  0.16944746162933913  0.9937931501436026  1.0000
  C   C16       1.0  0.41964127766845394  0.8305030788071832  0.49376122608715173  1.0000
  C   C17       1.0  0.9176632962862428  0.7838223678931298  0.9318694369245363  1.0000
  C   C18       1.0  0.5823175982105581  0.21618191344930443  0.4318757228028432  1.0000
  C   C19       1.0  0.08233045198111451  0.21617424166709046  0.06812923358356929  1.0000
  C   C20       1.0  0.4176660696019781  0.7837874781962881  0.5681035110117492  1.0000
  C   C21       1.0  0.8472867664671071  0.9918607389433446  0.09845506337278212  1.0000
  C   C22       1.0  0.6527122044384228  0.008163984107795796  0.5984617685243665  1.0000
  C   C23       1.0  0.1527102405110838  0.0081433685785512  0.9015481804687226  1.0000
  C   C24       1.0  0.3472760721790635  0.9918194990168206  0.4015214669404941  1.0000
  C   C25       1.0  0.9098928481004478  0.046548121213852794  0.21287684255369752  1.0000
  C   C26       1.0  0.5900993885271006  0.9534555738088313  0.7128834421625214  1.0000
  C   C27       1.0  0.09009602639217462  0.9534590022869909  0.7871241146556329  1.0000
  C   C28       1.0  0.40989687742521147  0.046551388398981396  0.2871049382645694  1.0000
  C   C29       1.0  0.9371077508781411  0.7144631469136301  0.5693569248175763  1.0000
  C   C30       1.0  0.562886472267344  0.2855601196245701  0.0693679154957252  1.0000
  C   C31       1.0  0.0629126078840869  0.28553004321739184  0.4306531789282744  1.0000
  C   C32       1.0  0.4371178544464486  0.714457074084784  0.930633613281515  1.0000
  C   C33       1.0  0.9436583937596198  0.6658752918571197  0.4955943578809112  1.0000
  C   C34       1.0  0.5563372222249044  0.3341582172516482  0.9955948820391782  1.0000
  C   C35       1.0  0.05635746717513261  0.3341198887299015  0.5044191759101155  1.0000
  C   C36       1.0  0.44367073927315914  0.6658579509776885  0.0044043600371637  1.0000
  C   C37       1.0  0.8551434705757117  0.5723658205651675  0.4728613733181534  1.0000
  C   C38       1.0  0.6448547815645966  0.4276546444955472  0.972863533085004  1.0000
  C   C39       1.0  0.1448759033603011  0.4276264449116026  0.5271510171139085  1.0000
  C   C40       1.0  0.3551581647307245  0.5723670917435156  0.027137995636181203  1.0000
  C   C41       1.0  0.7623498198611217  0.53412923042589  0.525316681402515  1.0000
  C   C42       1.0  0.7376451831684179  0.4658850603912157  0.0253252645304016  1.0000
  C   C43       1.0  0.2376597564304532  0.4658689258091613  0.4746928507354583  1.0000
  C   C44       1.0  0.26236179343132443  0.5341301831593411  0.9746808375911585  1.0000
  C   C45       1.0  0.763683754507845  0.5873106763150416  0.5977043306787735  1.0000
  C   C46       1.0  0.7363145703491938  0.4127036618516442  0.09771186780763233  1.0000
  C   C47       1.0  0.23633216738149804  0.4126854491085582  0.4023046297521589  1.0000
  C   C48       1.0  0.2636914215144657  0.5873106570753138  0.9022908043013871  1.0000
  C   C49       1.0  0.8578936851909307  0.511119251070113  0.39894849004301863  1.0000
  C   C50       1.0  0.6421115886255038  0.4888886584004339  0.898952304968475  1.0000
  C   C51       1.0  0.1421131193595926  0.4888789656689739  0.6010621854515747  1.0000
  C   C52       1.0  0.35790406848331463  0.5111320725072018  0.1010509387465603  1.0000
  C   C53       1.0  0.9252550904539234  0.4512317074204901  0.287599981387416  1.0000
  C   C54       1.0  0.5747479180894289  0.5487595458251208  0.7876033837177375  1.0000
  C   C55       1.0  0.07474338831124781  0.5487808832183277  0.7124072641277693  1.0000
  C   C56       1.0  0.42525690627350327  0.45125101400224554  0.21240329009039985  1.0000
  S   S1        1.0  0.000731512907393  0.050374795249752004  0.29099421539695675  1.0000
  S   S2        1.0  0.499250314166062  0.949623493151634  0.7909912544677908  1.0000
  S   S3        1.0  0.9992568638369478  0.949638962099357  0.7090078851501005  1.0000
  S   S4        1.0  0.5007431191897496  0.0503825847573793  0.2089965543073831  1.0000
  S   S5        1.0  0.020534611624533697  0.4455718592752831  0.21177978536152156  1.0000
  S   S6        1.0  0.4794699889349446  0.5544116978786064  0.711779955180127  1.0000
  S   S7        1.0  0.9794693496951865  0.5544396655280579  0.7882280317908937  1.0000
  S   S8        1.0  0.5205352723027942  0.4455912832915132  0.28822500362149844  1.0000
  N   N1        1.0  0.851507838690033  0.8347453990660226  0.8755688940926946  1.0000
  N   N2        1.0  0.6484815312926955  0.1652773165823405  0.375574450235888  1.0000
  N   N3        1.0  0.148493046584349  0.1652614622179129  0.12443320638330138  1.0000
  N   N4        1.0  0.35151247132817787  0.8347088799274045  0.6244145018907191  1.0000
  N   N5        1.0  0.7724603346592147  0.07703152584871728  0.1221313535429402  1.0000
  N   N6        1.0  0.7275370981896786  0.9229806606790023  0.6221397524915986  1.0000
  N   N7        1.0  0.2275345201722914  0.922967897980655  0.8778667452863829  1.0000
  N   N8        1.0  0.2724555436397011  0.07701313465498322  0.3778514863170201  1.0000
  N   N9        1.0  0.81090245792187  0.11147537084961101  0.19442789517363934  1.0000
  N   N10       1.0  0.6890864212832  0.8885248234959492  0.6944339574660745  1.0000
  N   N11       1.0  0.1890851882866826  0.8885270487733197  0.8055707753672651  1.0000
  N   N12       1.0  0.3109155706454629  0.11148485208779854  0.3055618546323942  1.0000
  N   N13       1.0  0.8498938381410994  0.6753904185320111  0.6198828136649369  1.0000
  N   N14       1.0  0.6500971982766472  0.3246219333119739  0.119889822159962  1.0000
  N   N15       1.0  0.150119494699716  0.3246086018471104  0.3801244317699571  1.0000
  N   N16       1.0  0.34991132181613693  0.6753885458688771  0.8801105632570554  1.0000
  N   N17       1.0  0.7768134645612225  0.42624849219172495  0.3734257045398195  1.0000
  N   N18       1.0  0.7231924922708614  0.5737578014182674  0.8734295439656281  1.0000
  N   N19       1.0  0.22319462918289196  0.5737553732465345  0.6265855426124745  1.0000
  N   N20       1.0  0.27681774315688307  0.42626494013382654  0.1265736997809555  1.0000
  N   N21       1.0  0.8184665949148666  0.3882451411598211  0.3032787273139945  1.0000
  N   N22       1.0  0.6815372084279971  0.6117515926061117  0.8032835887903644  1.0000
  N   N23       1.0  0.18153539682452904  0.6117645343595443  0.6967290898518499  1.0000
  N   N24       1.0  0.3184628031147981  0.38827042599845646  0.1967207983589034  1.0000
  O   O1        1.0  0.9346506966025105  0.9656174718057571  0.1520325943690679  1.0000
  O   O2        1.0  0.5653501587621291  0.0344047062528432  0.6520397539498077  1.0000
  O   O3        1.0  0.06534470610830571  0.034390455310585814  0.8479695061395631  1.0000
  O   O4        1.0  0.4346307874133403  0.9655798830228337  0.34794748324806335  1.0000
  O   O5        1.0  0.9532222942021066  0.5333599009364676  0.3486317956887959  1.0000
  O   O6        1.0  0.5467790942003035  0.46663542169091693  0.8486419529003656  1.0000
  O   O7        1.0  0.04677957573626662  0.46664788494653925  0.6513783081587335  1.0000
  O   O8        1.0  0.45322788239042927  0.5333798218565704  0.15136472089107406  1.0000
