data_image0
_chemical_formula_structural       Yb2H26C36O16
_chemical_formula_sum              "Yb2 H26 C36 O16"
_cell_length_a       8.252462921523133
_cell_length_b       12.24740751187764
_cell_length_c       12.378067190355358
_cell_angle_alpha    111.01150446513115
_cell_angle_beta     101.19747418316997
_cell_angle_gamma    107.97864370343432

_space_group_name_H-M_alt    "P 1"
_space_group_IT_number       1

loop_
  _space_group_symop_operation_xyz
  'x, y, z'

loop_
  _atom_site_type_symbol
  _atom_site_label
  _atom_site_symmetry_multiplicity
  _atom_site_fract_x
  _atom_site_fract_y
  _atom_site_fract_z
  _atom_site_occupancy
  Yb  Yb1       1.0  0.7118901593527197  0.5435101294931285  0.40593204198503235  1.0000
  Yb  Yb2       1.0  0.28811163751475977  0.4564946539155413  0.5940767816906813  1.0000
  H   H1        1.0  0.028618684370257934  0.9427231383232593  0.3923468429607198  1.0000
  H   H2        1.0  0.9713939774957936  0.057239480191583314  0.6076118558094592  1.0000
  H   H3        1.0  0.302835280361144  0.1164197232658921  0.4100806602292836  1.0000
  H   H4        1.0  0.6971713589482318  0.8835507797808829  0.5898817997186399  1.0000
  H   H5        1.0  0.6338530627200356  0.20901226564579634  0.4521362200812931  1.0000
  H   H6        1.0  0.36617469379324047  0.7909790616702351  0.547859356957872  1.0000
  H   H7        1.0  0.3620517765407525  0.395764949603297  0.9836382636612341  1.0000
  H   H8        1.0  0.637917650781084  0.6042191521793471  0.0163681774610964  1.0000
  H   H9        1.0  0.10207095044028584  0.3574151591948505  0.8142740464238898  1.0000
  H   H10       1.0  0.8978995213745263  0.6425797798446524  0.18573885439197818  1.0000
  H   H11       1.0  0.8178910326090828  0.38513486145150455  0.7466804057343595  1.0000
  H   H12       1.0  0.18210512516834837  0.6148631121118838  0.2533284941101925  1.0000
  H   H13       1.0  0.016742766544879644  0.8120491760197551  0.7049947626663027  1.0000
  H   H14       1.0  0.98325018121038  0.18797637232262326  0.29501226209897874  1.0000
  H   H15       1.0  0.2667330839117097  0.9931594802081558  0.8927962049866807  1.0000
  H   H16       1.0  0.7332540781307059  0.006865630373333411  0.10720439168454732  1.0000
  H   H17       1.0  0.3702681767874835  0.15990780914179933  0.11043149650038228  1.0000
  H   H18       1.0  0.6297463996289563  0.8401196522397567  0.889579922724934  1.0000
  H   H19       1.0  0.9814217901708272  0.44536763795548484  0.3344433319139242  1.0000
  H   H20       1.0  0.018575119588575637  0.5546276158230724  0.6655562892617864  1.0000
  H   H21       1.0  0.8149710065936159  0.3898689347134407  0.20826005618538798  1.0000
  H   H22       1.0  0.18503059960552554  0.6101344715380321  0.7917422793058435  1.0000
  H   H23       1.0  0.7121558833995677  0.44995340890848456  0.593179809059535  1.0000
  H   H24       1.0  0.2878471218606292  0.5500439249011961  0.4068206679881712  1.0000
  H   H25       1.0  0.8384276347539056  0.3965237950094289  0.5199731402697693  1.0000
  H   H26       1.0  0.16157616560354882  0.6034726665777583  0.48002732972486944  1.0000
  C   C1        1.0  0.016095945893049118  0.7525377410960273  0.4556682145629551  1.0000
  C   C2        1.0  0.9839311924397123  0.24745915419840966  0.5443245753790507  1.0000
  C   C3        1.0  0.18157178627824067  0.8555199513005363  0.46753144372454614  1.0000
  C   C4        1.0  0.8184314642317007  0.14446162741079147  0.5324505106826934  1.0000
  C   C5        1.0  0.16383497412274278  0.9479625509454691  0.4277811831262426  1.0000
  C   C6        1.0  0.8361825081832207  0.052009648522520976  0.5721904291033937  1.0000
  C   C7        1.0  0.31544556730973733  0.042551254022484386  0.4359987745592234  1.0000
  C   C8        1.0  0.6845766923208529  0.9574286788363011  0.5639764795141033  1.0000
  C   C9        1.0  0.4907692432801765  0.04675704370005452  0.48005614513670736  1.0000
  C   C10       1.0  0.5092508657725219  0.9532346322249906  0.5199256022019085  1.0000
  C   C11       1.0  0.6484320008147079  0.14031887178824576  0.4856857892353971  1.0000
  C   C12       1.0  0.3515825127283562  0.8596707926934853  0.5143006620407249  1.0000
  C   C13       1.0  0.44007143540617477  0.5250037898828238  0.2274361009332893  1.0000
  C   C14       1.0  0.5599173313169246  0.47498995644448877  0.7725710341299035  1.0000
  C   C15       1.0  0.28384092088676016  0.5051367718549143  0.128400952119371  1.0000
  C   C16       1.0  0.7161354268619391  0.4948566547370561  0.8716016832558608  1.0000
  C   C17       1.0  0.26183595393672476  0.4330729343557351  0.0034901976449078  1.0000
  C   C18       1.0  0.7381450168424806  0.5669157293064797  0.9965151788432037  1.0000
  C   C19       1.0  0.11721201629709543  0.4120492184224104  0.9099741393922969  1.0000
  C   C20       1.0  0.8827693073853522  0.587942935072398  0.09003493648952342  1.0000
  C   C21       1.0  0.9885451326071715  0.46280694785841786  0.9367487005055608  1.0000
  C   C22       1.0  0.011447954099551677  0.5371933599946032  0.0632704320546722  1.0000
  C   C23       1.0  0.8386938881275936  0.44338805882034626  0.8427520262803296  1.0000
  C   C24       1.0  0.16128973202096822  0.556612280734292  0.1572597904357025  1.0000
  C   C25       1.0  0.6593491780961713  0.7076167602479515  0.6747343964261461  1.0000
  C   C26       1.0  0.3406457948414285  0.2923867640290609  0.325269867471178  1.0000
  C   C27       1.0  0.8080456311338011  0.8175575810662608  0.7872914610404466  1.0000
  C   C28       1.0  0.19196361385058217  0.18248216143186363  0.21273112350952766  1.0000
  C   C29       1.0  0.9893260182990176  0.8603431423899506  0.7876747763919525  1.0000
  C   C30       1.0  0.010676492511393597  0.13969043992847927  0.2123311986920413  1.0000
  C   C31       1.0  0.12732207883933452  0.959964650393452  0.8918852528578611  1.0000
  C   C32       1.0  0.872678783979431  0.04006624572705419  0.10811147007597549  1.0000
  C   C33       1.0  0.0915579127753432  0.021740909814340598  0.00014600675308430052  1.0000
  C   C34       1.0  0.9084284919394177  0.978282806345163  0.9998462528836072  1.0000
  C   C35       1.0  0.23051906277530065  0.12459617260078909  0.1083069243579331  1.0000
  C   C36       1.0  0.7694741858968754  0.8754354999777334  0.891707505401051  1.0000
  O   O1        1.0  0.8591771001270913  0.7358023711816769  0.3963018401260001  1.0000
  O   O2        1.0  0.14084869860658233  0.26418462766621076  0.6036900569850516  1.0000
  O   O3        1.0  0.030718729440756896  0.6760727738637655  0.5034351267956865  1.0000
  O   O4        1.0  0.9692828767583919  0.32393063238770026  0.49656720869554494  1.0000
  O   O5        1.0  0.5678676213297748  0.49643538256407266  0.2017400142597978  1.0000
  O   O6        1.0  0.43211534453350703  0.5035523920822057  0.7982653419159007  1.0000
  O   O7        1.0  0.44615581813639676  0.5697589284549024  0.3410288493011251  1.0000
  O   O8        1.0  0.5538423640888013  0.4302433222536094  0.6589800195120716  1.0000
  O   O9        1.0  0.699255080177842  0.6636778001355379  0.578496676717883  1.0000
  O   O10       1.0  0.30074707799877837  0.3363230403001793  0.4215075129828776  1.0000
  O   O11       1.0  0.5016632919722921  0.6619440634555076  0.679332638770461  1.0000
  O   O12       1.0  0.4983364568945419  0.33805834169341853  0.3206891985118219  1.0000
  O   O13       1.0  0.8523122921150942  0.42882194682191965  0.297482742235637  1.0000
  O   O14       1.0  0.1476855891931875  0.5711741796504483  0.7025187215838571  1.0000
  O   O15       1.0  0.8038951805350364  0.47107620696594654  0.5525958939531179  1.0000
  O   O16       1.0  0.19610808206166294  0.5289224526779036  0.4474073603196089  1.0000
