data_image0
_chemical_formula_structural       Zn2H12C62N20O44
_chemical_formula_sum              "Zn2 H12 C62 N20 O44"
_cell_length_a       14.763134530328923
_cell_length_b       16.0170927418979
_cell_length_c       28.035719409938302
_cell_angle_alpha    90.06594556278601
_cell_angle_beta     89.9848472382491
_cell_angle_gamma    89.89270335541033

_space_group_name_H-M_alt    "P 1"
_space_group_IT_number       1

loop_
  _space_group_symop_operation_xyz
  'x, y, z'

loop_
  _atom_site_type_symbol
  _atom_site_label
  _atom_site_symmetry_multiplicity
  _atom_site_fract_x
  _atom_site_fract_y
  _atom_site_fract_z
  _atom_site_occupancy
  Zn  Zn1       1.0  0.5925231273836217  0.5001146079388973  0.5000057809530531  1.0000
  Zn  Zn2       1.0  0.40451907149653715  0.5013247981816633  0.49957915303256323  1.0000
  H   H1        1.0  0.9412409625034143  0.43018189554617686  0.5727956006963095  1.0000
  H   H2        1.0  0.054036050415056984  0.5699865546490412  0.4294289925136567  1.0000
  H   H3        1.0  0.5747822976490014  0.052913230798061796  0.5722410425358433  1.0000
  H   H4        1.0  0.4262874288437217  0.9482524395142136  0.4280454831458583  1.0000
  H   H5        1.0  0.34314285979687736  0.050444258890991  0.4994677794958092  1.0000
  H   H6        1.0  0.6576150698097931  0.9509338222679631  0.500728224162529  1.0000
  H   H7        1.0  0.3566371732843478  0.5257386642337707  0.6482534128615924  1.0000
  H   H8        1.0  0.36480542749701766  0.45645576289790296  0.3518766961588469  1.0000
  H   H9        1.0  0.34856306846328505  0.5242968389177705  0.7375997576474731  1.0000
  H   H10       1.0  0.35571771445169265  0.4557977079431764  0.2625940331188303  1.0000
  H   H11       1.0  0.419911060878263  0.7024833438981304  0.9660010610942533  1.0000
  H   H12       1.0  0.44928585957779166  0.28941882009601727  0.0336897988576723  1.0000
  C   C1        1.0  0.4975068679770941  0.6602876470682445  0.4975633284983018  1.0000
  C   C2        1.0  0.4946895979485717  0.3411473722428154  0.5018221009985453  1.0000
  C   C3        1.0  0.5024779110486647  0.49751312168009315  0.4074653069134371  1.0000
  C   C4        1.0  0.4989927565496969  0.5034943678383783  0.5921006560952549  1.0000
  C   C5        1.0  0.49521798123954136  0.5758716148101114  0.1800819319718414  1.0000
  C   C6        1.0  0.5061161743789738  0.4237119893557376  0.8196429038814158  1.0000
  C   C7        1.0  0.4706779613538927  0.4210825552354293  0.17981893240006738  1.0000
  C   C8        1.0  0.45910699006284966  0.5741489436930394  0.8198850170828678  1.0000
  C   C9        1.0  0.41783076193733126  0.4738005803268166  0.2807762254403059  1.0000
  C   C10       1.0  0.41265038198209675  0.5144792798147365  0.719179091116743  1.0000
  C   C11       1.0  0.42279795481678656  0.47432889839728887  0.33020921253427094  1.0000
  C   C12       1.0  0.417022730501408  0.5150128764930813  0.6697132157069845  1.0000
  C   C13       1.0  0.5772620902245079  0.5212740744828254  0.3264580283445255  1.0000
  C   C14       1.0  0.5772031414624478  0.48759034970653653  0.6728332232589905  1.0000
  C   C15       1.0  0.5734700682617557  0.5198762109431954  0.2766444955894869  1.0000
  C   C16       1.0  0.57394196479089  0.48882753905734677  0.7226732777694522  1.0000
  C   C17       1.0  0.4928375161957489  0.49676999797988225  0.2537583443175393  1.0000
  C   C18       1.0  0.49080294037042177  0.5014475665427579  0.7458934829717946  1.0000
  C   C19       1.0  0.47979560072968036  0.49941133999200826  0.10180397828226259  1.0000
  C   C20       1.0  0.4797252619002349  0.49771621843846237  0.8979221102941324  1.0000
  C   C21       1.0  0.4897784415324224  0.5754421214574279  0.1273663742192923  1.0000
  C   C22       1.0  0.5005879578538881  0.42350706018633827  0.8723604488794265  1.0000
  C   C23       1.0  0.4991567564855187  0.6491952783920566  0.10180913006449538  1.0000
  C   C24       1.0  0.5205792450622084  0.3515340823613187  0.8979383508882746  1.0000
  C   C25       1.0  0.46720366677160285  0.4237060706861157  0.1272194825302435  1.0000
  C   C26       1.0  0.45629638714192555  0.5712343614482974  0.8724941908922189  1.0000
  C   C27       1.0  0.5020450928860569  0.49837870043170074  0.3537630675595125  1.0000
  C   C28       1.0  0.49887448463723405  0.5013049507768413  0.645805212126717  1.0000
  C   C29       1.0  0.4674028947065522  0.5746772142150219  0.9739160922599621  1.0000
  C   C30       1.0  0.4783535083330008  0.42170917675064595  0.025817582405721896  1.0000
  C   C31       1.0  0.4944073219714155  0.42188369425545597  0.9743570590821874  1.0000
  C   C32       1.0  0.4833982273738683  0.5763790702843109  0.025372049823452897  1.0000
  C   C33       1.0  0.48022496401823384  0.4977486784436421  0.9488778531517069  1.0000
  C   C34       1.0  0.4802135960363357  0.4994812803953224  0.0508529345184812  1.0000
  C   C35       1.0  0.4386065929248985  0.6444322615238107  0.9483535127193788  1.0000
  C   C36       1.0  0.459750774587114  0.3491253617764443  0.051365441251107286  1.0000
  C   C37       1.0  0.43129510240079577  0.6412182321816785  0.8987221592431637  1.0000
  C   C38       1.0  0.45226236234968537  0.35139976005418555  0.101005704629749  1.0000
  C   C39       1.0  0.4989789052882471  0.6491895621262811  0.051773303437847994  1.0000
  C   C40       1.0  0.5203615347848682  0.3515263272547031  0.9479709526692017  1.0000
  C   C41       1.0  0.5425925731699195  0.029528228322142493  0.539827005929844  1.0000
  C   C42       1.0  0.4582119834707753  0.971893602393649  0.46046567855655235  1.0000
  C   C43       1.0  0.4565958533859059  0.972925966405505  0.5388471421789304  1.0000
  C   C44       1.0  0.5440995760384126  0.028544651345512793  0.46146482018579593  1.0000
  C   C45       1.0  0.4992900537032056  0.7501681165716504  0.4977016618305541  1.0000
  C   C46       1.0  0.49579598391675017  0.25125382069936114  0.5018122382424082  1.0000
  C   C47       1.0  0.5876341779973585  0.9730732312575298  0.500986443280368  1.0000
  C   C48       1.0  0.413093302404583  0.028246238317258605  0.4992783772302474  1.0000
  C   C49       1.0  0.5016446789210247  0.9140342970600912  0.5002587365136009  1.0000
  C   C50       1.0  0.49896752420118407  0.0873377767120189  0.5001088282064714  1.0000
  C   C51       1.0  0.5009523527577144  0.8259529860666317  0.499267943384929  1.0000
  C   C52       1.0  0.49792336262191117  0.1754498034310359  0.5005734779225435  1.0000
  C   C53       1.0  0.9672776684233853  0.5792949739815185  0.5002392707347666  1.0000
  C   C54       1.0  0.028259656699901794  0.42081007068419024  0.5017705774138008  1.0000
  C   C55       1.0  0.028076108165819798  0.5404956326124122  0.5399542875360979  1.0000
  C   C56       1.0  0.9674630738697941  0.45977232554767505  0.462010325758463  1.0000
  C   C57       1.0  0.029183941870250897  0.5386643395807269  0.4614176932573244  1.0000
  C   C58       1.0  0.9661964467566546  0.4612223742016964  0.5406919374081554  1.0000
  C   C59       1.0  0.09182633788176277  0.4995659532897251  0.5014012518128936  1.0000
  C   C60       1.0  0.9036589946422423  0.5003344666461871  0.5007601064934661  1.0000
  C   C61       1.0  0.18781033801206348  0.5000179813159349  0.5011026486394314  1.0000
  C   C62       1.0  0.8077379570714667  0.5000145753882208  0.5008351201313771  1.0000
  N   N1        1.0  0.48427591005823695  0.49832003789330764  0.20280339429849187  1.0000
  N   N2        1.0  0.48329985796605246  0.49905742751552395  0.7969008683861887  1.0000
  N   N3        1.0  0.2660868995817793  0.5021644969598071  0.4992191775924581  1.0000
  N   N4        1.0  0.729468373556628  0.4988142145663446  0.501529768313908  1.0000
  N   N5        1.0  0.6622494648543693  0.5475443968942171  0.3506499418931597  1.0000
  N   N6        1.0  0.6652645783062782  0.4716496661410687  0.6485182150602353  1.0000
  N   N7        1.0  0.05657425423125769  0.5833506561095589  0.5842661320301871  1.0000
  N   N8        1.0  0.9413956165594753  0.41300548141452953  0.4184991817346457  1.0000
  N   N9        1.0  0.9408821579348083  0.6684953361904745  0.49901875993533906  1.0000
  N   N10       1.0  0.0559946567596441  0.33200816239995123  0.502720908034938  1.0000
  N   N11       1.0  0.653502245471216  0.5444888389556367  0.24835686087980235  1.0000
  N   N12       1.0  0.6574793823200976  0.47585943651786516  0.7507079235987106  1.0000
  N   N13       1.0  0.509829764635242  0.7313193731739246  0.12616834829958629  1.0000
  N   N14       1.0  0.5431588939289753  0.2713911086881354  0.8736320634602278  1.0000
  N   N15       1.0  0.3943253931922257  0.7175708900978177  0.8759766217958144  1.0000
  N   N16       1.0  0.4267268597243187  0.2713345250421283  0.12380715315767789  1.0000
  N   N17       1.0  0.5214113020385085  0.7289292062958592  0.027532773990721196  1.0000
  N   N18       1.0  0.5540729368174055  0.2751521136163433  0.9722383919981465  1.0000
  N   N19       1.0  0.4082923429175054  0.9489069007241395  0.5826548929650385  1.0000
  N   N20       1.0  0.5921992836756118  0.05303960271523069  0.4176647433465205  1.0000
  O   O1        1.0  0.5717274056364161  0.6234597238418189  0.48787106622592796  1.0000
  O   O2        1.0  0.41977759527033937  0.3761144080079787  0.4910293819371815  1.0000
  O   O3        1.0  0.4216949077722774  0.6262130225381596  0.5073452045281711  1.0000
  O   O4        1.0  0.5687665083978999  0.37725868440494287  0.5124952568850887  1.0000
  O   O5        1.0  0.5763449230009668  0.47866598367318847  0.42777474903827784  1.0000
  O   O6        1.0  0.42398317540291686  0.48646904382820816  0.5722289160633167  1.0000
  O   O7        1.0  0.4270938847684036  0.514734401049111  0.4269776048879094  1.0000
  O   O8        1.0  0.5727771254632472  0.5229869849318334  0.5719736504587019  1.0000
  O   O9        1.0  0.5102175964750443  0.6391208403753409  0.2033865478784378  1.0000
  O   O10       1.0  0.5307669322887918  0.36298709105360416  0.796362336125881  1.0000
  O   O11       1.0  0.4431048305190116  0.6375992833854839  0.7970514035442873  1.0000
  O   O12       1.0  0.4637287129169961  0.35625415341065997  0.2026329118656918  1.0000
  O   O13       1.0  0.7280782515349384  0.5004448886807751  0.3462951752061015  1.0000
  O   O14       1.0  0.6592072625445978  0.6136544431216393  0.37296367220038457  1.0000
  O   O15       1.0  0.7222757259164254  0.5278330625367359  0.6507896374447667  1.0000
  O   O16       1.0  0.6736480475804142  0.4037203841717342  0.628444604105752  1.0000
  O   O17       1.0  0.9984588107079729  0.6285704353486423  0.6025290548636589  1.0000
  O   O18       1.0  0.13335024772162277  0.567394599810086  0.5989832072581576  1.0000
  O   O19       1.0  0.0071703539811523  0.39124486064712727  0.3940040407575012  1.0000
  O   O20       1.0  0.8606887592748433  0.4002971447954095  0.4113823910315162  1.0000
  O   O21       1.0  0.006160914562535398  0.716731556182175  0.5001479407998559  1.0000
  O   O22       1.0  0.8598851875211223  0.6854443098160699  0.4965934427057305  1.0000
  O   O23       1.0  0.9935282084450775  0.2824302316583243  0.4953763328029693  1.0000
  O   O24       1.0  0.13601204451732934  0.3165913118192093  0.5113328464592399  1.0000
  O   O25       1.0  0.6970130462582418  0.6053327050663668  0.2624005094427417  1.0000
  O   O26       1.0  0.6704572943062247  0.5019364674088748  0.21245797801910973  1.0000
  O   O27       1.0  0.7108602365524489  0.4219514652508138  0.736552309836533  1.0000
  O   O28       1.0  0.6674084572320423  0.5204401724710406  0.7865012364189781  1.0000
  O   O29       1.0  0.43999823916224284  0.7644951760521508  0.14060963819272126  1.0000
  O   O30       1.0  0.5874942507725434  0.759342686915133  0.1269363759326794  1.0000
  O   O31       1.0  0.4788534100886466  0.2301911308068156  0.8590638760580447  1.0000
  O   O32       1.0  0.6242260073325878  0.25284822037251325  0.8730170574629453  1.0000
  O   O33       1.0  0.31308880489677887  0.715109484792002  0.8657638988275309  1.0000
  O   O34       1.0  0.44580365225432655  0.7776082366064969  0.872750738270973  1.0000
  O   O35       1.0  0.345866176485181  0.2640801016029357  0.1341156501521326  1.0000
  O   O36       1.0  0.4864876745164181  0.21802433513773414  0.1270361805844615  1.0000
  O   O37       1.0  0.4671992629846641  0.7872606087167852  0.0324718767216794  1.0000
  O   O38       1.0  0.5926784266018003  0.7296008129452217  0.004702057909774699  1.0000
  O   O39       1.0  0.5087972253697471  0.21085292272847056  0.9672724680691899  1.0000
  O   O40       1.0  0.6247732855749318  0.2829763234072756  0.9951054213826678  1.0000
  O   O41       1.0  0.3748812558387725  0.007915901795328799  0.6054161803415637  1.0000
  O   O42       1.0  0.40503563659808606  0.8742425337319019  0.5935274372170127  1.0000
  O   O43       1.0  0.6253921070208434  0.9942746590335785  0.3946492289333889  1.0000
  O   O44       1.0  0.5954055041809028  0.127849096605452  0.4071004336651924  1.0000
