data_image0
_chemical_formula_structural       Cd2H36C30N4O12
_chemical_formula_sum              "Cd2 H36 C30 N4 O12"
_cell_length_a       8.94078700721391
_cell_length_b       10.136224992166264
_cell_length_c       10.470386075472947
_cell_angle_alpha    68.21984069445514
_cell_angle_beta     69.77580985024309
_cell_angle_gamma    78.00498230436907

_space_group_name_H-M_alt    "P 1"
_space_group_IT_number       1

loop_
  _space_group_symop_operation_xyz
  'x, y, z'

loop_
  _atom_site_type_symbol
  _atom_site_label
  _atom_site_symmetry_multiplicity
  _atom_site_fract_x
  _atom_site_fract_y
  _atom_site_fract_z
  _atom_site_occupancy
  Cd  Cd1       1.0  0.7733569365062608  0.697525583185474  0.3458804311489986  1.0000
  Cd  Cd2       1.0  0.226643583257605  0.30247439172685375  0.6541192730590668  1.0000
  H   H1        1.0  0.06275045953569255  0.9168496914609815  0.7420957004520691  1.0000
  H   H2        1.0  0.9372489778790155  0.0831492163378371  0.2579047103408385  1.0000
  H   H3        1.0  0.2899690989855799  0.9113273713365402  0.8369085844823235  1.0000
  H   H4        1.0  0.7100302288486519  0.08867260331526688  0.16309147289152995  1.0000
  H   H5        1.0  0.5611515295939641  0.9956873101770612  0.7222356824097674  1.0000
  H   H6        1.0  0.43884779824026765  0.004312664474746  0.27776437496408596  1.0000
  H   H7        1.0  0.7548919700503873  0.9050308364804424  0.5267432660725788  1.0000
  H   H8        1.0  0.24510724820337507  0.09497020502435301  0.47325643788222765  1.0000
  H   H9        1.0  0.4230785597882516  0.6537993474494357  0.559064237610457  1.0000
  H   H10       1.0  0.5769207692805054  0.34620063004904716  0.4409367734468718  1.0000
  H   H11       1.0  0.17485825703975172  0.6372042268442614  0.7227164849795997  1.0000
  H   H12       1.0  0.8251422614895958  0.3627957452213905  0.27728226554499  1.0000
  H   H13       1.0  0.35417835020393074  0.4919771530776131  0.9042356307940838  1.0000
  H   H14       1.0  0.6458233602550435  0.5080228192485521  0.09576276656471808  1.0000
  H   H15       1.0  0.30199509164106797  0.36559475665426794  0.17124798647461162  1.0000
  H   H16       1.0  0.698007811982059  0.6344052187791009  0.8287510114018704  1.0000
  H   H17       1.0  0.062321567967551096  0.4505662309096152  0.34008047717332357  1.0000
  H   H18       1.0  0.9376802508373743  0.5494326717168859  0.6599173199210497  1.0000
  H   H19       1.0  0.9236171881595681  0.7670566577349404  0.0029952269654670094  1.0000
  H   H20       1.0  0.0763846318798826  0.23294224773824365  0.9970035238123813  1.0000
  H   H21       1.0  0.1691866778943663  0.9981991831472142  0.3057362678299853  1.0000
  H   H22       1.0  0.830811352133331  0.0018018666370949005  0.6942666503410354  1.0000
  H   H23       1.0  0.26651180945980724  0.8204915790586468  0.35765648818485835  1.0000
  H   H24       1.0  0.7334863276793229  0.1795083981793226  0.6423448760382657  1.0000
  H   H25       1.0  0.11955327089036417  0.8835116965992074  0.4900198469224506  1.0000
  H   H26       1.0  0.8804427003159317  0.11648614356506934  0.5099819767868824  1.0000
  H   H27       1.0  0.3651398164769476  0.7071542420324165  0.12421370541080265  1.0000
  H   H28       1.0  0.634859401776808  0.2928467994723789  0.8757859985439966  1.0000
  H   H29       1.0  0.5364142994582082  0.7793798119484591  0.9806171199214762  1.0000
  H   H30       1.0  0.4635849187955473  0.22062122955633612  0.019382584033323214  1.0000
  H   H31       1.0  0.39693228013516085  0.8922277219824436  0.06778698429658898  1.0000
  H   H32       1.0  0.6030669381185946  0.10777331952234448  0.9322127196582104  1.0000
  H   H33       1.0  0.644234418845933  0.43573735305241007  0.5838329280063663  1.0000
  H   H34       1.0  0.35576490898829854  0.5642626215993971  0.41616712936749434  1.0000
  H   H35       1.0  0.8368420414790309  0.40595211204241377  0.5351827121783971  1.0000
  H   H36       1.0  0.16315728388615716  0.5940478569160349  0.46481543782850576  1.0000
  C   C1        1.0  0.33509521283605187  0.7746704670084695  0.7065665740570781  1.0000
  C   C2        1.0  0.6649040054177107  0.22533057449631846  0.29343312989772136  1.0000
  C   C3        1.0  0.37551467315549303  0.8717552737774316  0.7528342708343416  1.0000
  C   C4        1.0  0.6244833531686282  0.1282457674668436  0.2471657862862458  1.0000
  C   C5        1.0  0.5276822146583343  0.9193074282828634  0.6888359895413815  1.0000
  C   C6        1.0  0.47231819552505533  0.08069361348245249  0.31116336124762983  1.0000
  C   C7        1.0  0.6353569543240383  0.8692316428719951  0.5805986373293666  1.0000
  C   C8        1.0  0.3646423747447188  0.13076833462649526  0.4194023737279623  1.0000
  C   C9        1.0  0.4502344129746874  0.7297943813673413  0.597541006340663  1.0000
  C   C10       1.0  0.5497649148595444  0.27020559328446575  0.40245905103319063  1.0000
  C   C11       1.0  0.17196195849486173  0.7169723635772274  0.7722184791152673  1.0000
  C   C12       1.0  0.8280372572898501  0.2830286722342095  0.2277793174725886  1.0000
  C   C13       1.0  0.14319125821817388  0.6400231672961069  0.9328777392911435  1.0000
  C   C14       1.0  0.8568105618212699  0.3599757381770771  0.06712101148670513  1.0000
  C   C15       1.0  0.25013016394601817  0.5255030804923565  0.9818816405812926  1.0000
  C   C16       1.0  0.7498728492575851  0.474495828088024  0.018117710714243156  1.0000
  C   C17       1.0  0.22203163042371443  0.45559056171513385  0.12902719134829974  1.0000
  C   C18       1.0  0.7779712719648942  0.5444094108715518  0.8709708528447069  1.0000
  C   C19       1.0  0.08786320296703565  0.5023498537806077  0.2240558313532688  1.0000
  C   C20       1.0  0.912138617072415  0.4976490516925763  0.7759429194245798  1.0000
  C   C21       1.0  0.011308273306134688  0.6794055588866571  0.03509516055737542  1.0000
  C   C22       1.0  0.9886935467333162  0.32059334658652006  0.9649035902204799  1.0000
  C   C23       1.0  0.024190187909965705  0.8279599295141793  0.35902120505568297  1.0000
  C   C24       1.0  0.9758090291092713  0.1720411091439402  0.6409775452156483  1.0000
  C   C25       1.0  0.1536776751116662  0.8880498417907035  0.37684840122591384  1.0000
  C   C26       1.0  0.8463203524469803  0.11195120230024709  0.6231526095781561  1.0000
  C   C27       1.0  0.553448882663716  0.7483896658293575  0.18812233574456627  1.0000
  C   C28       1.0  0.44654914489493797  0.25161137826159313  0.8118786750594966  1.0000
  C   C29       1.0  0.4550287851217406  0.7828736129365979  0.08577288764818994  1.0000
  C   C30       1.0  0.544970324786064  0.2171284982678543  0.914227416571038  1.0000
  N   N1        1.0  0.5971196585078075  0.7763395008639193  0.5351756069607918  1.0000
  N   N2        1.0  0.40288086125605815  0.22366047404840836  0.46482409724727364  1.0000
  N   N3        1.0  0.9844439823608511  0.6119038905199119  0.1776595381411284  1.0000
  N   N4        1.0  0.015556756563967208  0.3880939506864465  0.8223408729050378  1.0000
  O   O1        1.0  0.046915467551563915  0.8228439755895137  0.7393538326582956  1.0000
  O   O2        1.0  0.9530839710976691  0.17715493505598803  0.26064753181808004  1.0000
  O   O3        1.0  0.006690999093876784  0.6945892359671719  0.4221827121197633  1.0000
  O   O4        1.0  0.9933094086204622  0.30541180010477825  0.577814731302297  1.0000
  O   O5        1.0  0.9312799880284077  0.9092027292717758  0.2869231458861136  1.0000
  O   O6        1.0  0.0687193398058241  0.0907972453800312  0.7130769114877397  1.0000
  O   O7        1.0  0.6590792025265628  0.8317100289559747  0.15741214829759545  1.0000
  O   O8        1.0  0.3409201265422012  0.16828994854251528  0.8425888627597333  1.0000
  O   O9        1.0  0.5315741728622072  0.6368321852905579  0.29973038916850936  1.0000
  O   O10       1.0  0.4684238546964466  0.3631688588003925  0.7002706216355605  1.0000
  O   O11       1.0  0.7432616895392385  0.46476851621380166  0.5032120623114765  1.0000
  O   O12       1.0  0.2567364438963224  0.5352314524841262  0.4967864408612146  1.0000
