data_image0
_chemical_formula_structural       Zn2H24C32N16
_chemical_formula_sum              "Zn2 H24 C32 N16"
_cell_length_a       7.628269578590966
_cell_length_b       9.204549628359548
_cell_length_c       12.50504042539123
_cell_angle_alpha    101.98718996675372
_cell_angle_beta     100.56580587750666
_cell_angle_gamma    104.2114630424564

_space_group_name_H-M_alt    "P 1"
_space_group_IT_number       1

loop_
  _space_group_symop_operation_xyz
  'x, y, z'

loop_
  _atom_site_type_symbol
  _atom_site_label
  _atom_site_symmetry_multiplicity
  _atom_site_fract_x
  _atom_site_fract_y
  _atom_site_fract_z
  _atom_site_occupancy
  Zn  Zn1       1.0  0.5954654858831178  0.9155130990603627  0.7019598682288399  1.0000
  Zn  Zn2       1.0  0.4045254477649891  0.08448896283652374  0.29804521961647606  1.0000
  H   H1        1.0  0.34112613896784455  0.8238051481561259  0.46282442784350025  1.0000
  H   H2        1.0  0.658876347804494  0.17619910920326026  0.5371783592773338  1.0000
  H   H3        1.0  0.3936998948489148  0.35409733462662996  0.7345382220724656  1.0000
  H   H4        1.0  0.6063106764252738  0.6458998400135983  0.26546368277620747  1.0000
  H   H5        1.0  0.8287357709524414  0.8725264699441271  0.923210083008271  1.0000
  H   H6        1.0  0.1712636738994959  0.12747663638928944  0.07678977334124676  1.0000
  H   H7        1.0  0.030672365945847026  0.47148347459938134  0.2336412348924738  1.0000
  H   H8        1.0  0.9693390866579747  0.5285229795445759  0.7663549452241294  1.0000
  H   H9        1.0  0.1745349893671247  0.6670605307872608  0.2590657598020484  1.0000
  H   H10       1.0  0.8254759665093374  0.33294478585798265  0.7409341922267954  1.0000
  H   H11       1.0  0.9666859103489784  0.6299496499329751  0.3055269713621271  1.0000
  H   H12       1.0  0.03332068891086243  0.37005452377199805  0.6944690949574192  1.0000
  H   H13       1.0  0.2530463103781671  0.3299452021227936  0.5665338908550976  1.0000
  H   H14       1.0  0.7469581139760706  0.6700531751935374  0.4334634613977783  1.0000
  H   H15       1.0  0.07264498175895541  0.3303981336939472  0.37997941255519385  1.0000
  H   H16       1.0  0.9273646944339687  0.6696036962085118  0.620019873191367  1.0000
  H   H17       1.0  0.5988890222760477  0.3961882084516264  0.9239021267591805  1.0000
  H   H18       1.0  0.4011286262936481  0.6038135432379693  0.07609809580763029  1.0000
  H   H19       1.0  0.9366542521098536  0.7928938366561697  0.08965356141467137  1.0000
  H   H20       1.0  0.06335366170540623  0.20710336405500843  0.9103480311605804  1.0000
  H   H21       1.0  0.970727539942267  0.6080417157328386  0.04747094444499565  1.0000
  H   H22       1.0  0.02927427599897928  0.3919531878761832  0.9525255853888832  1.0000
  H   H23       1.0  0.7873090704500358  0.6257833456207397  0.11191464291108125  1.0000
  H   H24       1.0  0.2126958014448377  0.37421270406447604  0.8880840188928542  1.0000
  C   C1        1.0  0.389775403394495  0.5783460181164773  0.6152988543371689  1.0000
  C   C2        1.0  0.6102262933346411  0.4216524100196823  0.3847021796486272  1.0000
  C   C3        1.0  0.3154215816680194  0.7117809693940418  0.48275718330987144  1.0000
  C   C4        1.0  0.6845809401170085  0.28821979313685386  0.5172458924666541  1.0000
  C   C5        1.0  0.19087262130663876  0.577350425986822  0.4053063960472583  1.0000
  C   C6        1.0  0.8091348239885434  0.42265259223417945  0.5946927995199827  1.0000
  C   C7        1.0  0.9787795199477857  0.028419247110136305  0.6439171102885124  1.0000
  C   C8        1.0  0.021200260312106436  0.971570030893517  0.35607436942171206  1.0000
  C   C9        1.0  0.5037472929640856  0.591525932686558  0.728098353254843  1.0000
  C   C10       1.0  0.496250361443721  0.4084725543551358  0.2719054075259065  1.0000
  C   C11       1.0  0.49229596845770374  0.46764755849220324  0.7778516269497683  1.0000
  C   C12       1.0  0.5077079101232584  0.5323531811036661  0.22215000736093762  1.0000
  C   C13       1.0  0.7354484592665075  0.7549581804653233  0.8841816121239671  1.0000
  C   C14       1.0  0.26455097849841286  0.24504144588893698  0.11582092928505004  1.0000
  C   C15       1.0  0.08586576454103324  0.5861798934321244  0.29437101300926105  1.0000
  C   C16       1.0  0.9141452194019023  0.4138254133135605  0.7056273414170487  1.0000
  C   C17       1.0  0.7350098461993327  0.6378193222712699  0.9396334202682791  1.0000
  C   C18       1.0  0.26499537514432353  0.36218139933934884  0.0603675713778671  1.0000
  C   C19       1.0  0.2693391135910943  0.43857532606961785  0.5424739831168137  1.0000
  C   C20       1.0  0.7306648211228078  0.5614253937271485  0.4575244559888173  1.0000
  C   C21       1.0  0.16866596777546053  0.43835406086467554  0.4375279399408709  1.0000
  C   C22       1.0  0.8313406243973701  0.5616466328611338  0.5624708114381745  1.0000
  C   C23       1.0  0.60755774324371  0.49136592507368  0.8837554581912028  1.0000
  C   C24       1.0  0.39245151333425105  0.5086312576522475  0.11624549171948925  1.0000
  C   C25       1.0  0.6784498303520864  0.13215042316011255  0.9509658795695937  1.0000
  C   C26       1.0  0.3215482717371573  0.8678527011585546  0.04903461944448397  1.0000
  C   C27       1.0  0.863877216253968  0.6687206804610996  0.05307079620447297  1.0000
  C   C28       1.0  0.13612982345949123  0.33127768563360155  0.9469292647256249  1.0000
  C   C29       1.0  0.2886264998630778  0.06434935634983671  0.6384111436923943  1.0000
  C   C30       1.0  0.711357084293937  0.9356469118025504  0.36158661752672555  1.0000
  C   C31       1.0  0.761009345512356  0.18464992949834175  0.14406681239827882  1.0000
  C   C32       1.0  0.23897943435039792  0.8153498110392833  0.8559360775196008  1.0000
  N   N1        1.0  0.410151944388538  0.7122350002420319  0.5840395911887623  1.0000
  N   N2        1.0  0.5898470177692802  0.2877669636428949  0.4159632382717361  1.0000
  N   N3        1.0  0.6236882197385115  0.7330524706673248  0.7827355256718459  1.0000
  N   N4        1.0  0.3763054134682235  0.2669495503092848  0.21726747804309088  1.0000
  N   N5        1.0  0.43502723120893455  0.0451377855285244  0.6351515714293965  1.0000
  N   N6        1.0  0.5649561776030296  0.9548620269501101  0.36485388914672245  1.0000
  N   N7        1.0  0.8235809137176064  0.9709752611216804  0.6450268598326968  1.0000
  N   N8        1.0  0.17640461496753093  0.02901164205872671  0.3549673527766898  1.0000
  N   N9        1.0  0.6656221294000986  0.07014527553647552  0.8560041297067397  1.0000
  N   N10       1.0  0.33438116839488435  0.9298613211674223  0.14400149800609788  1.0000
  N   N11       1.0  0.1404086894180594  0.10740369321798943  0.6396346850099801  1.0000
  N   N12       1.0  0.859569818245312  0.892585578022036  0.3603534433584626  1.0000
  N   N13       1.0  0.6885836779564655  0.21302884102643566  0.05017559661892075  1.0000
  N   N14       1.0  0.31140768933983065  0.7869778630971995  0.9498270282609904  1.0000
  N   N15       1.0  0.8238700715588863  0.17039102616481472  0.23344454551417462  1.0000
  N   N16       1.0  0.1761121417689609  0.8296052698723887  0.766555455972046  1.0000
