data_image0
_chemical_formula_structural       Co8H120C152N16O32
_chemical_formula_sum              "Co8 H120 C152 N16 O32"
_cell_length_a       15.338930754
_cell_length_b       17.804332057431882
_cell_length_c       20.646529538439772
_cell_angle_alpha    103.58641015119137
_cell_angle_beta     89.9999513722661
_cell_angle_gamma    89.99995876673046

_space_group_name_H-M_alt    "P 1"
_space_group_IT_number       1

loop_
  _space_group_symop_operation_xyz
  'x, y, z'

loop_
  _atom_site_type_symbol
  _atom_site_label
  _atom_site_symmetry_multiplicity
  _atom_site_fract_x
  _atom_site_fract_y
  _atom_site_fract_z
  _atom_site_occupancy
  Co  Co1       1.0  0.42052444121574695  0.3022697034974938  0.048099378336729594  1.0000
  Co  Co2       1.0  0.4205247999278043  0.19772544789778831  0.9518981633176438  1.0000
  Co  Co3       1.0  0.5794631009371757  0.6977362271578967  0.9518993473441311  1.0000
  Co  Co4       1.0  0.5794633941569246  0.802275448081673  0.04810784838621629  1.0000
  Co  Co5       1.0  0.30960587477662227  0.6945762748634863  0.4580359507786936  1.0000
  Co  Co6       1.0  0.3096056862972176  0.8054284091289929  0.5419670207273768  1.0000
  Co  Co7       1.0  0.6904077448040838  0.3054320833049928  0.5419690453914399  1.0000
  Co  Co8       1.0  0.6904085852430414  0.1945653596670311  0.4580279593718828  1.0000
  H   H1        1.0  0.4703152886251304  0.26008415941944213  0.1725031819534877  1.0000
  H   H2        1.0  0.47031651302867056  0.23991215718368858  0.8274950637382686  1.0000
  H   H3        1.0  0.529640308638662  0.7399529017167267  0.8274980205272511  1.0000
  H   H4        1.0  0.5296429959196088  0.7600476991934072  0.17250224372726555  1.0000
  H   H5        1.0  0.2346099184359787  0.5331251265864623  0.4494650832956636  1.0000
  H   H6        1.0  0.23461009259036564  0.9668737313667746  0.5505343680235127  1.0000
  H   H7        1.0  0.7654108724108468  0.4669172022593814  0.550540502956913  1.0000
  H   H8        1.0  0.7654120022120312  0.0330820613474643  0.44946120467336914  1.0000
  H   H9        1.0  0.34091780014580314  0.18276681018244287  0.17856339566010596  1.0000
  H   H10       1.0  0.34091956116621003  0.31722998707235206  0.8214300965150868  1.0000
  H   H11       1.0  0.659076913284082  0.81722695373913  0.8214601637868596  1.0000
  H   H12       1.0  0.6590797158690265  0.6827730597122111  0.17853950532824564  1.0000
  H   H13       1.0  0.3103843434662892  0.11008306624943029  0.26467788358873884  1.0000
  H   H14       1.0  0.31038487592907427  0.38991842096597645  0.7353198834603274  1.0000
  H   H15       1.0  0.6896084141952771  0.8898878935863124  0.7353278140769816  1.0000
  H   H16       1.0  0.6896104894441423  0.6101109546571805  0.2646711510007406  1.0000
  H   H17       1.0  0.42281734666946136  0.9061100589197153  0.13626998460723883  1.0000
  H   H18       1.0  0.4228206880510258  0.5938870949155728  0.8637305987423997  1.0000
  H   H19       1.0  0.5771714993938133  0.09387818971342908  0.8637079694424299  1.0000
  H   H20       1.0  0.5771727214968578  0.40612159338403586  0.13629092963710573  1.0000
  H   H21       1.0  0.4488961263043052  0.9777294434477852  0.049947613007603316  1.0000
  H   H22       1.0  0.4489006939897919  0.5222630301366278  0.9500491817096158  1.0000
  H   H23       1.0  0.5510894600443949  0.022281531593272095  0.9500443128916912  1.0000
  H   H24       1.0  0.5510914117270006  0.4777205625004086  0.049955021779695095  1.0000
  H   H25       1.0  0.36984476801072935  0.0572128078866712  0.34130494201953343  1.0000
  H   H26       1.0  0.3698453872184686  0.4427892959167465  0.6586948788933069  1.0000
  H   H27       1.0  0.6301532051510181  0.9427675755837015  0.6586826710120448  1.0000
  H   H28       1.0  0.6301538897522647  0.5572330156166955  0.3413171070010249  1.0000
  H   H29       1.0  0.3447397982607825  0.9834972250120302  0.4282816853611492  1.0000
  H   H30       1.0  0.3447406764250118  0.516506832682694  0.5717187460396999  1.0000
  H   H31       1.0  0.655252959409495  0.0164849305444577  0.571708199330125  1.0000
  H   H32       1.0  0.6552527331234828  0.4835160274705856  0.428291890028241  1.0000
  H   H33       1.0  0.29850158892309514  0.7774474809381217  0.27598670599847  1.0000
  H   H34       1.0  0.29850373069662345  0.7225549017678787  0.724016316157197  1.0000
  H   H35       1.0  0.7015048593997266  0.2225296011034885  0.7240085197500007  1.0000
  H   H36       1.0  0.7015059772497666  0.27747079858198015  0.275992433193302  1.0000
  H   H37       1.0  0.32226273626469043  0.8504207022245467  0.18874627034769992  1.0000
  H   H38       1.0  0.3222648006292559  0.6495793597754868  0.8112558299746624  1.0000
  H   H39       1.0  0.677742408195087  0.1495516898564446  0.8112446805269043  1.0000
  H   H40       1.0  0.6777429515040725  0.3504492681585987  0.1887554088314616  1.0000
  H   H41       1.0  0.6982686248134016  0.3360551950485586  0.09190328065709956  1.0000
  H   H42       1.0  0.6982697919889348  0.1639393591781939  0.9080931796164078  1.0000
  H   H43       1.0  0.30172478476782777  0.6639517842978079  0.908090314163715  1.0000
  H   H44       1.0  0.30172035791809293  0.8360482388632703  0.09190984119283738  1.0000
  H   H45       1.0  0.8592550734560476  0.3324901311285586  0.09519137617176908  1.0000
  H   H46       1.0  0.8592549383155657  0.16750670496519146  0.9048040609692335  1.0000
  H   H47       1.0  0.14073898806427113  0.667519630155951  0.9047974144828856  1.0000
  H   H48       1.0  0.14073521159401992  0.8324768779621081  0.09519965627862349  1.0000
  H   H49       1.0  0.981792305997651  0.3644155879553068  0.0647283671669427  1.0000
  H   H50       1.0  0.9817901987852339  0.135580102350076  0.9352673384195853  1.0000
  H   H51       1.0  0.018200451653989095  0.6355822056646189  0.9352664027351665  1.0000
  H   H52       1.0  0.018203210800763304  0.8644160162811261  0.06473002223733461  1.0000
  H   H53       1.0  0.1433922756877166  0.362311487347192  0.06678483116891701  1.0000
  H   H54       1.0  0.14339016966383872  0.1376824114525874  0.9332076302750065  1.0000
  H   H55       1.0  0.8565998300279105  0.6376874423513641  0.9332091840462127  1.0000
  H   H56       1.0  0.8566038918563452  0.8623143043471443  0.06679081176278596  1.0000
  H   H57       1.0  0.32643881393989466  0.45215130023611033  0.10524131170635798  1.0000
  H   H58       1.0  0.3264382497363414  0.04784441919848349  0.8947558526045253  1.0000
  H   H59       1.0  0.6735741536528153  0.5479271646372154  0.894758006598721  1.0000
  H   H60       1.0  0.6735760218597237  0.9520746403197223  0.10524490665898165  1.0000
  H   H61       1.0  0.3498333904940766  0.528806536095466  0.17532249736373726  1.0000
  H   H62       1.0  0.3498335830214003  0.9711888165244744  0.824674355601843  1.0000
  H   H63       1.0  0.6501763174170136  0.4712611845795607  0.824686421674883  1.0000
  H   H64       1.0  0.6501787327700087  0.0287409677725563  0.17531583044522137  1.0000
  H   H65       1.0  0.2545380075313943  0.4727362356592835  0.17525797076795865  1.0000
  H   H66       1.0  0.25453894156157025  0.027260629563691893  0.8247389250973992  1.0000
  H   H67       1.0  0.7454664849055703  0.5273346602179031  0.8247370144148858  1.0000
  H   H68       1.0  0.7454681587286204  0.9726659892409228  0.17526568104689483  1.0000
  H   H69       1.0  0.5018714544806359  0.2614535021393323  0.2946018671633367  1.0000
  H   H70       1.0  0.5018710043314273  0.2385439602521728  0.7053961100828942  1.0000
  H   H71       1.0  0.4981108721302193  0.7386049939703055  0.7054062819907683  1.0000
  H   H72       1.0  0.4981113224023446  0.7613938542731874  0.2945926830869539  1.0000
  H   H73       1.0  0.4035033763679579  0.2897671605040911  0.3388746239517316  1.0000
  H   H74       1.0  0.4035024227372547  0.21022975326757629  0.6611247031208903  1.0000
  H   H75       1.0  0.5964763425033581  0.7102958022421574  0.661126616522857  1.0000
  H   H76       1.0  0.5964746885022337  0.789702507091242  0.3388741846227105  1.0000
  H   H77       1.0  0.4943733980878093  0.3528844139211458  0.35145827662526585  1.0000
  H   H78       1.0  0.4943725786564244  0.14711360679993388  0.648538837036021  1.0000
  H   H79       1.0  0.505607624654445  0.6471757280479977  0.6485458230496589  1.0000
  H   H80       1.0  0.5056051845226719  0.852821993826602  0.35145438295649  1.0000
  H   H81       1.0  0.42944816889942683  0.6524755300923744  0.3375364177857562  1.0000
  H   H82       1.0  0.4294489386520013  0.8475227404020629  0.6624624383940086  1.0000
  H   H83       1.0  0.5705471964261408  0.34758813662953253  0.6624712527256662  1.0000
  H   H84       1.0  0.5705457748635611  0.1524105492282573  0.33753034600665177  1.0000
  H   H85       1.0  0.40146460920385624  0.5987152424525277  0.256114934743337  1.0000
  H   H86       1.0  0.40146445117669327  0.9012824502928538  0.7438838125384561  1.0000
  H   H87       1.0  0.5985431429041483  0.40135012838732814  0.7438916037376231  1.0000
  H   H88       1.0  0.5985446049281153  0.09865029071762169  0.2561103216885883  1.0000
  H   H89       1.0  0.4873571450007859  0.5662698173294983  0.2993066633941338  1.0000
  H   H90       1.0  0.4873570314508342  0.9337284628746759  0.7006926790270782  1.0000
  H   H91       1.0  0.5126538667778178  0.43380308366754855  0.700702263243258  1.0000
  H   H92       1.0  0.5126546324084629  0.06619558277076008  0.2992983630061588  1.0000
  H   H93       1.0  0.2588668071453597  0.33241961523970076  0.3259370940062354  1.0000
  H   H94       1.0  0.2588658952119474  0.1675795803989644  0.6740612099338817  1.0000
  H   H95       1.0  0.7411331217533574  0.6676255246734968  0.6740651468045371  1.0000
  H   H96       1.0  0.741133381834402  0.8323739207385259  0.325934899654051  1.0000
  H   H97       1.0  0.1676836996954805  0.38481671014237406  0.3658699971714086  1.0000
  H   H98       1.0  0.1676836184747543  0.11518075224913099  0.6341279800748153  1.0000
  H   H99       1.0  0.8323273120930068  0.6152446747125353  0.6341386964725116  1.0000
  H   H100      1.0  0.8323273934409912  0.8847547706994945  0.3658613499860763  1.0000
  H   H101      1.0  0.2553442713419614  0.3623701525661218  0.4143358043606611  1.0000
  H   H102      1.0  0.255344263354317  0.1376273098253833  0.5856621728855627  1.0000
  H   H103      1.0  0.7446673923948098  0.6376842119124788  0.5856672063346264  1.0000
  H   H104      1.0  0.7446687043580624  0.8623140780014396  0.41433262232803253  1.0000
  H   H105      1.0  0.5865675508282209  0.8630357203952741  0.5648134385937381  1.0000
  H   H106      1.0  0.5865711474297369  0.6369666623107193  0.43518958356192877  1.0000
  H   H107      1.0  0.4134408532625359  0.13695452848327247  0.435207036258184  1.0000
  H   H108      1.0  0.4134450799151281  0.3630464489512519  0.5647940255830901  1.0000
  H   H109      1.0  0.7487744233051432  0.8648307435431305  0.5643713898329777  1.0000
  H   H110      1.0  0.7487773699555335  0.635173411248985  0.43563390398239205  1.0000
  H   H111      1.0  0.25123724045661083  0.1351619231387744  0.43565486926677  1.0000
  H   H112      1.0  0.2512401612592257  0.3648431373780952  0.5643488998260509  1.0000
  H   H113      1.0  0.8706029850139388  0.8332414784861156  0.5947795701302778  1.0000
  H   H114      1.0  0.8706020367458295  0.6667655844707454  0.40522724065780835  1.0000
  H   H115      1.0  0.1294132423109389  0.16676063124988616  0.40522957681822186  1.0000
  H   H116      1.0  0.1294122347699798  0.33324619164336156  0.5947759776928476  1.0000
  H   H117      1.0  0.0323294316329452  0.8350129460417719  0.5928120299858362  1.0000
  H   H118      1.0  0.0323284818329412  0.6649934809076115  0.4071917544555744  1.0000
  H   H119      1.0  0.9676861437580941  0.1649913970125425  0.40719366262290885  1.0000
  H   H120      1.0  0.9676844858146155  0.335015396751487  0.5928104331638122  1.0000
  C   C1        1.0  0.41497985273516486  0.1337788523210435  0.0605194183174831  1.0000
  C   C2        1.0  0.4149819141448746  0.3662156921959721  0.9394765557145702  1.0000
  C   C3        1.0  0.585006385517687  0.8662355066619866  0.9394978503856919  1.0000
  C   C4        1.0  0.5850082357917614  0.6337674246638513  0.060503821943591135  1.0000
  C   C5        1.0  0.3971024509825156  0.08537275928544828  0.10889998265057699  1.0000
  C   C6        1.0  0.39710649787016916  0.4146211977727674  0.8910953962420649  1.0000
  C   C7        1.0  0.6028909585826343  0.9146310934074577  0.8911099772332775  1.0000
  C   C8        1.0  0.6028934310923262  0.585370085251732  0.10889039591921089  1.0000
  C   C9        1.0  0.35881545752633304  0.12200719767062651  0.17007707232468047  1.0000
  C   C10       1.0  0.35881840151832733  0.3779896481328606  0.8299188510577764  1.0000
  C   C11       1.0  0.6411812117219923  0.8779869498052193  0.8299368711912077  1.0000
  C   C12       1.0  0.6411834832459533  0.6220136511049148  0.17006339306330887  1.0000
  C   C13       1.0  0.34220541315440317  0.0811409299650521  0.21824584233398525  1.0000
  C   C14       1.0  0.3422070950513359  0.41885883371293176  0.7817520842626421  1.0000
  C   C15       1.0  0.6577886483730708  0.9188414780446621  0.7817566846350417  1.0000
  C   C16       1.0  0.6577915300074865  0.5811585256969423  0.21824249823860953  1.0000
  C   C17       1.0  0.3644208602473783  0.002461017263705399  0.20703186223234124  1.0000
  C   C18       1.0  0.3644223850745335  0.4975387755434965  0.7929675230886487  1.0000
  C   C19       1.0  0.6355718974219045  0.9975194535943217  0.7929601269723036  1.0000
  C   C20       1.0  0.635574284161777  0.502479972398227  0.20703894700338307  1.0000
  C   C21       1.0  0.40269984681283694  0.9663266885479869  0.14572548072388253  1.0000
  C   C22       1.0  0.4027039623372347  0.5336704264483457  0.8542731576599463  1.0000
  C   C23       1.0  0.5972903031092329  0.0336629194877816  0.8542629021922038  1.0000
  C   C24       1.0  0.5972920549690885  0.4663368733194133  0.14573648312877907  1.0000
  C   C25       1.0  0.41814962988635784  0.006816524386380299  0.0967312877523767  1.0000
  C   C26       1.0  0.4181554735372688  0.49317802984036524  0.9032651725211307  1.0000
  C   C27       1.0  0.5818398680802802  0.9931853328964095  0.9032652169183776  1.0000
  C   C28       1.0  0.5818424996004126  0.5068152485942505  0.09673407485323075  1.0000
  C   C29       1.0  0.3479788300282962  0.9592693480230278  0.2585869945659453  1.0000
  C   C30       1.0  0.34797928000514833  0.540731252887113  0.7414132696885786  1.0000
  C   C31       1.0  0.652015231518689  0.040708185541028286  0.7414020189416204  1.0000
  C   C32       1.0  0.6520154334140216  0.45929219472496635  0.2585979615187809  1.0000
  C   C33       1.0  0.3526081183732188  0.9961369155807845  0.3267404360275492  1.0000
  C   C34       1.0  0.352608785657516  0.5038648311177241  0.6732595597814423  1.0000
  C   C35       1.0  0.6473872470431417  0.0038434970188063948  0.6732486357283844  1.0000
  C   C36       1.0  0.647387231635328  0.4961568832471883  0.326751344732024  1.0000
  C   C37       1.0  0.338715342188884  0.9553073126723673  0.3755347100855246  1.0000
  C   C38       1.0  0.33871670467862464  0.5446961769830453  0.6244660986588143  1.0000
  C   C39       1.0  0.661279371288515  0.044675988672494796  0.6244549061602241  1.0000
  C   C40       1.0  0.6612793126148732  0.45532439159349997  0.3755450743001774  1.0000
  C   C41       1.0  0.31976951935766346  0.8760651334869819  0.3572624793554694  1.0000
  C   C42       1.0  0.31977201158416346  0.6239383755879047  0.6427393018717709  1.0000
  C   C43       1.0  0.6802278018634809  0.12391759981856149  0.6427275142337692  1.0000
  C   C44       1.0  0.6802279173231369  0.37608279015717017  0.3572729524680866  1.0000
  C   C45       1.0  0.3138187565921982  0.8389270625023569  0.28957104318114085  1.0000
  C   C46       1.0  0.3138210321149232  0.6610753007841623  0.7104310064916248  1.0000
  C   C47       1.0  0.6861818243093863  0.16105225285755856  0.710420728227575  1.0000
  C   C48       1.0  0.6861821564718298  0.33894813711817307  0.2895797384742805  1.0000
  C   C49       1.0  0.3276854547674475  0.8800178320816769  0.24108660882227884  1.0000
  C   C50       1.0  0.327686384292427  0.619983365996994  0.7589147368131106  1.0000
  C   C51       1.0  0.6723138222657566  0.1199602889411722  0.7589029998247054  1.0000
  C   C52       1.0  0.672314196548939  0.38004010103455943  0.2410974668771501  1.0000
  C   C53       1.0  0.31101269516382496  0.8306134483254083  0.40875517961564595  1.0000
  C   C54       1.0  0.3110139252331905  0.6693906384985339  0.5912467105095586  1.0000
  C   C55       1.0  0.6889911454070158  0.1693762568077517  0.5912380657149611  1.0000
  C   C56       1.0  0.6889912191710011  0.330624123458243  0.4087619147454404  1.0000
  C   C57       1.0  0.5907014914597964  0.2499984377107936  0.9999990693520427  1.0000
  C   C58       1.0  0.4092886584401185  0.7500011959634277  1.375899927315921e-06  1.0000
  C   C59       1.0  0.6877949606137365  0.2499978502519937  0.9999984742126244  1.0000
  C   C60       1.0  0.31219518928968876  0.7500000210458423  1.856210972239768e-07  1.0000
  C   C61       1.0  0.7343500959714506  0.29790467507722707  0.0520257972518792  1.0000
  C   C62       1.0  0.7343504563625345  0.2020916026869486  0.9479705034740673  1.0000
  C   C63       1.0  0.2656413578039079  0.7020994349433494  0.9479682255620219  1.0000
  C   C64       1.0  0.26563904160774854  0.7978994133001435  0.05203073951570048  1.0000
  C   C65       1.0  0.824935940853294  0.29684336889582846  0.052691398228262194  1.0000
  C   C66       1.0  0.82493630099318  0.2031528894488659  0.9473039300147831  1.0000
  C   C67       1.0  0.1750555129237128  0.7031612800348412  0.9473007885177934  1.0000
  C   C68       1.0  0.17505319697948346  0.7968363835813221  0.05269650003964441  1.0000
  C   C69       1.0  0.8725007947716463  0.24999840858157535  0.9999976106276873  1.0000
  C   C70       1.0  0.12749016855592293  0.7499988174879134  0.9999982932151781  1.0000
  C   C71       1.0  0.9689801402837048  0.2499978405422567  0.99999798797117  1.0000
  C   C72       1.0  0.031011474979877107  0.7499982494485947  0.9999986705586605  1.0000
  C   C73       1.0  0.016427829270711  0.3135100874003243  0.036944201915368104  1.0000
  C   C74       1.0  0.016426877404825298  0.1864855931953144  0.9630510174297058  1.0000
  C   C75       1.0  0.9835636245085552  0.686487147890027  0.9630514315716708  1.0000
  C   C76       1.0  0.9835658802446404  0.8135111031849362  0.03694645212517861  1.0000
  C   C77       1.0  0.10710429252122111  0.3132129296432566  0.037685532648993124  1.0000
  C   C78       1.0  0.1071039937909291  0.18678157603480366  0.9623084964172577  1.0000
  C   C79       1.0  0.89288716125683  0.6867854611452059  0.9623103186339818  1.0000
  C   C80       1.0  0.8928894157939028  0.8132151300551911  0.037689459379087985  1.0000
  C   C81       1.0  0.1533978679202193  0.24999724337372697  0.9999969065903042  1.0000
  C   C82       1.0  0.8465942377920612  0.7500011765439538  4.0341702598829417e-07  1.0000
  C   C83       1.0  0.2505447958200051  0.2499960878756156  0.9999966887943755  1.0000
  C   C84       1.0  0.7494460060186939  0.750002929210595  1.7025938205919577e-06  1.0000
  C   C85       1.0  0.3232742397982022  0.4700337202852225  0.15971245616088936  1.0000
  C   C86       1.0  0.32327513379550515  0.029962008859115485  0.8402851943914481  1.0000
  C   C87       1.0  0.6767322084432834  0.5300355297324515  0.8402865785011284  1.0000
  C   C88       1.0  0.6767332703686577  0.9699662752244931  0.15971633475657399  1.0000
  C   C89       1.0  0.37203775457413707  0.4146363797666197  0.19014881500312697  1.0000
  C   C90       1.0  0.37203927749619237  0.08536051458556669  0.8098495395865867  1.0000
  C   C91       1.0  0.6279582627069901  0.5854207083916875  0.8098464740772966  1.0000
  C   C92       1.0  0.6279586956763551  0.9145816743143128  0.19015654807837015  1.0000
  C   C93       1.0  0.3791796366974509  0.4121612415611152  0.25842315396877774  1.0000
  C   C94       1.0  0.37918000760343057  0.08783623054012679  0.7415753095189002  1.0000
  C   C95       1.0  0.6208228999363357  0.5879010657581674  0.74157408767622  1.0000
  C   C96       1.0  0.6208231810648784  0.9120995739909289  0.25842812154410666  1.0000
  C   C97       1.0  0.42846735163882244  0.34581029330712443  0.25863123160825546  1.0000
  C   C98       1.0  0.4284689160433857  0.15418660104506188  0.7413671229814582  1.0000
  C   C99       1.0  0.5715221462791645  0.6542462947800374  0.7413678385058232  1.0000
  C   C100      1.0  0.5715225377767652  0.8457543352593148  0.258633884473049  1.0000
  C   C101      1.0  0.45835075714585133  0.310628130540259  0.31358888584593086  1.0000
  C   C102      1.0  0.4583510844678785  0.1893687541021905  0.6864089825023354  1.0000
  C   C103      1.0  0.5416315694705035  0.6894319725899293  0.686413268863191  1.0000
  C   C104      1.0  0.5416305903239476  0.8105668950730375  0.31358666869743956  1.0000
  C   C105      1.0  0.42302081758481336  0.5941555446067923  0.3058067179487338  1.0000
  C   C106      1.0  0.4230201135374188  0.9058427355973819  0.6941926244724782  1.0000
  C   C107      1.0  0.576986282589779  0.4059063791582105  0.6942001396273482  1.0000
  C   C108      1.0  0.5769869867571489  0.094092884448628  0.3058015680029412  1.0000
  C   C109      1.0  0.3610386655107761  0.547835385766689  0.33617524576149543  1.0000
  C   C110      1.0  0.361037953463196  0.952163472186541  0.663824205557681  1.0000
  C   C111      1.0  0.6389703904792655  0.45222186745718307  0.6638283094236143  1.0000
  C   C112      1.0  0.638970450694373  0.0477774058593994  0.33617388444812235  1.0000
  C   C113      1.0  0.34303163371677675  0.46723147744947374  0.3160046774340302  1.0000
  C   C114      1.0  0.3430309243130766  0.0327671598596098  0.683994490091031  1.0000
  C   C115      1.0  0.6569774222782031  0.5328273925046859  0.6839933695475507  1.0000
  C   C116      1.0  0.6569768279042307  0.9671715237069805  0.3160089992203368  1.0000
  C   C117      1.0  0.2835274449861132  0.45229660634009144  0.3629072075084849  1.0000
  C   C118      1.0  0.28352681779317385  0.0477020309689991  0.6370919600165691  1.0000
  C   C119      1.0  0.7164861745701786  0.547751315511256  0.6370902291361347  1.0000
  C   C120      1.0  0.7164861499022521  0.9522475909906731  0.3629116533902986  1.0000
  C   C121      1.0  0.23903939267763974  0.3794430786931997  0.3678842257578623  1.0000
  C   C122      1.0  0.2390386551444124  0.1205549711570981  0.6321143466277802  1.0000
  C   C123      1.0  0.7609709671944814  0.6206054888753698  0.632116723474887  1.0000
  C   C124      1.0  0.7609717048147289  0.8793933884973412  0.3678837003271909  1.0000
  C   C125      1.0  0.4802982520019726  0.7500011719335191  0.5000005385949322  1.0000
  C   C126      1.0  0.5197186272701869  0.2499996075290696  0.49999963821151266  1.0000
  C   C127      1.0  0.5774171466552359  0.750001181643256  0.5000010248363792  1.0000
  C   C128      1.0  0.4225984287433492  0.2500001949878694  0.5000002333509243  1.0000
  C   C129      1.0  0.6235539047794845  0.8137246959022092  0.5368342579821217  1.0000
  C   C130      1.0  0.6235560512003033  0.6862788423018955  0.4631689819694812  1.0000
  C   C131      1.0  0.37645775899319744  0.18627232089943388  0.46317925754068767  1.0000
  C   C132      1.0  0.37646017613927546  0.313729821742939  0.5368225083379625  1.0000
  C   C133      1.0  0.7141951642868349  0.8138721823372066  0.5365530027941077  1.0000
  C   C134      1.0  0.714196658373794  0.686131953035428  0.463451318538354  1.0000
  C   C135      1.0  0.28581715141894654  0.18612488301312877  0.46346294393595844  1.0000
  C   C136      1.0  0.2858189170279958  0.31387901229588516  0.5365401211194862  1.0000
  C   C137      1.0  0.7615936088390854  0.7500029343099044  0.500002324013181  1.0000
  C   C138      1.0  0.23842001074522304  0.2500025254035663  0.5000016414256834  1.0000
  C   C139      1.0  0.8579399594219197  0.7500035120589529  0.5000024329111382  1.0000
  C   C140      1.0  0.1420743120959713  0.25000312257209595  0.5000027228065562  1.0000
  C   C141      1.0  0.9052228166436863  0.7972814255102562  0.5525877248374939  1.0000
  C   C142      1.0  0.905223015772954  0.7027261860664495  0.4474177361242013  1.0000
  C   C143      1.0  0.09479210680969173  0.2027235147125879  0.44741904915211705  1.0000
  C   C144      1.0  0.09479125574358702  0.29728330818065973  0.5525865053589526  1.0000
  C   C145      1.0  0.9958549485675904  0.7980305769880047  0.5522871467617205  1.0000
  C   C146      1.0  0.9958551482634093  0.7019764374201644  0.4477172328191087  1.0000
  C   C147      1.0  0.0041593229515087  0.2019749021449329  0.447717791160045  1.0000
  C   C148      1.0  0.004158471318987701  0.2980318916190967  0.5522863046266693  1.0000
  C   C149      1.0  0.04196000614283691  0.7500035120589529  0.5000024329111382  1.0000
  C   C150      1.0  0.9580542653756156  0.250003112862359  0.500002236565102  1.0000
  C   C151      1.0  0.13914344245312554  0.7500040800982716  0.5000020555676555  1.0000
  C   C152      1.0  0.8608695251957741  0.2500019379447664  0.5000010462862718  1.0000
  N   N1        1.0  0.41466793862209533  0.3543620724091454  0.15197914046586894  1.0000
  N   N2        1.0  0.4146699255748488  0.1456336664449296  0.8480189963279157  1.0000
  N   N3        1.0  0.5853117802691657  0.6456829606969237  0.8480177516889355  1.0000
  N   N4        1.0  0.5853117491919589  0.8543199997581253  0.15198537936470297  1.0000
  N   N5        1.0  0.449111654240447  0.3145965470297298  0.19425131892792535  1.0000
  N   N6        1.0  0.44911432327720757  0.18539919182435227  0.8057468178658593  1.0000
  N   N7        1.0  0.5508635010970907  0.6854485249153015  0.8057475181926819  1.0000
  N   N8        1.0  0.5508634398792084  0.8145532509124251  0.1942539363406652  1.0000
  N   N9        1.0  0.3152589835535835  0.5796487400513755  0.39118049687962037  1.0000
  N   N10       1.0  0.3152591022649389  0.9203506956509102  0.6088190633375203  1.0000
  N   N11       1.0  0.6847546359915243  0.42039823991611763  0.6088274192810201  1.0000
  N   N12       1.0  0.6847558212482312  0.07960102369072079  0.3911742883492621  1.0000
  N   N13       1.0  0.2690400177139551  0.5212930771071954  0.4062604864446087  1.0000
  N   N14       1.0  0.2690394214524261  0.9787057808460347  0.5937389648745607  1.0000
  N   N15       1.0  0.7309794692609303  0.47875038781727147  0.5937443451209816  1.0000
  N   N16       1.0  0.7309800656075326  0.021248288330774297  0.40625676736988225  1.0000
  O   O1        1.0  0.4277453196161147  0.2054232265636315  0.08731227900132409  1.0000
  O   O2        1.0  0.4277449541905654  0.29457074991406523  0.9126840723742188  1.0000
  O   O3        1.0  0.5722096257053478  0.7945946571721619  0.912708560538334  1.0000
  O   O4        1.0  0.5722125989563979  0.7054077158240943  0.08729397537587862  1.0000
  O   O5        1.0  0.4151626512604452  0.10580935609051778  0.9978276373410818  1.0000
  O   O6        1.0  0.41516419973667956  0.39418519813623476  0.002168822932425494  1.0000
  O   O7        1.0  0.5848496644299461  0.8942049931827682  0.0021891451206386033  1.0000
  O   O8        1.0  0.5848487679555349  0.605799083931437  0.9978122587631187  1.0000
  O   O9        1.0  0.30467968956330077  0.8670232832565433  0.4696952012039047  1.0000
  O   O10       1.0  0.3046804677596882  0.6329802258183435  0.5303065800233355  1.0000
  O   O11       1.0  0.6953254548773984  0.13297042728103747  0.5302968614466437  1.0000
  O   O12       1.0  0.6953246766465  0.3670305307340058  0.46970322791172237  1.0000
  O   O13       1.0  0.3127886524014798  0.7568971587541072  0.38931994930610603  1.0000
  O   O14       1.0  0.31278841103967636  0.7431069280698352  0.6106819408190987  1.0000
  O   O15       1.0  0.6872210555887436  0.2430926143472263  0.6106766997146663  1.0000
  O   O16       1.0  0.6872239046641937  0.2569077562090243  0.389322794504281  1.0000
  O   O17       1.0  0.55125194207141  0.30066548108923297  0.044520445878006895  1.0000
  O   O18       1.0  0.5512529418610298  0.1993308258041608  0.955477313572288  1.0000
  O   O19       1.0  0.4487382078275104  0.6993250930851571  0.955487495594127  1.0000
  O   O20       1.0  0.4487365561045209  0.8006778576601546  0.04451514921805708  1.0000
  O   O21       1.0  0.2899025647556784  0.29908584131293736  0.04574666286099928  1.0000
  O   O22       1.0  0.28990226084541604  0.2009057659101003  0.954246335473982  1.0000
  O   O23       1.0  0.7100869332109598  0.7009233907712086  0.954244450102962  1.0000
  O   O24       1.0  0.7100891929288621  0.7990830458879045  0.0457598205799101  1.0000
  O   O25       1.0  0.44139341505684376  0.6935221862874171  0.46139769221743154  1.0000
  O   O26       1.0  0.44139323250249163  0.8064801381601399  0.5386024124895314  1.0000
  O   O27       1.0  0.5586228122762338  0.30647581123702844  0.5386072887551663  1.0000
  O   O28       1.0  0.5586229948374353  0.19352398157016637  0.46139209656582375  1.0000
  O   O29       1.0  0.1780960545723076  0.6957946211584201  0.4586051650665226  1.0000
  O   O30       1.0  0.17809456555215772  0.8042146848264905  0.5413986776232561  1.0000
  O   O31       1.0  0.8219156092047869  0.3042108288452994  0.5413983141308875  1.0000
  O   O32       1.0  0.8219177501612975  0.19579245958544078  0.45860318330223737  1.0000
