data_image0
_chemical_formula_structural       Ag4H40C36Br4N8
_chemical_formula_sum              "Ag4 H40 C36 Br4 N8"
_cell_length_a       6.5628289644101345
_cell_length_b       8.868082255234523
_cell_length_c       17.00231069978435
_cell_angle_alpha    89.99365830241764
_cell_angle_beta     90.00101476698077
_cell_angle_gamma    99.72628657708073

_space_group_name_H-M_alt    "P 1"
_space_group_IT_number       1

loop_
  _space_group_symop_operation_xyz
  'x, y, z'

loop_
  _atom_site_type_symbol
  _atom_site_label
  _atom_site_symmetry_multiplicity
  _atom_site_fract_x
  _atom_site_fract_y
  _atom_site_fract_z
  _atom_site_occupancy
  Ag  Ag1       1.0  0.0019151124192546916  0.5041424052893434  0.9993355770303295  1.0000
  Ag  Ag2       1.0  0.49809396768868897  0.49618780313392835  0.4996013346165427  1.0000
  Ag  Ag3       1.0  0.48318209366600234  0.503148052429232  0.0003289872688939  1.0000
  Ag  Ag4       1.0  0.015101783863251183  0.4971925178534848  0.5001960308377706  1.0000
  H   H1        1.0  0.04614066677653027  0.5703843996885071  0.3494184456552958  1.0000
  H   H2        1.0  0.4536835322998627  0.4291597474583639  0.8496962367044318  1.0000
  H   H3        1.0  0.9516682451200751  0.4303028910078551  0.6493552343728339  1.0000
  H   H4        1.0  0.5483519999645452  0.569260283820178  0.14963178099849736  1.0000
  H   H5        1.0  0.2506953521962458  0.0600581413922185  0.3446182469922405  1.0000
  H   H6        1.0  0.24916122188999879  0.9395412926878707  0.8445666098613032  1.0000
  H   H7        1.0  0.7486171558123826  0.9405750224723233  0.6576519515614905  1.0000
  H   H8        1.0  0.7513105606380392  0.059043909431991906  0.15752522328153162  1.0000
  H   H9        1.0  0.25536557714123376  0.06116374896265601  0.197516925012799  1.0000
  H   H10       1.0  0.24456304039990315  0.9388629905272835  0.6974638149318366  1.0000
  H   H11       1.0  0.7462721930199407  0.9434348543453125  0.8047239752207247  1.0000
  H   H12       1.0  0.7537592724315942  0.0565633488862716  0.304585007998547  1.0000
  H   H13       1.0  0.8192327594405879  0.3662998579245311  0.1655531486342809  1.0000
  H   H14       1.0  0.6810534497813805  0.6337217258006618  0.6658835873265687  1.0000
  H   H15       1.0  0.17927395388741724  0.6403736870831551  0.8337789726125848  1.0000
  H   H16       1.0  0.3208279621994166  0.35955491909223986  0.3341993613032699  1.0000
  H   H17       1.0  0.9531037747995225  0.3847919485254394  0.2578348425583243  1.0000
  H   H18       1.0  0.5473385910404288  0.614965908683665  0.7581697321471097  1.0000
  H   H19       1.0  0.05446899087016276  0.6172075623952722  0.7397974795310347  1.0000
  H   H20       1.0  0.445418860623235  0.3825620546216228  0.240170522746844  1.0000
  H   H21       1.0  0.08128256927335539  0.3338820288998506  0.17132832633761552  1.0000
  H   H22       1.0  0.41913254034410835  0.6662440211234965  0.6717623914880875  1.0000
  H   H23       1.0  0.9172949166366491  0.6707929273250174  0.823430192125251  1.0000
  H   H24       1.0  0.5828728922340999  0.3292263485842355  0.3238148076053236  1.0000
  H   H25       1.0  0.11355730837488653  0.8277161775132313  0.9946407368936504  1.0000
  H   H26       1.0  0.3863556851496098  0.17286024221245103  0.49474396022462497  1.0000
  H   H27       1.0  0.8895876728492096  0.1817965667487655  0.005870002843842301  1.0000
  H   H28       1.0  0.6106977426807488  0.8187974918313048  0.5059449044902352  1.0000
  H   H29       1.0  0.3419801391485746  0.9220661796067658  0.0427455268042252  1.0000
  H   H30       1.0  0.15813007003642807  0.07820207563877798  0.542901373429409  1.0000
  H   H31       1.0  0.6612479178918989  0.08613351972949351  0.9581474423289508  1.0000
  H   H32       1.0  0.8386999207152854  0.9145285791051947  0.4580239946882473  1.0000
  H   H33       1.0  0.10210177746162674  0.9847909987728015  0.06035750825742531  1.0000
  H   H34       1.0  0.3982222536411514  0.015634604349855905  0.5603499207680898  1.0000
  H   H35       1.0  0.9015203838171787  0.023293092335499886  0.9411853502217084  1.0000
  H   H36       1.0  0.5981679718776433  0.9769757520087907  0.44109715313986453  1.0000
  H   H37       1.0  0.15190959273301974  0.8179410074879245  0.41882159800320556  1.0000
  H   H38       1.0  0.3479309206924412  0.1814362545364858  0.9189430563909441  1.0000
  H   H39       1.0  0.8454618645745313  0.1809095820976054  0.5816770645132294  1.0000
  H   H40       1.0  0.6544675959794262  0.8185111112335052  0.0817454289001631  1.0000
  C   C1        1.0  0.06447692548343298  0.6236598468440704  0.10417260288215861  1.0000
  C   C2        1.0  0.43565750637009154  0.3765512075090456  0.6043905305712514  1.0000
  C   C3        1.0  0.9384887649210965  0.38325228472752576  0.8949587849780585  1.0000
  C   C4        1.0  0.5614973629486428  0.6169904272853942  0.3951897548531065  1.0000
  C   C5        1.0  0.09214928455593707  0.6762349847906748  0.31644533772928446  1.0000
  C   C6        1.0  0.4078710760454669  0.32342384300419985  0.8166500789983003  1.0000
  C   C7        1.0  0.9073757708623161  0.3251841191316203  0.6830546810364454  1.0000
  C   C8        1.0  0.59262104407329  0.6745033150974818  0.1832220207992421  1.0000
  C   C9        1.0  0.20840315813095597  0.9530546017152944  0.3124172006704455  1.0000
  C   C10       1.0  0.2915572118787395  0.04662652068609671  0.8124440445848791  1.0000
  C   C11       1.0  0.7918891552943492  0.04846012141805999  0.6890484064923116  1.0000
  C   C12       1.0  0.7081083863038059  0.9512787030497878  0.1890313998532349  1.0000
  C   C13       1.0  0.09295434667276221  0.6781316532329099  0.2344606619570939  1.0000
  C   C14       1.0  0.4071053173627133  0.32180127318558494  0.7346623448939696  1.0000
  C   C15       1.0  0.9083796420586623  0.3253814046990088  0.765046448386059  1.0000
  C   C16       1.0  0.5916154628310933  0.6745242151499867  0.2652173912026115  1.0000
  C   C17       1.0  0.20985957336412742  0.9554189856695884  0.2304625181034723  1.0000
  C   C18       1.0  0.2901208735958321  0.04450935993975241  0.7304804269708569  1.0000
  C   C19       1.0  0.7916053020981977  0.048258336008529995  0.7710249144562484  1.0000
  C   C20       1.0  0.7083990372451082  0.9516390817511036  0.2710090894963103  1.0000
  C   C21       1.0  0.15108294184103233  0.8156370142124416  0.19234758399257154  1.0000
  C   C22       1.0  0.34914275737350653  0.18440365374714673  0.6924792301350635  1.0000
  C   C23       1.0  0.8513388490816353  0.1889509694408815  0.8081035264212986  1.0000
  C   C24       1.0  0.6486467560947276  0.8110296727325307  0.3081733344009194  1.0000
  C   C25       1.0  0.9696482223825242  0.40242764614492904  0.19420960112022104  1.0000
  C   C26       1.0  0.530682122366194  0.5975338643430277  0.6945399294745727  1.0000
  C   C27       1.0  0.03188441423405654  0.6021386008199912  0.8033519377038517  1.0000
  C   C28       1.0  0.4681625791001096  0.3977962430550122  0.303718793637664  1.0000
  C   C29       1.0  0.17481559892188864  0.8844739198633321  0.0489473083150003  1.0000
  C   C30       1.0  0.3253001577024364  0.11589865288700454  0.5490338032706603  1.0000
  C   C31       1.0  0.8284039858298725  0.12370883733288447  0.9518768461122136  1.0000
  C   C32       1.0  0.671567117323171  0.8767140849783887  0.4518574441705923  1.0000
  C   C33       1.0  0.15084425418996253  0.8160002514758773  0.354606150475945  1.0000
  C   C34       1.0  0.3490403813917951  0.18355914398312484  0.8547347875086898  1.0000
  C   C35       1.0  0.8480759822808608  0.18444372092465502  0.6458731214274636  1.0000
  C   C36       1.0  0.65191874246689  0.8151720789183159  0.1459413430518097  1.0000
  Br  Br1       1.0  0.4333888111540957  0.27100775403393845  0.0837276673785468  1.0000
  Br  Br2       1.0  0.06659546965531858  0.7292432885819339  0.5836169582106692  1.0000
  Br  Br3       1.0  0.5614231620041324  0.733001491532015  0.9159385409531353  1.0000
  Br  Br4       1.0  0.9384408286236691  0.26721854282753554  0.415858460497013  1.0000
  N   N1        1.0  0.13070836846481623  0.7765444623571157  0.11321244760716812  1.0000
  N   N2        1.0  0.3694094965375355  0.2236806637471673  0.6133676505712984  1.0000
  N   N3        1.0  0.872197425575095  0.23012558427258517  0.886948202060161  1.0000
  N   N4        1.0  0.6277750810816015  0.7700876936363416  0.3870425326096908  1.0000
  N   N5        1.0  0.043023173199522056  0.5638972171912827  0.1781697456577689  1.0000
  N   N6        1.0  0.4572007022983726  0.43615025305420824  0.6784214942719728  1.0000
  N   N7        1.0  0.9593388727620749  0.44104713923592004  0.8205604431291962  1.0000
  N   N8        1.0  0.5406244134439291  0.5589743163879107  0.3208200680420391  1.0000
