data_image0
_chemical_formula_structural       Er4H48C36O36
_chemical_formula_sum              "Er4 H48 C36 O36"
_cell_length_a       6.6572475659427
_cell_length_b       11.257514413989332
_cell_length_c       19.403877719478594
_cell_angle_alpha    106.87289589139739
_cell_angle_beta     88.51611454148474
_cell_angle_gamma    89.98456352266896

_space_group_name_H-M_alt    "P 1"
_space_group_IT_number       1

loop_
  _space_group_symop_operation_xyz
  'x, y, z'

loop_
  _atom_site_type_symbol
  _atom_site_label
  _atom_site_symmetry_multiplicity
  _atom_site_fract_x
  _atom_site_fract_y
  _atom_site_fract_z
  _atom_site_occupancy
  Er  Er1       1.0  0.19414822518531594  0.08093889222529776  0.7434966209410447  1.0000
  Er  Er2       1.0  0.30614188307791307  0.33720948530258  0.2565883654497155  1.0000
  Er  Er3       1.0  0.8058741864607056  0.9190877293030371  0.25651679224385754  1.0000
  Er  Er4       1.0  0.6938695022730597  0.6627785563890497  0.7434123200169223  1.0000
  H   H1        1.0  0.5373491411372626  0.1850996221289234  0.9677959275493178  1.0000
  H   H2        1.0  0.9632368789182378  0.2174088154580218  0.032272855113554  1.0000
  H   H3        1.0  0.4626410470926316  0.8148393007207703  0.032215126258613135  1.0000
  H   H4        1.0  0.03674871336570361  0.7825961874725919  0.967730087038582  1.0000
  H   H5        1.0  0.3917222022004836  0.9137890747628036  0.9336411731512084  1.0000
  H   H6        1.0  0.1079639607098954  0.9799871791378508  0.0663543326038649  1.0000
  H   H7        1.0  0.6082329899313378  0.0861489432803353  0.06635037255444587  1.0000
  H   H8        1.0  0.8920081063948544  0.02001625401230467  0.9336489471453787  1.0000
  H   H9        1.0  0.5308071462003454  0.7341130149546018  0.5635656373268388  1.0000
  H   H10       1.0  0.9691874877011271  0.1700800743069237  0.4363264234089428  1.0000
  H   H11       1.0  0.4691604138922542  0.2658904115918048  0.4364376528376965  1.0000
  H   H12       1.0  0.030784395946959402  0.8299416604779922  0.5636775614844467  1.0000
  H   H13       1.0  0.3620952790216165  0.9940375001871687  0.5738803494864867  1.0000
  H   H14       1.0  0.13775617067204848  0.4197341113348685  0.4259531651233956  1.0000
  H   H15       1.0  0.637914651633359  0.005968363948880997  0.4261168164127794  1.0000
  H   H16       1.0  0.8622293295036056  0.5802861102923984  0.5740492390323337  1.0000
  H   H17       1.0  0.3912213615047192  0.7485843084960564  0.44666170506341973  1.0000
  H   H18       1.0  0.10855441301895748  0.30196661802628466  0.5533488495027682  1.0000
  H   H19       1.0  0.608767151079597  0.2514139709703824  0.553343794895859  1.0000
  H   H20       1.0  0.8914082884076109  0.6980666943195004  0.4466565702730134  1.0000
  H   H21       1.0  0.17511159114874178  0.00041847699199594446  0.47019351514568086  1.0000
  H   H22       1.0  0.3249114238805575  0.5298902630646937  0.529556360403916  1.0000
  H   H23       1.0  0.8248952608138965  0.9995845297978576  0.5298054565697043  1.0000
  H   H24       1.0  0.6751031535362344  0.47011821362412576  0.47043781003732477  1.0000
  H   H25       1.0  0.3066069655553888  0.2935487360463682  0.681188551675767  1.0000
  H   H26       1.0  0.19331218981879056  0.61205866054933  0.31876357626940427  1.0000
  H   H27       1.0  0.6934055220777964  0.7064635113625146  0.31881599141722455  1.0000
  H   H28       1.0  0.8066990376917857  0.38794484683364067  0.6812377573709654  1.0000
  H   H29       1.0  0.5064463182616236  0.21785680225025303  0.6840049452357346  1.0000
  H   H30       1.0  0.9934273521859892  0.533697835408887  0.31604422346754285  1.0000
  H   H31       1.0  0.4935843226702942  0.782152652630501  0.31599764338266567  1.0000
  H   H32       1.0  0.0065882356130729045  0.46631288343358807  0.6839587631901408  1.0000
  H   H33       1.0  0.9078399995370956  0.2751360404314838  0.7535317458805011  1.0000
  H   H34       1.0  0.5920432617061024  0.5217841729489477  0.24664152848644955  1.0000
  H   H35       1.0  0.09217149994726977  0.7248574431525726  0.2464660115138243  1.0000
  H   H36       1.0  0.4079679927322174  0.47822940923374796  0.7533578138709272  1.0000
  H   H37       1.0  0.07259693319816309  0.3560255813852179  0.805105973317893  1.0000
  H   H38       1.0  0.4272923330881183  0.5508509428568972  0.19493496392944107  1.0000
  H   H39       1.0  0.927427771090322  0.6439738068910758  0.19489676462754346  1.0000
  H   H40       1.0  0.5727451869701666  0.44914859903160936  0.8050528994977952  1.0000
  H   H41       1.0  0.7514204633041144  0.04428765420041703  0.7630413017227509  1.0000
  H   H42       1.0  0.7488223297454579  0.2809663231378323  0.23692932931385963  1.0000
  H   H43       1.0  0.24857918284712338  0.9557055817792275  0.23695344143254  1.0000
  H   H44       1.0  0.2511759794343433  0.7190266806461523  0.7630623753000518  1.0000
  H   H45       1.0  0.8563502094517401  0.9679917082549355  0.8075687872363062  1.0000
  H   H46       1.0  0.6438612481534631  0.16014835994742072  0.19240827713143455  1.0000
  H   H47       1.0  0.14364779178117706  0.03201028034840899  0.1924273164721342  1.0000
  H   H48       1.0  0.35612046336891007  0.8398425416636998  0.8075851113688657  1.0000
  C   C1        1.0  0.37566914972091314  0.09286419114656015  0.8702040047244706  1.0000
  C   C2        1.0  0.12483133152297646  0.22246212833510273  0.12983384528718733  1.0000
  C   C3        1.0  0.6243286842830357  0.9071000702063259  0.12980079075922646  1.0000
  C   C4        1.0  0.8751649362745082  0.7775403350560738  0.8701664900763005  1.0000
  C   C5        1.0  0.46930611844616976  0.09729894949275306  0.9386623845875872  1.0000
  C   C6        1.0  0.031047504075843297  0.15864193942601904  0.061379995724585995  1.0000
  C   C7        1.0  0.5306768099084991  0.9026472352075461  0.06134292663973888  1.0000
  C   C8        1.0  0.9689289766213134  0.8413638082814006  0.938624669925531  1.0000
  C   C9        1.0  0.4617332492512248  0.9991250080304895  0.9655948422081335  1.0000
  C   C10       1.0  0.03821186825120999  0.033499710630415805  0.0344205282347616  1.0000
  C   C11       1.0  0.5382445229598218  0.0008050461907913992  0.0343969970070646  1.0000
  C   C12       1.0  0.9617479531991432  0.966505731868004  0.9655867011206566  1.0000
  C   C13       1.0  0.5501023651942629  0.8858110602170444  0.6631515854682206  1.0000
  C   C14       1.0  0.9498384494902083  0.22218617055654727  0.3367642332748843  1.0000
  C   C15       1.0  0.44989989047920886  0.11419579789175316  0.33684848662739597  1.0000
  C   C16       1.0  0.05016385251317959  0.7778256014547721  0.6632342500941704  1.0000
  C   C17       1.0  0.4946199128721885  0.8321822771216318  0.5869479387125407  1.0000
  C   C18       1.0  0.005402130147544404  0.24475787152105977  0.4129605834846686  1.0000
  C   C19       1.0  0.505373153054208  0.16782092285108519  0.41305596210487744  1.0000
  C   C20       1.0  0.9945731000239275  0.755255146841968  0.5870383256977831  1.0000
  C   C21       1.0  0.4011148930533039  0.8966342022355606  0.5482052604468848  1.0000
  C   C22       1.0  0.09879649615552208  0.3480434677466421  0.45166494585075156  1.0000
  C   C23       1.0  0.5988768677320236  0.10336825455186016  0.451795085331895  1.0000
  C   C24       1.0  0.901174197244792  0.6519708299868655  0.5483343370686455  1.0000
  C   C25       1.0  0.3428449053357951  0.8435079823235584  0.4747962437972645  1.0000
  C   C26       1.0  0.15702563164807512  0.3685465782218173  0.5250993448370308  1.0000
  C   C27       1.0  0.6571423463660155  0.1564936928755143  0.5252042655724265  1.0000
  C   C28       1.0  0.84294326596752  0.6314821270219471  0.4749032684193608  1.0000
  C   C29       1.0  0.22706185445075275  0.9069129706789029  0.44111465823507956  1.0000
  C   C30       1.0  0.27292956533187857  0.4656083711749447  0.5586967254150323  1.0000
  C   C31       1.0  0.7729375515570779  0.0930897781100057  0.5588831446689895  1.0000
  C   C32       1.0  0.7270712488336813  0.5344088235272865  0.44130068919648113  1.0000
  C   C33       1.0  0.15449217761783976  0.8591891911260063  0.3670563798268134  1.0000
  C   C34       1.0  0.3455496805344111  0.4921018562402252  0.6327499777136081  1.0000
  C   C35       1.0  0.8455175302245337  0.14082024993750517  0.6329444015532742  1.0000
  C   C36       1.0  0.6544603497544087  0.5079040248960923  0.367245332342648  1.0000
  O   O1        1.0  0.2860235882706518  0.9930623416214671  0.8340081098568958  1.0000
  O   O2        1.0  0.21404008912355008  0.1587121548472084  0.16604282669307216  1.0000
  O   O3        1.0  0.7139805850548269  0.00691360430617042  0.1659888065764932  1.0000
  O   O4        1.0  0.7859531657137067  0.8412872042030913  0.8339581283164037  1.0000
  O   O5        1.0  0.3758691682780507  0.1878205214855769  0.8466521798546224  1.0000
  O   O6        1.0  0.12509915304876526  0.3409943722916324  0.15336633831596194  1.0000
  O   O7        1.0  0.6241479642539358  0.8121563812312192  0.1533550175424593  1.0000
  O   O8        1.0  0.8749197155415798  0.6590078771236348  0.846632758800922  1.0000
  O   O9        1.0  0.5074266897948618  0.9996173019424361  0.6967348219881443  1.0000
  O   O10       1.0  0.9928233428039588  0.30233124689534924  0.3031904283275111  1.0000
  O   O11       1.0  0.49258896580767697  0.0003939448899572399  0.3032668253237958  1.0000
  O   O12       1.0  0.007177921889415006  0.6976682081625826  0.6968012301080861  1.0000
  O   O13       1.0  0.6433350315037956  0.8154618699025632  0.6918497504442555  1.0000
  O   O14       1.0  0.856103580908055  0.12333441778990557  0.3080688586416186  1.0000
  O   O15       1.0  0.35667032433555323  0.1845434596398192  0.3081487652160532  1.0000
  O   O16       1.0  0.14393213998268806  0.876665845881121  0.6919244226107963  1.0000
  O   O17       1.0  0.008471438275599003  0.9180081219372765  0.35138763594820677  1.0000
  O   O18       1.0  0.49156317391736326  0.566579712897088  0.648394283549912  1.0000
  O   O19       1.0  0.9915384307899942  0.08199953916264484  0.6486104097699651  1.0000
  O   O20       1.0  0.508457491769164  0.4334210397510603  0.3515995489174059  1.0000
  O   O21       1.0  0.2387312031393947  0.7631289118397788  0.32210462604902546  1.0000
  O   O22       1.0  0.261261320409595  0.4411721652007755  0.6777585887012021  1.0000
  O   O23       1.0  0.7612843189275649  0.2368820539973767  0.6778995467787964  1.0000
  O   O24       1.0  0.7387665767046128  0.5588355223141548  0.3222394153557957  1.0000
  O   O25       1.0  0.3574039964366377  0.2157566741985092  0.6887061608073848  1.0000
  O   O26       1.0  0.1424683860112239  0.5267913900370402  0.3113410748402002  1.0000
  O   O27       1.0  0.6426199625652274  0.7842619526904431  0.31130759449176537  1.0000
  O   O28       1.0  0.8575442781046403  0.47321236654185844  0.6886614414985316  1.0000
  O   O29       1.0  0.013263627918163903  0.2740655740585111  0.7891327876571451  1.0000
  O   O30       1.0  0.48658016611661037  0.48504572888132463  0.2110916736999471  1.0000
  O   O31       1.0  0.9867506381689211  0.7259382017219097  0.21086786936681523  1.0000
  O   O32       1.0  0.513435642423687  0.5149606380490893  0.7889078506525278  1.0000
  O   O33       1.0  0.8736493162700041  0.04277172695314835  0.7902779380766275  1.0000
  O   O34       1.0  0.6265847143876895  0.25223408923412194  0.20969192774379047  1.0000
  O   O35       1.0  0.12635188061990726  0.9572272001148718  0.2097150597047204  1.0000
  O   O36       1.0  0.373418195224012  0.7477566132001101  0.7902983701386574  1.0000
