data_image0
_chemical_formula_structural       Gd4H32C40N4O36
_chemical_formula_sum              "Gd4 H32 C40 N4 O36"
_cell_length_a       9.482860275393962
_cell_length_b       11.064048501148426
_cell_length_c       13.394357204059704
_cell_angle_alpha    65.87354857080878
_cell_angle_beta     69.27123247092099
_cell_angle_gamma    64.62707769379624

_space_group_name_H-M_alt    "P 1"
_space_group_IT_number       1

loop_
  _space_group_symop_operation_xyz
  'x, y, z'

loop_
  _atom_site_type_symbol
  _atom_site_label
  _atom_site_symmetry_multiplicity
  _atom_site_fract_x
  _atom_site_fract_y
  _atom_site_fract_z
  _atom_site_occupancy
  Gd  Gd1       1.0  0.6986660780495054  0.9265449005637479  0.8111704798132777  1.0000
  Gd  Gd2       1.0  0.4363880634511047  0.5734782328487212  0.6887888371362862  1.0000
  Gd  Gd3       1.0  0.3013364611903597  0.07345540054677709  0.18882722472364577  1.0000
  Gd  Gd4       1.0  0.5636116705520136  0.42651990490468716  0.31121413851386837  1.0000
  H   H1        1.0  0.7917092155145297  0.4508621029861218  0.04810712905200634  1.0000
  H   H2        1.0  0.2905330560220776  0.049182828303877095  0.451961545616534  1.0000
  H   H3        1.0  0.20828821540229103  0.5491371196016958  0.9518929687183332  1.0000
  H   H4        1.0  0.7094655624499141  0.9508174505116851  0.5480378395117995  1.0000
  H   H5        1.0  0.6644127085279904  0.49318712470985554  0.967998081060024  1.0000
  H   H6        1.0  0.12547228823954976  0.006789295775263298  0.532072332694959  1.0000
  H   H7        1.0  0.33559033641461866  0.5068121126993859  0.03200090260385482  1.0000
  H   H8        1.0  0.8745251861520205  0.9932120231591378  0.4679275545997968  1.0000
  H   H9        1.0  0.8206818936678391  0.554117107462872  0.9147664663116685  1.0000
  H   H10       1.0  0.2894705983368269  0.945857684133834  0.585260378971917  1.0000
  H   H11       1.0  0.17931498582080965  0.4458862842356765  0.08523499180087413  1.0000
  H   H12       1.0  0.710527234157098  0.05414048841231529  0.4147399656574465  1.0000
  H   H13       1.0  0.6925374330832809  0.30423794988609393  0.9151977087997237  1.0000
  H   H14       1.0  0.9118482767814912  0.1956934549042089  0.584929869382556  1.0000
  H   H15       1.0  0.3074652537569733  0.6957644339114069  0.08480081752953342  1.0000
  H   H16       1.0  0.08815104071906885  0.8043047374875981  0.41506897719590813  1.0000
  H   H17       1.0  0.16496566692920575  0.005769808981128191  0.8504761776070993  1.0000
  H   H18       1.0  0.021166553862244107  0.4942052100992314  0.6495462594111601  1.0000
  H   H19       1.0  0.8350346448007002  0.9942304623608961  0.14952377400617686  1.0000
  H   H20       1.0  0.9788304148265897  0.5057971725364538  0.3504523487566403  1.0000
  H   H21       1.0  0.09413408824656942  0.34925401864203554  0.9574208914159641  1.0000
  H   H22       1.0  0.40068531076531844  0.15078438947175243  0.542562478771515  1.0000
  H   H23       1.0  0.9058689566960398  0.6507452187672057  0.042578092247915034  1.0000
  H   H24       1.0  0.5993139175350561  0.8492148119829255  0.4574392177516912  1.0000
  H   H25       1.0  0.6216229219701289  0.1804417870537449  0.5900915044338575  1.0000
  H   H26       1.0  0.39217541855219906  0.3195031357362267  0.9099027184227282  1.0000
  H   H27       1.0  0.3783737057924839  0.8195595356174222  0.4099080996184271  1.0000
  H   H28       1.0  0.6078237490972924  0.6804981757246368  0.09009773535696303  1.0000
  H   H29       1.0  0.6802216256964471  0.2228540682131737  0.6596090570008782  1.0000
  H   H30       1.0  0.562697146850127  0.277151608738798  0.8403832773120925  1.0000
  H   H31       1.0  0.3197772902270086  0.7771451742203153  0.34038954271856176  1.0000
  H   H32       1.0  0.4373046498864211  0.7228486824488912  0.15961517625028415  1.0000
  C   C1        1.0  0.5178454038179223  0.8232349661072574  0.706655981725106  1.0000
  C   C2        1.0  0.04775772155088727  0.6767727379371139  0.7931645910861391  1.0000
  C   C3        1.0  0.4821528108262925  0.17677156450601217  0.2933455855377574  1.0000
  C   C4        1.0  0.952238966862616  0.3232264747278748  0.20683625570964637  1.0000
  C   C5        1.0  0.9230423440289075  0.14801932161692827  0.8774128122017543  1.0000
  C   C6        1.0  0.9483546213935834  0.3519150372973812  0.6226903830032526  1.0000
  C   C7        1.0  0.07695989775949402  0.8519820158756698  0.12258567774406981  1.0000
  C   C8        1.0  0.051646196039072875  0.6480841703433596  0.3773108477369718  1.0000
  C   C9        1.0  0.8537536331914808  0.06990945894452949  0.8503017469808752  1.0000
  C   C10       1.0  0.7738513172759057  0.4300281793327087  0.6497744689368261  1.0000
  C   C11       1.0  0.1462442862519494  0.9300929062947747  0.14969817669732066  1.0000
  C   C12       1.0  0.22614965000781956  0.5699679092389899  0.35022515460217113  1.0000
  C   C13       1.0  0.08687961349959047  0.10081386244242908  0.8735258339255978  1.0000
  C   C14       1.0  0.06112566322858023  0.39915207800953556  0.6265101415195744  1.0000
  C   C15       1.0  0.9131219899111327  0.899187451467732  0.12647443731358973  1.0000
  C   C16       1.0  0.9388762376336077  0.6008481995185518  0.3734893443107268  1.0000
  C   C17       1.0  0.14784921510905502  0.17228661450945282  0.9040690142126947  1.0000
  C   C18       1.0  0.22411471986913514  0.32774782648822043  0.5959280447435802  1.0000
  C   C19       1.0  0.8521549567378416  0.8277157891337124  0.09592801406567024  1.0000
  C   C20       1.0  0.7758825177218612  0.6722524188220688  0.40407387070357004  1.0000
  C   C21       1.0  0.885330450106572  0.34180863224062824  0.9335386249324954  1.0000
  C   C22       1.0  0.16055699537358242  0.15816067466705153  0.5665448115267537  1.0000
  C   C23       1.0  0.11467314401352972  0.6581916378139213  0.06646142738274109  1.0000
  C   C24       1.0  0.8394436138077948  0.8418385602928992  0.4334543546776287  1.0000
  C   C25       1.0  0.8207141160984008  0.26858470084503944  0.909234020852935  1.0000
  C   C26       1.0  0.99842384141656  0.23134039926910074  0.5908816167538476  1.0000
  C   C27       1.0  0.179285794054401  0.7314166205386599  0.09076568390131001  1.0000
  C   C28       1.0  0.0015763227129638568  0.7686577893859479  0.4091175130670877  1.0000
  C   C29       1.0  0.04666831443270794  0.2947836818154456  0.9324616140490888  1.0000
  C   C30       1.0  0.2738157753611643  0.20525218728762698  0.5675321423030582  1.0000
  C   C31       1.0  0.9533335257785895  0.7052187057188275  0.0675366290377042  1.0000
  C   C32       1.0  0.7261835856141442  0.7947481014507716  0.43246649379982216  1.0000
  C   C33       1.0  0.5165831272492201  0.7218248348790012  0.827211161276992  1.0000
  C   C34       1.0  0.06581337925728578  0.7783075761983865  0.6726953974191686  1.0000
  C   C35       1.0  0.4834237927358273  0.2781775302346574  0.1727887812646287  1.0000
  C   C36       1.0  0.9341849417632492  0.22169373899924946  0.3273047731180512  1.0000
  C   C37       1.0  0.3177913559794091  0.11653617253330138  0.9157920231775591  1.0000
  C   C38       1.0  0.35002037726430757  0.3835275203966332  0.5842009744741076  1.0000
  C   C39       1.0  0.6822121340150534  0.883464111180849  0.0842069968697602  1.0000
  C   C40       1.0  0.6499809915965215  0.6164675181333904  0.4157988959239133  1.0000
  N   N1        1.0  0.7829253952247656  0.46778152821419616  0.9665575660213435  1.0000
  N   N2        1.0  0.21713863277056322  0.0322061593566545  0.5335130353330584  1.0000
  N   N3        1.0  0.2170768030888864  0.5322177129318179  0.03344113440006421  1.0000
  N   N4        1.0  0.7828616354845938  0.9677920156387853  0.4664871267558014  1.0000
  O   O1        1.0  0.7025443110968727  0.11843024867043542  0.8541458092097045  1.0000
  O   O2        1.0  0.6750336312878602  0.38150424471606204  0.645907786020814  1.0000
  O   O3        1.0  0.29745543427940646  0.8815731963790441  0.14585162053310802  1.0000
  O   O4        1.0  0.3249649871841386  0.6184960340995004  0.35409159910751253  1.0000
  O   O5        1.0  0.9396618099858003  0.9568004827204818  0.8257008655215755  1.0000
  O   O6        1.0  0.7220328612216418  0.5431274914468887  0.6744037655796973  1.0000
  O   O7        1.0  0.06033643901068329  0.0431976351872549  0.17430360817947133  1.0000
  O   O8        1.0  0.27796372306622175  0.45687173487770133  0.32559604894817085  1.0000
  O   O9        1.0  0.5941086965513165  0.9078917373626464  0.6745040186015531  1.0000
  O   O10       1.0  0.1764210929188437  0.5920058675541353  0.8253858159747196  1.0000
  O   O11       1.0  0.4058911552012815  0.09210649227119919  0.325492014415623  1.0000
  O   O12       1.0  0.8235751218935049  0.40799119786262844  0.174619087125869  1.0000
  O   O13       1.0  0.5751572266318662  0.7435665371211115  0.8873016085016446  1.0000
  O   O14       1.0  0.20628564587408946  0.7565308436588294  0.6126907107760573  1.0000
  O   O15       1.0  0.4248462198878401  0.25643165024646203  0.11269762202126546  1.0000
  O   O16       1.0  0.7937141773292138  0.24346628503170817  0.38730941492936216  1.0000
  O   O17       1.0  0.4611425863566154  0.6243785498989496  0.854477135407123  1.0000
  O   O18       1.0  0.9403056719682185  0.8758847811472562  0.645406440766415  1.0000
  O   O19       1.0  0.5388612766656564  0.375619582830211  0.14552622418747063  1.0000
  O   O20       1.0  0.05969334808087722  0.12411444762663137  0.3545931912209426  1.0000
  O   O21       1.0  0.3422854066138541  0.14548452419386848  0.9904336886443943  1.0000
  O   O22       1.0  0.47812597093683  0.3545430166621415  0.5096023892515262  1.0000
  O   O23       1.0  0.6577139429883019  0.8545104572484445  0.009570493365828412  1.0000
  O   O24       1.0  0.5218659043544136  0.6454592828541051  0.4904024943623426  1.0000
  O   O25       1.0  0.42324507531535727  0.0469446171363046  0.8522700923923807  1.0000
  O   O26       1.0  0.32231480241239285  0.45323420662799657  0.6476467723323368  1.0000
  O   O27       1.0  0.5767531415795303  0.9530567117209331  0.1477290458769218  1.0000
  O   O28       1.0  0.677680485693294  0.5467743806405209  0.3523575805567418  1.0000
  O   O29       1.0  0.4446542805600303  0.8131293874810979  0.6490728271925051  1.0000
  O   O30       1.0  0.9068198042638472  0.6869216134357642  0.850667068575632  1.0000
  O   O31       1.0  0.5553441468368234  0.18686671230089755  0.35092594661907844  1.0000
  O   O32       1.0  0.09317905100871818  0.3130797390039106  0.1493302884003  1.0000
  O   O33       1.0  0.6758896809605587  0.13795250103810727  0.6525920108201504  1.0000
  O   O34       1.0  0.4664300257902739  0.3620224700307943  0.8474010965462213  1.0000
  O   O35       1.0  0.3241121764268725  0.862045680143403  0.34740768548573436  1.0000
  O   O36       1.0  0.5335695434363145  0.6379777913883942  0.15259960409250786  1.0000
