data_image0
_chemical_formula_structural       Cu2H22C34N6
_chemical_formula_sum              "Cu2 H22 C34 N6"
_cell_length_a       7.8462174982300406
_cell_length_b       9.07628106811639
_cell_length_c       9.793832241206788
_cell_angle_alpha    91.64144672230113
_cell_angle_beta     95.99169937614171
_cell_angle_gamma    108.58348719310777

_space_group_name_H-M_alt    "P 1"
_space_group_IT_number       1

loop_
  _space_group_symop_operation_xyz
  'x, y, z'

loop_
  _atom_site_type_symbol
  _atom_site_label
  _atom_site_symmetry_multiplicity
  _atom_site_fract_x
  _atom_site_fract_y
  _atom_site_fract_z
  _atom_site_occupancy
  Cu  Cu1       1.0  0.1381967716782881  0.6720452943084751  0.48961914783886556  1.0000
  Cu  Cu2       1.0  0.8617867693883526  0.32794475316301686  0.5103770597297623  1.0000
  H   H1        1.0  0.2868241359945785  0.5994637141045516  0.11479120206961815  1.0000
  H   H2        1.0  0.7131551575355105  0.40054060866217617  0.8852083372512067  1.0000
  H   H3        1.0  0.7878735536428894  0.49597967858213804  0.1283239860902512  1.0000
  H   H4        1.0  0.21210255204041323  0.5040199506056737  0.8716802195122637  1.0000
  H   H5        1.0  0.2452758263725556  0.1683963007944698  0.45826428714268247  1.0000
  H   H6        1.0  0.7547543230087044  0.8316037939131532  0.5417430604180636  1.0000
  H   H7        1.0  0.9436051164015641  0.596060172559497  0.7293629620915849  1.0000
  H   H8        1.0  0.05638244847073541  0.40393316149291547  0.2706408390703316  1.0000
  H   H9        1.0  0.9549749920107404  0.7073986316201655  0.9624677626515916  1.0000
  H   H10       1.0  0.04503007114642085  0.2925905231361198  0.037538227519654285  1.0000
  H   H11       1.0  0.0009887807582699545  0.7854827385485947  0.15844339385728998  1.0000
  H   H12       1.0  0.9990226165897416  0.21452154713179547  0.84156371143397  1.0000
  H   H13       1.0  0.3879676061927101  0.9621161452963564  0.6477091551671632  1.0000
  H   H14       1.0  0.6120266225988473  0.03786879916248861  0.3522876595939336  1.0000
  H   H15       1.0  0.41917896129103144  0.09055985494178032  0.8768362127116729  1.0000
  H   H16       1.0  0.5808233268477281  0.90942601808581  0.12315921624121269  1.0000
  H   H17       1.0  0.41034721811465874  0.20019587671409764  0.0536255149088518  1.0000
  H   H18       1.0  0.5896667679219618  0.7998025096158087  0.9463754163012221  1.0000
  H   H19       1.0  0.43927898132849924  0.31310818483514424  0.28823118415557747  1.0000
  H   H20       1.0  0.560744327725992  0.6868910853291439  0.7117684562769142  1.0000
  H   H21       1.0  0.02383292525338732  0.9051152606975279  0.38924581573739647  1.0000
  H   H22       1.0  0.9761898401695249  0.09488863890240401  0.6107611239443216  1.0000
  C   C1        1.0  0.7529632972380682  0.615089691220362  0.3575755347747175  1.0000
  C   C2        1.0  0.24702781783849298  0.3849309292677389  0.642414355829551  1.0000
  C   C3        1.0  0.45948364682497816  0.6442800272956147  0.3578713108550103  1.0000
  C   C4        1.0  0.5404918606542284  0.355724413145353  0.6421289642591502  1.0000
  C   C5        1.0  0.5443791440308701  0.5565384549616326  0.14081782052961955  1.0000
  C   C6        1.0  0.45560573884529293  0.44347649667225403  0.8591703352052062  1.0000
  C   C7        1.0  0.5881638140400655  0.6094800826184753  0.2874224315132494  1.0000
  C   C8        1.0  0.4118260987130996  0.3905347727222619  0.7125609999179331  1.0000
  C   C9        1.0  0.38094831694788667  0.5553391237725548  0.06528448726064078  1.0000
  C   C10       1.0  0.6190348497401102  0.4446745929764048  0.9347106338617193  1.0000
  C   C11       1.0  0.6621389729255968  0.5000689587328893  0.07196334429056608  1.0000
  C   C12       1.0  0.337844752277391  0.49994007899383763  0.9280275402382753  1.0000
  C   C13       1.0  0.20484452792684488  0.9821373848982802  0.08609730234066858  1.0000
  C   C14       1.0  0.795169168930002  0.017863374000477012  0.9139037053956965  1.0000
  C   C15       1.0  0.19143751478168272  0.9109037646072693  0.9459490243371391  1.0000
  C   C16       1.0  0.8085647120098118  0.08908791830206299  0.0540527687581971  1.0000
  C   C17       1.0  0.23434314461435699  0.11650240772408436  0.354743094863629  1.0000
  C   C18       1.0  0.7656756168474532  0.8834981391794586  0.6452603347657371  1.0000
  C   C19       1.0  0.04882684722073785  0.7049965123142952  0.7671712052724826  1.0000
  C   C20       1.0  0.9511678074690052  0.2949954059435313  0.23283205940953164  1.0000
  C   C21       1.0  0.057596529483191675  0.7686290933551659  0.8989404091398328  1.0000
  C   C22       1.0  0.9424069808235276  0.23136247870433377  0.10106556252706872  1.0000
  C   C23       1.0  0.09718943465539798  0.901890547650744  0.18412246388982814  1.0000
  C   C24       1.0  0.9028232065187324  0.09811375941073659  0.8158806528911311  1.0000
  C   C25       1.0  0.29404666360463955  0.9093187344876412  0.7207206258738025  1.0000
  C   C26       1.0  0.7059472958517007  0.09066851642458569  0.279280348954522  1.0000
  C   C27       1.0  0.3105131816505917  0.9807233735366621  0.8508462348264911  1.0000
  C   C28       1.0  0.6894888421140807  0.0192647894154447  0.14915437507885798  1.0000
  C   C29       1.0  0.3264009688613926  0.13223096973970877  0.1262673753314729  1.0000
  C   C30       1.0  0.6736127230343172  0.8677698056879206  0.8737326115196564  1.0000
  C   C31       1.0  0.34242300055731795  0.1977551040374692  0.25920338104992874  1.0000
  C   C32       1.0  0.6575959639313071  0.8022489628233062  0.7408012317694243  1.0000
  C   C33       1.0  0.11047951533031147  0.9690096963884682  0.31614128691669646  1.0000
  C   C34       1.0  0.8895394541194506  0.030994353943434295  0.6838643467878852  1.0000
  N   N1        1.0  0.8958135096372786  0.6149948656489955  0.4097531914758007  1.0000
  N   N2        1.0  0.10419123648144789  0.3850275692144364  0.5902419045326466  1.0000
  N   N3        1.0  0.3403789819175316  0.6694337171498859  0.40790757959134527  1.0000
  N   N4        1.0  0.6595912470535412  0.3305520442042535  0.592089471358207  1.0000
  N   N5        1.0  0.16577538497764271  0.7722587311752775  0.6775441597775752  1.0000
  N   N6        1.0  0.8342182803377866  0.22773090883466537  0.32245587069181164  1.0000
