data_image0
_chemical_formula_structural       Cs4H20C56O16F24
_chemical_formula_sum              "Cs4 H20 C56 O16 F24"
_cell_length_a       7.204683272
_cell_length_b       14.153029114184633
_cell_length_c       14.479
_cell_angle_alpha    90.06975636188696
_cell_angle_beta     90.0
_cell_angle_gamma    90.0

_space_group_name_H-M_alt    "P 1"
_space_group_IT_number       1

loop_
  _space_group_symop_operation_xyz
  'x, y, z'

loop_
  _atom_site_type_symbol
  _atom_site_label
  _atom_site_symmetry_multiplicity
  _atom_site_fract_x
  _atom_site_fract_y
  _atom_site_fract_z
  _atom_site_occupancy
  Cs  Cs1       1.0  0.6448735946598062  0.05687337954732639  0.3514710950482042  1.0000
  Cs  Cs2       1.0  0.14487243374825445  0.4431266690288851  0.6485306661809532  1.0000
  Cs  Cs3       1.0  0.3551259511911553  0.9431260110420466  0.648529663947528  1.0000
  Cs  Cs4       1.0  0.8551257241166326  0.5568748412496374  0.3514694046819216  1.0000
  H   H1        1.0  0.8428462113802694  0.06865602496159799  0.7107606196537118  1.0000
  H   H2        1.0  0.3428436624826574  0.4313426104885068  0.2892404492382994  1.0000
  H   H3        1.0  0.157156110442827  0.9313447787538678  0.2892380690574399  1.0000
  H   H4        1.0  0.657155883368304  0.5686553669747596  0.7107603080757201  1.0000
  H   H5        1.0  0.5901369761143866  0.3300801139163312  0.802076635847982  1.0000
  H   H6        1.0  0.09013442721677478  0.1699192280968234  0.19792512454032624  1.0000
  H   H7        1.0  0.4098653457087025  0.6699213963621842  0.1979234350149  1.0000
  H   H8        1.0  0.9098651186341866  0.8300794559294926  0.8020756336145567  1.0000
  H   H9        1.0  0.806095116293406  0.056304596292442  0.9934215197526585  1.0000
  H   H10       1.0  0.3061008953121983  0.4436975719729189  0.0065767907219225  1.0000
  H   H11       1.0  0.1938988776132859  0.9436969139860805  0.0065799324210829005  1.0000
  H   H12       1.0  0.6938958745666282  0.5563018186164541  0.9934205149966573  1.0000
  H   H13       1.0  0.5305007667518211  0.8004264178660347  0.9045646900757163  1.0000
  H   H14       1.0  0.030489889937804493  0.6995730212995497  0.09543092359486142  1.0000
  H   H15       1.0  0.4695126589598146  0.1995722661602883  0.09543261480200023  1.0000
  H   H16       1.0  0.9695082679270897  0.3004277824159231  0.9045698370825903  1.0000
  H   H17       1.0  0.7525604936821677  0.3094993454090798  0.3483633526639097  1.0000
  H   H18       1.0  0.2525607207566907  0.1905014097301816  0.6516370280952446  1.0000
  H   H19       1.0  0.24743905216878653  0.6905028714324857  0.6516374096952617  1.0000
  H   H20       1.0  0.7474332731500012  0.8094993939852912  0.348363041926774  1.0000
  C   C1        1.0  0.7840816572678904  0.314425502990531  0.4926298684882937  1.0000
  C   C2        1.0  0.2840832723284805  0.1855731324595808  0.5073712004037176  1.0000
  C   C3        1.0  0.21592344052734083  0.6855760072879845  0.5073688210637215  1.0000
  C   C4        1.0  0.7159162735224811  0.8144248450036926  0.4926295569103019  1.0000
  C   C5        1.0  0.7477247502241084  0.269335475420533  0.5851606408990264  1.0000
  C   C6        1.0  0.2477235893125567  0.23066245346652883  0.4148411178075619  1.0000
  C   C7        1.0  0.252277571598988  0.7306660348579894  0.41483873930842213  1.0000
  C   C8        1.0  0.7522773445244652  0.769333404307595  0.5851603276393149  1.0000
  C   C9        1.0  0.8021546238486721  0.17716432560689543  0.6074765328057552  1.0000
  C   C10       1.0  0.3021548509231948  0.3228336032801592  0.3925245352454  1.0000
  C   C11       1.0  0.1978463099883498  0.8228371846716198  0.39252215674626006  1.0000
  C   C12       1.0  0.6978460829138271  0.677164374183107  0.6074762220686197  1.0000
  C   C13       1.0  0.7918155156342335  0.1392946658402323  0.6957725109736259  1.0000
  C   C14       1.0  0.2918157427087493  0.3607032630468224  0.30422924773296245  1.0000
  C   C15       1.0  0.2081868061888628  0.8607068444382833  0.3042275598892559  1.0000
  C   C16       1.0  0.7081865791143398  0.639294007853394  0.6957715087402008  1.0000
  C   C17       1.0  0.7182619699760195  0.19691912190923225  0.7642684655977378  1.0000
  C   C18       1.0  0.21825942107840748  0.3030795135408795  0.2357326032942737  1.0000
  C   C19       1.0  0.2817403518470698  0.8030823883692904  0.2357309146097109  1.0000
  C   C20       1.0  0.7817415127586216  0.6969177573593441  0.7642681531788824  1.0000
  C   C21       1.0  0.6527115519811844  0.28765312248008  0.7477737793323769  1.0000
  C   C22       1.0  0.1527090030835723  0.2123448064069819  0.2522272887187782  1.0000
  C   C23       1.0  0.347290769841905  0.7123483877984353  0.2522256008750716  1.0000
  C   C24       1.0  0.8472933187395242  0.7876524644932414  0.7477727770989518  1.0000
  C   C25       1.0  0.6709302570990232  0.32107002190848977  0.6583418991330561  1.0000
  C   C26       1.0  0.1709277082014111  0.1789293201046718  0.3416605519106781  1.0000
  C   C27       1.0  0.3290720647240661  0.6789314883700328  0.3416574810743924  1.0000
  C   C28       1.0  0.8290732256356179  0.8210686573586017  0.6583415867142008  1.0000
  C   C29       1.0  0.7797553046964794  0.8024599063226319  0.20544700508639122  1.0000
  C   C30       1.0  0.2797583077431369  0.6975444787842945  0.7945513770919206  1.0000
  C   C31       1.0  0.22024562914054255  0.1975416039558837  0.7945530657764907  1.0000
  C   C32       1.0  0.7202426260938921  0.3024570314942281  0.2054486937709541  1.0000
  C   C33       1.0  0.7444032995653413  0.8482678019509748  0.11309942002178272  1.0000
  C   C34       1.0  0.24440213865378974  0.651733756903752  0.8868982681376636  1.0000
  C   C35       1.0  0.2556004102438223  0.1517315886383912  0.8869013389739494  1.0000
  C   C36       1.0  0.7555974071971647  0.3482670468117206  0.11310042057349531  1.0000
  C   C37       1.0  0.7957379642600912  0.9411059472833827  0.09156614383435621  1.0000
  C   C38       1.0  0.2957409673067416  0.5588956115713444  0.908430853669657  1.0000
  C   C39       1.0  0.20426019360480294  0.05889485643208298  0.9084339261876624  1.0000
  C   C40       1.0  0.7042571905581453  0.44110519214412136  0.0915692163523616  1.0000
  C   C41       1.0  0.762813546760448  0.9840769922677878  0.006893199161112301  1.0000
  C   C42       1.0  0.2628151618210381  0.5159238600238893  0.9931044881574707  1.0000
  C   C43       1.0  0.2371846111044391  0.0159238114476778  0.9931068708609063  1.0000
  C   C44       1.0  0.737173280141384  0.4840734108763342  0.0068941963493927  1.0000
  C   C45       1.0  0.6689315571622814  0.930219930378989  0.9415504261081794  1.0000
  C   C46       1.0  0.1689290082646693  0.5697795087865954  0.0584458782178245  1.0000
  C   C47       1.0  0.3310721526468825  0.0697808733364838  0.0584489532584058  1.0000
  C   C48       1.0  0.8310594336977528  0.4302198818027776  0.9415521181561817  1.0000
  C   C49       1.0  0.6098547061847839  0.8383215139024782  0.9569966930040792  1.0000
  C   C50       1.0  0.10984938131503698  0.6616786318261489  0.043000302818221314  1.0000
  C   C51       1.0  0.3901531675825751  0.1616771701238378  0.0430019931845038  1.0000
  C   C52       1.0  0.8901501645359247  0.3383200522001743  0.9569997646812283  1.0000
  C   C53       1.0  0.652585245249071  0.7994958743297785  0.04217184290424571  1.0000
  C   C54       1.0  0.1525813083653915  0.7005035648357989  0.9578251520771914  1.0000
  C   C55       1.0  0.3474184645600928  0.2005028096965447  0.9578282245951968  1.0000
  C   C56       1.0  0.8474168494995027  0.2994951191905172  0.042174915422251  1.0000
  O   O1        1.0  0.8609594295570062  0.3933189199770482  0.49085208082810544  1.0000
  O   O2        1.0  0.3609665965618589  0.1066811285991633  0.5091503710564851  1.0000
  O   O3        1.0  0.1390428922660902  0.6066818837384247  0.5091472985384797  1.0000
  O   O4        1.0  0.6390468291497697  0.8933196751163022  0.4908531522426927  1.0000
  O   O5        1.0  0.7321529345363871  0.2659475055979428  0.4210244175335944  1.0000
  O   O6        1.0  0.2321489976527005  0.2340504232891192  0.5789773411729868  1.0000
  O   O7        1.0  0.2678466113145745  0.7340554178066723  0.5789749643555668  1.0000
  O   O8        1.0  0.7678352803515196  0.7659440213589048  0.4210227212813038  1.0000
  O   O9        1.0  0.7295865482981654  0.852693712893348  0.2766429149365877  1.0000
  O   O10       1.0  0.22958677537268093  0.6473092590874783  0.7233547749045711  1.0000
  O   O11       1.0  0.2704157735249311  0.14730850394821718  0.7233571567671503  1.0000
  O   O12       1.0  0.7704141584643408  0.352692957754094  0.2766452967991598  1.0000
  O   O13       1.0  0.8483939916907985  0.7219166646154278  0.20894808661150682  1.0000
  O   O14       1.0  0.3483956067513887  0.778084894239299  0.7910516735142396  1.0000
  O   O15       1.0  0.1516055541601631  0.2780841391000449  0.7910533647213782  1.0000
  O   O16       1.0  0.6516067150717078  0.22191590947616643  0.2089490871632123  1.0000
  F   F1        1.0  0.8758913836677562  0.12160020739038657  0.5400203945834363  1.0000
  F   F2        1.0  0.375891610742272  0.3783984280597252  0.4599813649640083  1.0000
  F   F3        1.0  0.12410816218320517  0.8783998897620362  0.4599789839422925  1.0000
  F   F4        1.0  0.6241065471226149  0.621600255966598  0.5400200838463007  1.0000
  F   F5        1.0  0.7106252706343807  0.1632245432023538  0.8520286291942725  1.0000
  F   F6        1.0  0.2106254977089037  0.3367740922477579  0.14797313035316512  1.0000
  F   F7        1.0  0.2893812151469106  0.8367769670761687  0.14797144166860224  1.0000
  F   F8        1.0  0.789380988072395  0.6632231786524655  0.852027626119991  1.0000
  F   F9        1.0  0.6072897079326296  0.4105343286792972  0.6412607166943475  1.0000
  F   F10       1.0  0.1072816070907479  0.08946571989690708  0.35874104453480987  1.0000
  F   F11       1.0  0.3927126138904597  0.5894671815992183  0.3587379728576678  1.0000
  F   F12       1.0  0.8927151627880718  0.9105322575663591  0.6412604034346359  1.0000
  F   F13       1.0  0.8874935592033353  0.9928765284868672  0.15698309658556303  1.0000
  F   F14       1.0  0.387500726208188  0.5071257369309095  0.8430145924147397  1.0000
  F   F15       1.0  0.11249904671728927  0.007124275228598299  0.843018354747322  1.0000
  F   F16       1.0  0.6125029836009688  0.4928771864737057  0.15698548012985472  1.0000
  F   F17       1.0  0.6317932139626732  0.969240581353368  0.8573935343916901  1.0000
  F   F18       1.0  0.1317948290232636  0.530760977501366  0.142603463112323  1.0000
  F   F19       1.0  0.368206331888281  0.0307609289251545  0.14260653647118463  1.0000
  F   F20       1.0  0.8681894489809563  0.4692355868358078  0.8573931485873842  1.0000
  F   F21       1.0  0.5955889853862857  0.7091271668555449  0.05813377789986159  1.0000
  F   F22       1.0  0.09558643648866649  0.7908729788730822  0.9418625272670056  1.0000
  F   F23       1.0  0.4044133364368108  0.2908722237338281  0.9418649091295778  1.0000
  F   F24       1.0  0.904413109362288  0.2091278248423833  0.05813823341044611  1.0000
