data_image0
_chemical_formula_structural       Cu6H36C24N18
_chemical_formula_sum              "Cu6 H36 C24 N18"
_cell_length_a       7.8579637973816725
_cell_length_b       11.05455580446009
_cell_length_c       11.05456565103759
_cell_angle_alpha    62.84453637709238
_cell_angle_beta     69.17902450911926
_cell_angle_gamma    69.17906398418975

_space_group_name_H-M_alt    "P 1"
_space_group_IT_number       1

loop_
  _space_group_symop_operation_xyz
  'x, y, z'

loop_
  _atom_site_type_symbol
  _atom_site_label
  _atom_site_symmetry_multiplicity
  _atom_site_fract_x
  _atom_site_fract_y
  _atom_site_fract_z
  _atom_site_occupancy
  Cu  Cu1       1.0  0.018348720149013818  0.2119993806746621  0.3747461171871437  1.0000
  Cu  Cu2       1.0  0.39499277744400285  0.3746411440863254  0.2118802921296492  1.0000
  Cu  Cu3       1.0  0.5183488011734808  0.8747479702053195  0.7119990050561499  1.0000
  Cu  Cu4       1.0  0.8949943444840894  0.7118797640504718  0.8746413372912585  1.0000
  Cu  Cu5       1.0  0.5462380120703043  0.9537142768476201  0.9537779645388296  1.0000
  Cu  Cu6       1.0  0.046236464192254946  0.4537801680980492  0.4537131932186753  1.0000
  H   H1        1.0  0.05164748486525622  0.9632610760678731  0.3153740344146457  1.0000
  H   H2        1.0  0.6696638958220901  0.3151852551998286  0.9632968557286503  1.0000
  H   H3        1.0  0.5516474943034806  0.8153755792416105  0.46326077058547105  1.0000
  H   H4        1.0  0.16966539671349073  0.46329458312207794  0.8151872016036493  1.0000
  H   H5        1.0  0.050641930847525905  0.021868295404907177  0.13699793387909412  1.0000
  H   H6        1.0  0.7903116057679825  0.1368225995836311  0.021890671367991398  1.0000
  H   H7        1.0  0.5506403537609047  0.6369996035291762  0.5218698871256394  1.0000
  H   H8        1.0  0.2903131912462059  0.5218910207816306  0.6368227772130483  1.0000
  H   H9        1.0  0.21928236634786927  0.8717614949133291  0.2076648628832416  1.0000
  H   H10       1.0  0.701206482204803  0.20755401739219048  0.8717354115092208  1.0000
  H   H11       1.0  0.7192823607382977  0.7076653093219034  0.3717635228483259  1.0000
  H   H12       1.0  0.20120575210751213  0.37173469689223976  0.707554469752047  1.0000
  H   H13       1.0  0.2676039434601521  0.6389073827006229  0.8261086302390197  1.0000
  H   H14       1.0  0.2676321742333057  0.8263668381159943  0.6389518788698114  1.0000
  H   H15       1.0  0.7676048582599369  0.32610769950509416  0.1389067658228385  1.0000
  H   H16       1.0  0.7676301699099142  0.13895190837835955  0.3263689666048323  1.0000
  H   H17       1.0  0.3388635271734657  0.4691376477462156  0.9500232193804197  1.0000
  H   H18       1.0  0.24210323410016357  0.9502986886032115  0.4692009846854859  1.0000
  H   H19       1.0  0.8388636089385529  0.4500208685233315  0.9691385895407763  1.0000
  H   H20       1.0  0.7421030774055528  0.9691996999591196  0.4503007078298111  1.0000
  H   H21       1.0  0.5066406924394042  0.5472549071398801  0.7987944319653694  1.0000
  H   H22       1.0  0.14785984321662926  0.7988669904434784  0.5472663341569799  1.0000
  H   H23       1.0  0.006637727568090719  0.2987955493015733  0.0472537899718048  1.0000
  H   H24       1.0  0.6478605971891724  0.04726541101647521  0.2988675152735852  1.0000
  H   H25       1.0  0.49829578212412434  0.7250593549266069  0.26381552927173857  1.0000
  H   H26       1.0  0.5127504873742694  0.26361929570761305  0.7252094349144116  1.0000
  H   H27       1.0  0.998298913777475  0.7638160471282092  0.22506052928578413  1.0000
  H   H28       1.0  0.012746177328210732  0.22521222645937652  0.7636217551610329  1.0000
  H   H29       1.0  0.5919296159660664  0.5430663071301821  0.2982803968791004  1.0000
  H   H30       1.0  0.5666369770790141  0.2981223557835547  0.5431957521023989  1.0000
  H   H31       1.0  0.0919331246756911  0.7982803835363157  0.0430656272623153  1.0000
  H   H32       1.0  0.0666384276894618  0.043197233590490096  0.7981214636489042  1.0000
  H   H33       1.0  0.34682740747278024  0.6063410904040936  0.3464139929821001  1.0000
  H   H34       1.0  0.7002762901567865  0.346328126676326  0.6064450301539283  1.0000
  H   H35       1.0  0.8468290420758964  0.8464161744781648  0.10633975112732232  1.0000
  H   H36       1.0  0.20027268820521008  0.1064464285487075  0.8463317993234798  1.0000
  C   C1        1.0  0.2705306153127296  0.06403351313377206  0.1720212349273567  1.0000
  C   C2        1.0  0.4932313076138117  0.17193884378671231  0.06402798826072602  1.0000
  C   C3        1.0  0.7705295706557891  0.6720230609328365  0.5640340100161723  1.0000
  C   C4        1.0  0.9932303216386347  0.5640275035116104  0.671941663141574  1.0000
  C   C5        1.0  0.14161190873188914  0.974700335552626  0.2109188609062329  1.0000
  C   C6        1.0  0.6726071498474935  0.21078272156653094  0.9746896057732072  1.0000
  C   C7        1.0  0.6416135322316096  0.7109194363228395  0.4747015874541135  1.0000
  C   C8        1.0  0.17260595111595478  0.47468921013191323  0.7107829264029206  1.0000
  C   C9        1.0  0.4157339322849652  0.628652195914931  0.9600323036589843  1.0000
  C   C10       1.0  0.9956199601414112  0.9600176606808261  0.6286965139590989  1.0000
  C   C11       1.0  0.9157358625812649  0.4600339681004966  0.12865032595929188  1.0000
  C   C12       1.0  0.49561859810635406  0.1286953372691142  0.4600192389745176  1.0000
  C   C13       1.0  0.45790769741426374  0.6570372755036612  0.1269125381088969  1.0000
  C   C14       1.0  0.7581005507336157  0.12681990551030944  0.6571255815735029  1.0000
  C   C15       1.0  0.9579083483293261  0.6269158471292183  0.1570365751930751  1.0000
  C   C16       1.0  0.2581020330110492  0.15712896051054762  0.6268224196029237  1.0000
  C   C17       1.0  0.3811211073396451  0.5674505583007985  0.8788715660121865  1.0000
  C   C18       1.0  0.17280466960384913  0.8790354988061535  0.5674804726430196  1.0000
  C   C19       1.0  0.8811233086753559  0.3788721995009395  0.0674495269368052  1.0000
  C   C20       1.0  0.6728034211689435  0.0674801839069658  0.37903857592442597  1.0000
  C   C21       1.0  0.47485752360649514  0.6319098289847105  0.26638418136852954  1.0000
  C   C22       1.0  0.6267562185123622  0.2662509631838643  0.6320409259778614  1.0000
  C   C23       1.0  0.9748616990426342  0.7663852544439463  0.13190770820720837  1.0000
  C   C24       1.0  0.12675625098136578  0.1320437094347824  0.7662517806585  1.0000
  N   N1        1.0  0.23644765925192968  0.15706953613607766  0.2286136819712041  1.0000
  N   N2        1.0  0.3777734601907382  0.22854214082325797  0.15708599598252698  1.0000
  N   N3        1.0  0.736447408653959  0.7286151328625646  0.6570701952431648  1.0000
  N   N4        1.0  0.8777734445913485  0.6570863989395831  0.7285423801092464  1.0000
  N   N5        1.0  0.4309913108226623  0.06882862821025522  0.0688881437331261  1.0000
  N   N6        1.0  0.9309894361666554  0.5688894326392312  0.5688289684023359  1.0000
  N   N7        1.0  0.4436571517438213  0.7569728740267008  0.90779687273141  1.0000
  N   N8        1.0  0.8916531707530665  0.9077269818891974  0.7570192884332486  1.0000
  N   N9        1.0  0.9436608601960187  0.4077954809669463  0.2569731230275067  1.0000
  N   N10       1.0  0.39164803199740555  0.25702152322813276  0.40772649443714937  1.0000
  N   N11       1.0  0.47197338261865707  0.7760763331449497  0.01386095861087  1.0000
  N   N12       1.0  0.7380830211371149  0.013740148286345035  0.7761473212587263  1.0000
  N   N13       1.0  0.9719743101441125  0.5138609811075836  0.2760738253108812  1.0000
  N   N14       1.0  0.23807983583566275  0.27614809226599146  0.5137406926494847  1.0000
  N   N15       1.0  0.42327418215671037  0.5621723983318248  0.0971311291842269  1.0000
  N   N16       1.0  0.9174339810206861  0.09711208352855022  0.5622700333749222  1.0000
  N   N17       1.0  0.9232773577372625  0.5971313531700773  0.0621710124915609  1.0000
  N   N18       1.0  0.4174305917780856  0.062271619570665675  0.5971134901967333  1.0000
