data_image0
_chemical_formula_structural       Ca2H16C24S2O8
_chemical_formula_sum              "Ca2 H16 C24 S2 O8"
_cell_length_a       7.070653452018558
_cell_length_b       9.353270858346752
_cell_length_c       9.353273033287124
_cell_angle_alpha    95.55736078271109
_cell_angle_beta     90.00014431497418
_cell_angle_gamma    89.99976799689803

_space_group_name_H-M_alt    "P 1"
_space_group_IT_number       1

loop_
  _space_group_symop_operation_xyz
  'x, y, z'

loop_
  _atom_site_type_symbol
  _atom_site_label
  _atom_site_symmetry_multiplicity
  _atom_site_fract_x
  _atom_site_fract_y
  _atom_site_fract_z
  _atom_site_occupancy
  Ca  Ca1       1.0  0.499999978996705  0.499999815890341  0.49999912374759264  1.0000
  Ca  Ca2       1.0  9.30251694300001e-07  0.5000005402446632  0.49999979457791727  1.0000
  H   H1        1.0  0.5555593881731654  0.626326692880383  0.8095792888101132  1.0000
  H   H2        1.0  0.05555854942365102  0.3736713374097321  0.19042163180657215  1.0000
  H   H3        1.0  0.44444297642373  0.8095779957896242  0.6263264700807911  1.0000
  H   H4        1.0  0.9444404162673481  0.19042428188908642  0.37367348931682204  1.0000
  H   H5        1.0  0.44444056983289226  0.37367076080605705  0.19042300941961807  1.0000
  H   H6        1.0  0.9444414085652613  0.6263293759784717  0.8095756587196876  1.0000
  H   H7        1.0  0.5555569815606846  0.1904237992061013  0.3736698634765433  1.0000
  H   H8        1.0  0.05556095605328441  0.8095709713822643  0.6263360648436207  1.0000
  H   H9        1.0  0.555379799373668  0.6799952176723778  0.07417753269680821  1.0000
  H   H10       1.0  0.055380321209696604  0.3200071246923315  0.9258216965563479  1.0000
  H   H11       1.0  0.4446203966041082  0.07417703525570832  0.6799947209262032  1.0000
  H   H12       1.0  0.9446165702021151  0.9258230935696617  0.3200050158937131  1.0000
  H   H13       1.0  0.4446130871475234  0.32000331019234096  0.9258248769567178  1.0000
  H   H14       1.0  0.9446139795827834  0.6799978853758476  0.07417603968308843  1.0000
  H   H15       1.0  0.5553838042677982  0.9258247671734025  0.3200005442361587  1.0000
  H   H16       1.0  0.05538763070507  0.07417324874466401  0.6800025129017089  1.0000
  C   C1        1.0  0.2500020320560452  0.6226381343716342  0.7891729471650779  1.0000
  C   C2        1.0  0.7499965116454279  0.37736041580360075  0.21082625729791005  1.0000
  C   C3        1.0  0.7500003558688279  0.7891717675931247  0.6226392968882808  1.0000
  C   C4        1.0  0.2500024307174585  0.2108278641834147  0.3773589506091569  1.0000
  C   C5        1.0  0.42193247942316253  0.6399167597023806  0.8674069032624774  1.0000
  C   C6        1.0  0.9219395148139785  0.360075931222454  0.13258988068341185  1.0000
  C   C7        1.0  0.5780669874347171  0.8674086660644562  0.6399168017337191  1.0000
  C   C8        1.0  0.0780581057244518  0.13259258037416538  0.3600759417713349  1.0000
  C   C9        1.0  0.5780674785819073  0.3600796346953317  0.13259314674114367  1.0000
  C   C10       1.0  0.07806044317957372  0.6399258265752863  0.8674117948656531  1.0000
  C   C11       1.0  0.4219301419441664  0.13259530702964642  0.3600754810868169  1.0000
  C   C12       1.0  0.9219404379781511  0.8674091551068628  0.6399289389716429  1.0000
  C   C13       1.0  0.4223566590176305  0.6705118258070684  0.015269213328394938  1.0000
  C   C14       1.0  0.9223370414185155  0.3294916279131712  0.9847254803700172  1.0000
  C   C15       1.0  0.5776464317567618  0.015268259929555902  0.6705074724648555  1.0000
  C   C16       1.0  0.0776611980767115  0.9847286687150003  0.3294880298675694  1.0000
  C   C17       1.0  0.5776418846678197  0.3294931693757094  0.9847306597111117  1.0000
  C   C18       1.0  0.0776615022784526  0.6705080038695855  0.015272767124045608  1.0000
  C   C19       1.0  0.4223563548268602  0.9847324460149095  0.3294908864620042  1.0000
  C   C20       1.0  0.9223430028141736  0.0152698665727513  0.6705133113966115  1.0000
  C   C21       1.0  0.24999785500387622  0.684527889730184  0.08973129455343104  1.0000
  C   C22       1.0  0.7499992743949734  0.3154738755112945  0.9102693125950342  1.0000
  C   C23       1.0  0.7500037358342129  0.0897284757322154  0.684529220329033  1.0000
  C   C24       1.0  0.24999763646378884  0.910270059559686  0.3154721209328956  1.0000
  S   S1        1.0  0.2500221072148179  0.724245949499327  0.2757557937311149  1.0000
  S   S2        1.0  0.7499764364876356  0.27575365996463574  0.7242456589579903  1.0000
  O   O1        1.0  0.24999621906442127  0.5911508478360832  0.6476179968883786  1.0000
  O   O2        1.0  0.7500037389334794  0.4088477023370772  0.3523812075757392  1.0000
  O   O3        1.0  0.7500035077895079  0.6476187992205668  0.5911564187555172  1.0000
  O   O4        1.0  0.24999645020221817  0.35238296601677627  0.4088441883952073  1.0000
  O   O5        1.0  0.4269777057769133  0.6685639311543595  0.3314367218651527  1.0000
  O   O6        1.0  0.9269937793041125  0.33143949410780493  0.6685601160070718  1.0000
  O   O7        1.0  0.5730222522218329  0.3314335522904699  0.6685613027711883  1.0000
  O   O8        1.0  0.0730061786894396  0.6685622636899354  0.3314415595419932  1.0000
