data_image0
_chemical_formula_structural       Al2H36C48O12
_chemical_formula_sum              "Al2 H36 C48 O12"
_cell_length_a       3.9620066021295672
_cell_length_b       24.554350098172588
_cell_length_c       24.553598209725646
_cell_angle_alpha    119.99674989734986
_cell_angle_beta     90.00189509658092
_cell_angle_gamma    90.0003618626608

_space_group_name_H-M_alt    "P 1"
_space_group_IT_number       1

loop_
  _space_group_symop_operation_xyz
  'x, y, z'

loop_
  _atom_site_type_symbol
  _atom_site_label
  _atom_site_symmetry_multiplicity
  _atom_site_fract_x
  _atom_site_fract_y
  _atom_site_fract_z
  _atom_site_occupancy
  Al  Al1       1.0  0.0002495475458417  0.4999956503879374  0.50000435051426  1.0000
  Al  Al2       1.0  7.962342180429996e-05  0.16667489717414707  0.8333309226935839  1.0000
  H   H1        1.0  0.4080947391230227  0.4387271989012688  0.7305010934997255  1.0000
  H   H2        1.0  0.40823004277208963  0.22793304892694272  0.6028348514012976  1.0000
  H   H3        1.0  0.6978551949095788  0.33386941696291195  0.8290203945217554  1.0000
  H   H4        1.0  0.7146727918192114  0.3944256967592494  0.7727676230491339  1.0000
  H   H5        1.0  0.6980042141075486  0.3328155946791894  0.504335454522156  1.0000
  H   H6        1.0  0.7147807036406422  0.2722514664874183  0.5605790100710664  1.0000
  H   H7        1.0  0.4080945290131837  0.7917661268446635  0.561270489691111  1.0000
  H   H8        1.0  0.4081857222600008  0.8749105901829567  0.7720622641635161  1.0000
  H   H9        1.0  0.6977982304132128  0.9951551389884443  0.6661351125347676  1.0000
  H   H10       1.0  0.7146336495990229  0.87834912491963  0.6055796856569059  1.0000
  H   H11       1.0  0.6980090700954096  0.6715253289376975  0.6671880620826656  1.0000
  H   H12       1.0  0.7147727879697854  0.788328970648081  0.7277491568386267  1.0000
  H   H13       1.0  0.40804799406917175  0.26948988508807753  0.20822385080492714  1.0000
  H   H14       1.0  0.40821271554888483  0.3971530269575965  0.1251084847934223  1.0000
  H   H15       1.0  0.6977923827388967  0.1709684620599674  0.004831150691657631  1.0000
  H   H16       1.0  0.7145708824926021  0.22721046576769768  0.1216406208384839  1.0000
  H   H17       1.0  0.6979499432149511  0.4956594904100696  0.32849076358915846  1.0000
  H   H18       1.0  0.714750388337535  0.4394153039437043  0.21168432896126893  1.0000
  H   H19       1.0  0.10070585021002641  0.5267647009953222  0.6816110831832916  1.0000
  H   H20       1.0  0.5125320917738562  0.5461534215749707  0.6704971361314093  1.0000
  H   H21       1.0  0.42180491532448644  0.5371994031516962  0.7367805003503277  1.0000
  H   H22       1.0  0.10074867863074394  0.13989420362938174  0.651722221473804  1.0000
  H   H23       1.0  0.5125581229906688  0.12052495404426375  0.6628689792868414  1.0000
  H   H24       1.0  0.4219428424011228  0.12946578486508287  0.5965717105548548  1.0000
  H   H25       1.0  0.10070480032245402  0.6548330482176041  0.47323009710186875  1.0000
  H   H26       1.0  0.5125340138933154  0.6243332894996457  0.4538471132240005  1.0000
  H   H27       1.0  0.42179346004123647  0.6995697269014727  0.462801653815518  1.0000
  H   H28       1.0  0.1007673982420982  0.011841382875232469  0.8601088604943284  1.0000
  H   H29       1.0  0.5125915305942926  0.04235197410401528  0.8794779181763203  1.0000
  H   H30       1.0  0.42194005229100645  0.9671140087040727  0.8705306317703146  1.0000
  H   H31       1.0  0.10064490905505614  0.3183921612523832  0.3451611263083477  1.0000
  H   H32       1.0  0.5124745234135589  0.32950859893364987  0.3756590042367306  1.0000
  H   H33       1.0  0.4217089867762028  0.2632181774407343  0.30042307652031747  1.0000
  H   H34       1.0  0.10082476378072873  0.3482750034025414  0.9881696226202762  1.0000
  H   H35       1.0  0.5126459712567311  0.33713499250463735  0.9576718492032653  1.0000
  H   H36       1.0  0.421987316064552  0.4034277091692644  0.03291038984437483  1.0000
  C   C1        1.0  0.5069014400251819  0.45274634241772554  0.4032316597018522  1.0000
  C   C2        1.0  0.5069614615061653  0.4504723313095127  0.5472491660106584  1.0000
  C   C3        1.0  0.5069463073207247  0.5967677632240865  0.5495304622556887  1.0000
  C   C4        1.0  0.5067683468067447  0.21621277485709825  0.7861053233160148  1.0000
  C   C5        1.0  0.506753207483186  0.0699061732662473  0.7837912198182194  1.0000
  C   C6        1.0  0.5067753586319412  0.21390052517212854  0.9300991629144234  1.0000
  C   C7        1.0  0.5309530053219048  0.4184826847800521  0.584858485100284  1.0000
  C   C8        1.0  0.5308736425126385  0.24819618301379612  0.7484917104670216  1.0000
  C   C9        1.0  0.4545619267194568  0.4497769030665637  0.6496858038248519  1.0000
  C   C10       1.0  0.47062191441158063  0.4150513671570195  0.6805236815394053  1.0000
  C   C11       1.0  0.45456684221977645  0.21689392440820404  0.6836608477406614  1.0000
  C   C12       1.0  0.47067742034089843  0.2516134128486982  0.6528160238330543  1.0000
  C   C13       1.0  0.6294715842557039  0.3115273042496866  0.7794507361719736  1.0000
  C   C14       1.0  0.6369979617240985  0.34524801663589944  0.7479601259795458  1.0000
  C   C15       1.0  0.6295632158591646  0.35515253378351014  0.553901165232233  1.0000
  C   C16       1.0  0.6370670996872931  0.3214261825353971  0.5853852148894133  1.0000
  C   C17       1.0  0.5542018092763926  0.350909887657977  0.6495727395874766  1.0000
  C   C18       1.0  0.5541997211069047  0.31575866986702295  0.6837690873997389  1.0000
  C   C19       1.0  0.5309487868411013  0.6663734654424474  0.581519746218504  1.0000
  C   C20       1.0  0.5308551411882549  0.00030261191690066644  0.7518055528281166  1.0000
  C   C21       1.0  0.4545530591801923  0.6998970584875508  0.5502203529171082  1.0000
  C   C22       1.0  0.47061779816630184  0.7654712698926004  0.5849499996895133  1.0000
  C   C23       1.0  0.4545463204745206  0.9667828805420912  0.7831101044439492  1.0000
  C   C24       1.0  0.47064457662231274  0.9012042784827158  0.748380812586241  1.0000
  C   C25       1.0  0.6294380573320169  0.9679375012329743  0.6884803992400634  1.0000
  C   C26       1.0  0.6369625535824851  0.9027105135235446  0.6547513695199781  1.0000
  C   C27       1.0  0.6295572557864875  0.6987448875200002  0.6448463940507168  1.0000
  C   C28       1.0  0.6370504016993338  0.7639636315636977  0.6785747237706944  1.0000
  C   C29       1.0  0.5541886129665203  0.798660435783077  0.6490903146987392  1.0000
  C   C30       1.0  0.5541709093947775  0.8680187181106052  0.6842419768181286  1.0000
  C   C31       1.0  0.5308936670630758  0.4151411912666561  0.3336271284585308  1.0000
  C   C32       1.0  0.5308698754777342  0.25149796354747167  0.9997016882938893  1.0000
  C   C33       1.0  0.45447843062834903  0.3503068050526251  0.3000959560487643  1.0000
  C   C34       1.0  0.47058683960079156  0.31947141605523643  0.23452579457742925  1.0000
  C   C35       1.0  0.4545610235785561  0.3163360537849158  0.03323409938607114  1.0000
  C   C36       1.0  0.4706660893991669  0.3471692145330252  0.09880489739664709  1.0000
  C   C37       1.0  0.6294128354221942  0.2205416390066546  0.03206303206935961  1.0000
  C   C38       1.0  0.6369439515716593  0.2520224163731442  0.09728212629816109  1.0000
  C   C39       1.0  0.6295023593278942  0.44608934709574294  0.301262202923823  1.0000
  C   C40       1.0  0.6370418894051613  0.4146090388952998  0.2360426575606098  1.0000
  C   C41       1.0  0.5541550456980104  0.3504114050645697  0.20134089274890946  1.0000
  C   C42       1.0  0.5541445502715163  0.3162227878018484  0.13198828792197762  1.0000
  C   C43       1.0  0.36869151507683295  0.518703267672123  0.6866582145043836  1.0000
  C   C44       1.0  0.36873890309164653  0.14796522187030803  0.6466905711393521  1.0000
  C   C45       1.0  0.36868477005535283  0.6679469611116674  0.4812986919532065  1.0000
  C   C46       1.0  0.3687440223024226  0.9987318791864154  0.8520318466901456  1.0000
  C   C47       1.0  0.3686153408843467  0.3133434069962462  0.3320483254768831  1.0000
  C   C48       1.0  0.3687913864486916  0.3533076451461882  0.0012831097440866473  1.0000
  O   O1        1.0  0.7307218330385442  0.5672745970581162  0.5623735200609657  1.0000
  O   O2        1.0  0.7307019929129767  0.4950877654980274  0.4327312603345773  1.0000
  O   O3        1.0  0.730729546056125  0.437633637807103  0.5049132127446753  1.0000
  O   O4        1.0  0.2612753011098051  0.5705009462035733  0.5116946111914514  1.0000
  O   O5        1.0  0.26129984991096933  0.4883076604063702  0.558816944505665  1.0000
  O   O6        1.0  0.26125648691696324  0.4411791299582859  0.4294967493259775  1.0000
  O   O7        1.0  0.7305485159608269  0.17155929019365584  0.900590945413576  1.0000
  O   O8        1.0  0.7305285428972115  0.229049595670027  0.8284461192667649  1.0000
  O   O9        1.0  0.7305034391476541  0.09940793478616423  0.7709531277641658  1.0000
  O   O10       1.0  0.2611010926131669  0.22547776836147887  0.903846267796588  1.0000
  O   O11       1.0  0.2610620827422353  0.09616142171294931  0.8216209536660343  1.0000
  O   O12       1.0  0.26106782864481914  0.1783837732601583  0.7745314550476079  1.0000
