data_image0
_chemical_formula_structural       Zn5H24C36N14O10
_chemical_formula_sum              "Zn5 H24 C36 N14 O10"
_cell_length_a       7.579706598620101
_cell_length_b       10.270463931500847
_cell_length_c       12.063087401371305
_cell_angle_alpha    103.08933899666648
_cell_angle_beta     96.86048514489693
_cell_angle_gamma    99.53137914735751

_space_group_name_H-M_alt    "P 1"
_space_group_IT_number       1

loop_
  _space_group_symop_operation_xyz
  'x, y, z'

loop_
  _atom_site_type_symbol
  _atom_site_label
  _atom_site_symmetry_multiplicity
  _atom_site_fract_x
  _atom_site_fract_y
  _atom_site_fract_z
  _atom_site_occupancy
  Zn  Zn1       1.0  0.4999854449016253  0.5000153924704732  0.49997782775325555  1.0000
  Zn  Zn2       1.0  0.43074972375191584  0.16311205885844524  0.4247386425658632  1.0000
  Zn  Zn3       1.0  0.5692503404846717  0.8368956013324931  0.5752663969751167  1.0000
  Zn  Zn4       1.0  0.15059688868912957  0.31791035829341036  0.28766973064836066  1.0000
  Zn  Zn5       1.0  0.8493952466621836  0.6820819744683532  0.7123284688233298  1.0000
  H   H1        1.0  0.22971155716677313  0.9541845040290012  0.49668887084806795  1.0000
  H   H2        1.0  0.7702925499036084  0.0458180515365783  0.5033113865062901  1.0000
  H   H3        1.0  0.8534098121734316  0.3255694459510039  0.0953832127639345  1.0000
  H   H4        1.0  0.1465905266300851  0.6744239443858859  0.9046191605009782  1.0000
  H   H5        1.0  0.6831051384186607  0.08489511306520817  0.02629561472425479  1.0000
  H   H6        1.0  0.3168901770084104  0.9150992710636102  0.9737040554912111  1.0000
  H   H7        1.0  0.5265960532122592  0.9963279442955726  0.8233729610802386  1.0000
  H   H8        1.0  0.47340352690757465  0.0036674671965286993  0.17662641601107507  1.0000
  H   H9        1.0  0.8541150728198731  0.47986403733831645  0.9625073380914769  1.0000
  H   H10       1.0  0.14589086042906266  0.5201303840664407  0.037494849490379095  1.0000
  H   H11       1.0  0.7466191239818302  0.6116149121273936  0.2573053407611496  1.0000
  H   H12       1.0  0.25337832422554374  0.3883876287348542  0.7426952083065571  1.0000
  H   H13       1.0  0.600564607819777  0.5758996592107622  0.054858880888652095  1.0000
  H   H14       1.0  0.39943149043553206  0.42410288558611603  0.9451432185755947  1.0000
  H   H15       1.0  0.6807658716101628  0.750462372136745  0.9463480168200178  1.0000
  H   H16       1.0  0.31923131126213633  0.24953914865636762  0.053652318776308085  1.0000
  H   H17       1.0  0.9068911076025044  0.9631067598950193  0.04261507794233664  1.0000
  H   H18       1.0  0.0931084694400397  0.0368937482381426  0.9573852590647931  1.0000
  H   H19       1.0  0.9045572114669724  0.5383998993597744  0.38570582552732446  1.0000
  H   H20       1.0  0.09544214063932088  0.4615995734257935  0.614290982333152  1.0000
  H   H21       1.0  0.7651410914696799  0.10961061485994611  0.27266004746275735  1.0000
  H   H22       1.0  0.2348581596395576  0.8903888961217704  0.7273450495858994  1.0000
  H   H23       1.0  0.20987526580275068  0.3141913006426762  0.4912403985428071  1.0000
  H   H24       1.0  0.7901328274483177  0.6858163626777269  0.5087611410506554  1.0000
  C   C1        1.0  0.7811510212576636  0.2877620421932292  0.007140499017182791  1.0000
  C   C2        1.0  0.21884826322797576  0.7122323606885885  0.9928611513592001  1.0000
  C   C3        1.0  0.6857671674044283  0.1519074371949145  0.9679566119619096  1.0000
  C   C4        1.0  0.31423265785106475  0.8480890020055438  0.03204463643842095  1.0000
  C   C5        1.0  0.5969331990841408  0.10224753805886878  0.8549725639707119  1.0000
  C   C6        1.0  0.40306290224844343  0.8977499100969555  0.14502857557771884  1.0000
  C   C7        1.0  0.5987800934371278  0.1884803550001592  0.7794573129542997  1.0000
  C   C8        1.0  0.40122106157102166  0.8115160879048845  0.220544042887127  1.0000
  C   C9        1.0  0.6902957258432778  0.325949745863781  0.8198144865361171  1.0000
  C   C10       1.0  0.30970567430054535  0.6740477247496274  0.18018874061433368  1.0000
  C   C11       1.0  0.783527990046636  0.3738982781167693  0.933722035860697  1.0000
  C   C12       1.0  0.21647315486180935  0.6260981686078894  0.0662801488995512  1.0000
  C   C13       1.0  0.6800507707708192  0.4171886728919248  0.7436623722371891  1.0000
  C   C14       1.0  0.3199527784075826  0.5828067573531686  0.2563389850150486  1.0000
  C   C15       1.0  0.509636052789432  0.1424945273623877  0.6599472181458452  1.0000
  C   C16       1.0  0.49036587802453363  0.8575049833892832  0.3400564359473605  1.0000
  C   C17       1.0  0.7836643736222086  0.6869836659242594  0.20930858747949085  1.0000
  C   C18       1.0  0.2163317347327975  0.313018875053011  0.7906926830659343  1.0000
  C   C19       1.0  0.7013836797262911  0.667958234770886  0.09617050191259577  1.0000
  C   C20       1.0  0.2986153534691098  0.33204533368469674  0.9038311969864026  1.0000
  C   C21       1.0  0.7452289943520539  0.7668769996192566  0.03533168384222307  1.0000
  C   C22       1.0  0.254767103903248  0.2331255451776286  0.9646704156220238  1.0000
  C   C23       1.0  0.871466596236786  0.8854574388594897  0.08861033618785535  1.0000
  C   C24       1.0  0.12853324614083314  0.11454408934280019  0.9113902142906554  1.0000
  C   C25       1.0  0.9584901195407766  0.905368068142508  0.20239455852357927  1.0000
  C   C26       1.0  0.04150972283684239  0.0946334600597893  0.7976059919549314  1.0000
  C   C27       1.0  0.9147157171353655  0.8049041777658204  0.26316352331180326  1.0000
  C   C28       1.0  0.085283070924369  0.1950983629813976  0.736836304278178  1.0000
  C   C29       1.0  0.09874448143450822  0.0261910107396517  0.25717736937632907  1.0000
  C   C30       1.0  0.9012580305481421  0.9738105210522009  0.7428225670655522  1.0000
  C   C31       1.0  0.009937161540577255  0.823876588251885  0.3804483943625955  1.0000
  C   C32       1.0  0.9900671937427461  0.17612189838098402  0.6195527743849638  1.0000
  C   C33       1.0  0.8297430797673045  0.4334293459193078  0.36421071617120043  1.0000
  C   C34       1.0  0.17025494258632526  0.5665701231616751  0.63578598424818  1.0000
  C   C35       1.0  0.7599902658053423  0.215965743853971  0.3057576845597865  1.0000
  C   C36       1.0  0.24000929103779362  0.7840347719184209  0.6942443102849793  1.0000
  N   N1        1.0  0.5944463312963749  0.369587537710629  0.6352557575686717  1.0000
  N   N2        1.0  0.40556360833267047  0.6304119838097293  0.3647460544146526  1.0000
  N   N3        1.0  0.5185489208568654  0.23240005614656667  0.5948607599843143  1.0000
  N   N4        1.0  0.4814572746498554  0.7676004819683868  0.4051426009847389  1.0000
  N   N5        1.0  0.19235082931134434  0.0336665813881183  0.3600904237435926  1.0000
  N   N6        1.0  0.807650097683272  0.9663339228103991  0.6399083628669969  1.0000
  N   N7        1.0  0.14516763176719397  0.9359752639284765  0.4179806716491398  1.0000
  N   N8        1.0  0.8548351455505241  0.06402728793251097  0.5820194782641223  1.0000
  N   N9        1.0  0.8934558846300436  0.3234019651651394  0.3110369755720086  1.0000
  N   N10       1.0  0.10654208722506546  0.6765975230139174  0.6889638694414656  1.0000
  N   N11       1.0  0.6649218549740611  0.3967032771474237  0.38839163580495745  1.0000
  N   N12       1.0  0.3350743341786  0.6032992332729279  0.6116030033899236  1.0000
  N   N13       1.0  0.6206462630450886  0.2571077920884619  0.3507918298272799  1.0000
  N   N14       1.0  0.37934960017426533  0.7428937211804508  0.6492075694091354  1.0000
  O   O1        1.0  0.7528516668396322  0.5462062992184045  0.7874385509502843  1.0000
  O   O2        1.0  0.247159031473096  0.4537912011467428  0.2125662572066389  1.0000
  O   O3        1.0  0.42481527065569225  0.0175157616716177  0.6140172223599905  1.0000
  O   O4        1.0  0.5751827213988249  0.9824837188682095  0.3859819648158477  1.0000
  O   O5        1.0  0.13580567226900797  0.12258526558230189  0.2051802764770301  1.0000
  O   O6        1.0  0.8641976690952616  0.8774142183170428  0.7948168537067275  1.0000
  O   O7        1.0  0.9776993019859008  0.7443688393934025  0.4444730836174031  1.0000
  O   O8        1.0  0.0223101442945293  0.255633723351302  0.5555259456636961  1.0000
  O   O9        1.0  0.29457322300079625  0.33476096596192656  0.43824902168177  1.0000
  O   O10       1.0  0.705428254863385  0.6652415707356241  0.5617485340339455  1.0000
