data_image0
_chemical_formula_structural       Ag8H16C16S4O16
_chemical_formula_sum              "Ag8 H16 C16 S4 O16"
_cell_length_a       5.209020315596545
_cell_length_b       6.611676046384381
_cell_length_c       20.463344261098452
_cell_angle_alpha    89.99966100654484
_cell_angle_beta     90.00000697035402
_cell_angle_gamma    109.15778748075664

_space_group_name_H-M_alt    "P 1"
_space_group_IT_number       1

loop_
  _space_group_symop_operation_xyz
  'x, y, z'

loop_
  _atom_site_type_symbol
  _atom_site_label
  _atom_site_symmetry_multiplicity
  _atom_site_fract_x
  _atom_site_fract_y
  _atom_site_fract_z
  _atom_site_occupancy
  Ag  Ag1       1.0  0.3697372159054099  0.3740531944697594  0.0977402703492771  1.0000
  Ag  Ag2       1.0  0.6302664146023389  0.12595549899883446  0.5977428531475226  1.0000
  Ag  Ag3       1.0  0.6302555073024082  0.6259434574691127  0.9022561376700436  1.0000
  Ag  Ag4       1.0  0.36974645668599493  0.8740571330477708  0.40225893032230436  1.0000
  Ag  Ag5       1.0  0.6533510056150931  0.11105872700328229  0.1541560385020304  1.0000
  Ag  Ag6       1.0  0.3466642467766973  0.388945586254337  0.6541571273691814  1.0000
  Ag  Ag7       1.0  0.3466468979302064  0.8889411182624583  0.845842812907712  1.0000
  Ag  Ag8       1.0  0.6533432461458517  0.6110542366368604  0.345845144791511  1.0000
  H   H1        1.0  0.06154406937167071  0.41924453930622  0.435744601260339  1.0000
  H   H2        1.0  0.9384542228917001  0.0807556875131752  0.9357433738250904  1.0000
  H   H3        1.0  0.9384590145111034  0.5807584992863895  0.5642566935398321  1.0000
  H   H4        1.0  0.061546844122531696  0.9192425476927112  0.0642535228715602  1.0000
  H   H5        1.0  0.9058551746434989  0.13723122578544888  0.4405344287905494  1.0000
  H   H6        1.0  0.09414250539801829  0.36277211045596397  0.94053115968196  1.0000
  H   H7        1.0  0.09415049942092679  0.8627734095028713  0.559464911293432  1.0000
  H   H8        1.0  0.9058592339136735  0.6372277258986967  0.0594652483344831  1.0000
  H   H9        1.0  0.9270370657368974  0.0318290353654191  0.3129219581008726  1.0000
  H   H10       1.0  0.0729698966309726  0.4681736699871948  0.8129199517113719  1.0000
  H   H11       1.0  0.07295844562722917  0.968178828963623  0.6870827574452463  1.0000
  H   H12       1.0  0.9270300237908131  0.5318309786851357  0.1870813430871863  1.0000
  H   H13       1.0  0.9893044933588018  0.3124467653405603  0.3079054032132831  1.0000
  H   H14       1.0  0.010702410780964995  0.18755123405987456  0.8079049107224846  1.0000
  H   H15       1.0  0.01069993510498779  0.6875594755148311  0.6920983349772172  1.0000
  H   H16       1.0  0.9893006731037985  0.8124518045377016  0.19209589539899952  1.0000
  C   C1        1.0  0.1021873850128827  0.2674741241131997  0.4420359971318106  1.0000
  C   C2        1.0  0.8978075936294019  0.23252277701055132  0.9420349652102402  1.0000
  C   C3        1.0  0.8978169444586115  0.7325273088825454  0.5579638316338986  1.0000
  C   C4        1.0  0.10219088320516793  0.7674738615045839  0.0579633975239204  1.0000
  C   C5        1.0  0.08708724801287102  0.18878073842309104  0.3083111071693381  1.0000
  C   C6        1.0  0.9129190795439116  0.31122045949390287  0.8083099246884515  1.0000
  C   C7        1.0  0.9129120001074826  0.8112223090905317  0.6916916536667728  1.0000
  C   C8        1.0  0.0870840043388624  0.6887825790987064  0.1916913701117124  1.0000
  C   C9        1.0  0.2376874984272775  0.2668340420561037  0.5077852730619838  1.0000
  C   C10       1.0  0.7623063047547448  0.23316047731992742  0.0077824879814656  1.0000
  C   C11       1.0  0.7622963076649827  0.7331642333166997  0.4922160217423651  1.0000
  C   C12       1.0  0.23769331865439375  0.7668297476840779  0.9922158747588768  1.0000
  C   C13       1.0  0.24361058092651433  0.1945599254319745  0.24521633474185478  1.0000
  C   C14       1.0  0.7563923248408458  0.3054377559216802  0.7452166231140964  1.0000
  C   C15       1.0  0.7563789788024309  0.8054383365419256  0.7547844713839496  1.0000
  C   C16       1.0  0.24361967613761945  0.6945636591873378  0.2547846716878084  1.0000
  S   S1        1.0  0.32031227665205364  0.2319089580040057  0.3767554059285985  1.0000
  S   S2        1.0  0.6796877408010787  0.2680908621856446  0.8767528308892878  1.0000
  S   S3        1.0  0.6796914795321597  0.7680956817473115  0.6232444228340129  1.0000
  S   S4        1.0  0.32030949045073237  0.731907381941262  0.12324553184330261  1.0000
  O   O1        1.0  0.1088186524194867  0.2941121661316756  0.5580106613368372  1.0000
  O   O2        1.0  0.8911748414275568  0.20588614031601782  0.058006467791720695  1.0000
  O   O3        1.0  0.8911821383221011  0.7059036995030681  0.4419886787362586  1.0000
  O   O4        1.0  0.10882737216323328  0.7941056813836979  0.9419899402324247  1.0000
  O   O5        1.0  0.4664359430002564  0.2376414784909428  0.5080574997173741  1.0000
  O   O6        1.0  0.533556039100681  0.26235784772497783  0.0080541606889  1.0000
  O   O7        1.0  0.5335578277500944  0.762343951977826  0.49194477245686846  1.0000
  O   O8        1.0  0.46644617448613707  0.7376339739648115  0.9919432246926051  1.0000
  O   O9        1.0  0.1185978801518246  0.19551041647128634  0.1918110821046284  1.0000
  O   O10       1.0  0.8814067054044729  0.3044867447539303  0.6918103999675296  1.0000
  O   O11       1.0  0.8813897617008735  0.8044878499755369  0.8081892353424536  1.0000
  O   O12       1.0  0.1185964774904633  0.6955211017479853  0.3081899174706635  1.0000
  O   O13       1.0  0.4865055708970374  0.1946559425476622  0.24968041924229573  1.0000
  O   O14       1.0  0.5134965272742136  0.3053352390343774  0.7496802093695791  1.0000
  O   O15       1.0  0.5134787094802747  0.8053343181850963  0.7503194095337378  1.0000
  O   O16       1.0  0.4864999326639962  0.6946565960245082  0.2503205967625348  1.0000
