data_image0
_chemical_formula_structural       Nd4H56C24Cl12O12
_chemical_formula_sum              "Nd4 H56 C24 Cl12 O12"
_cell_length_a       8.280217411126207
_cell_length_b       8.685288302001068
_cell_length_c       16.346683256893034
_cell_angle_alpha    89.99994910864102
_cell_angle_beta     94.8620387549704
_cell_angle_gamma    90.00002898909332

_space_group_name_H-M_alt    "P 1"
_space_group_IT_number       1

loop_
  _space_group_symop_operation_xyz
  'x, y, z'

loop_
  _atom_site_type_symbol
  _atom_site_label
  _atom_site_symmetry_multiplicity
  _atom_site_fract_x
  _atom_site_fract_y
  _atom_site_fract_z
  _atom_site_occupancy
  Nd  Nd1       1.0  0.3130451665456846  0.3720048090075209  0.22422648691853203  1.0000
  Nd  Nd2       1.0  0.1869553166581994  0.8720054095149337  0.2757734335960081  1.0000
  Nd  Nd3       1.0  0.6869542442158264  0.6279936360634863  0.7757742513760776  1.0000
  Nd  Nd4       1.0  0.8130453015876853  0.12799303555733837  0.7242261318974245  1.0000
  H   H1        1.0  0.5072049869276682  0.3536444491318704  0.9706159481960412  1.0000
  H   H2        1.0  0.9927946614901515  0.8536444549206408  0.5293837212371458  1.0000
  H   H3        1.0  0.49279442383491556  0.6463586014281688  0.029384790097523695  1.0000
  H   H4        1.0  0.007204742413506401  0.14635859564093315  0.4706151815305405  1.0000
  H   H5        1.0  0.3090805458285715  0.33910913195136067  0.008077021792210804  1.0000
  H   H6        1.0  0.19091992436900537  0.8391093730279805  0.49192352543380485  1.0000
  H   H7        1.0  0.6909176551630622  0.6608927672356729  0.9919242774608392  1.0000
  H   H8        1.0  0.8090819036483624  0.16089252616182395  0.508075479099624  1.0000
  H   H9        1.0  0.4489520856792737  0.1813274016282307  0.022434462850235107  1.0000
  H   H10       1.0  0.0510483111687847  0.6813276004827528  0.4775661556959677  1.0000
  H   H11       1.0  0.5510461153118269  0.818672194814283  0.9775668364033336  1.0000
  H   H12       1.0  0.9489535168483129  0.31867314733479185  0.5224328488377239  1.0000
  H   H13       1.0  0.7312365644548392  0.3957751204487466  0.066065055894228  1.0000
  H   H14       1.0  0.7687637363483262  0.8957743439389816  0.43393487646451234  1.0000
  H   H15       1.0  0.26876163196390485  0.6042256273670432  0.9339350196751611  1.0000
  H   H16       1.0  0.2312380939548149  0.10422525250579179  0.5660647399113969  1.0000
  H   H17       1.0  0.683161355178427  0.22064558936591544  0.1168717537242756  1.0000
  H   H18       1.0  0.8168388619243032  0.7206449205440677  0.3831276459541613  1.0000
  H   H19       1.0  0.31683805101100404  0.7793551584506275  0.8831277608858914  1.0000
  H   H20       1.0  0.1831617563218515  0.27935467590046403  0.6168719195390082  1.0000
  H   H21       1.0  0.8490184541867904  0.3865698061185014  0.2108547304829997  1.0000
  H   H22       1.0  0.6509830521080033  0.8865703672435429  0.2891446450771866  1.0000
  H   H23       1.0  0.1509821640596272  0.6134309416982829  0.789144835009914  1.0000
  H   H24       1.0  0.34901756613841434  0.1134303805732486  0.7108549204157202  1.0000
  H   H25       1.0  0.7109774387795652  0.544627868520827  0.19374052828171534  1.0000
  H   H26       1.0  0.7890239108396527  0.04462827088944721  0.3062596136843538  1.0000
  H   H27       1.0  0.28901954786823575  0.45537172792194985  0.8062601082471518  1.0000
  H   H28       1.0  0.2109791315207445  0.9553724769278275  0.6937400535740395  1.0000
  H   H29       1.0  0.6747711508614671  0.5239778706968606  0.34666747171774404  1.0000
  H   H30       1.0  0.8252301891580487  0.023978545834040705  0.1533326795824266  1.0000
  H   H31       1.0  0.3252282576137304  0.4760205743746583  0.6533326547349037  1.0000
  H   H32       1.0  0.17477043137414233  0.9760198992377267  0.8466674977529608  1.0000
  H   H33       1.0  0.8119829067243813  0.3633292330635384  0.3487719319329798  1.0000
  H   H34       1.0  0.6880161669387307  0.8633300422590223  0.15122796420877904  1.0000
  H   H35       1.0  0.18801529197960318  0.6366669092627076  0.6512287554794085  1.0000
  H   H36       1.0  0.3119832415364741  0.1366684028124965  0.8487721622438684  1.0000
  H   H37       1.0  0.59035612955239  0.1882031231714549  0.38981833793936005  1.0000
  H   H38       1.0  0.9096452890984921  0.6882041059063796  0.11018235096995002  1.0000
  H   H39       1.0  0.4096408570954111  0.811796473271322  0.6101822985895069  1.0000
  H   H40       1.0  0.09035654120464899  0.31179549053840105  0.8898172654059593  1.0000
  H   H41       1.0  0.6216494485752689  0.344940528455517  0.46031558627853303  1.0000
  H   H42       1.0  0.8783508263097841  0.8449404628439369  0.03968375721623121  1.0000
  H   H43       1.0  0.3783487455568988  0.6550590679885245  0.5396838774491501  1.0000
  H   H44       1.0  0.12165100399335672  0.1550591336008438  0.9603158591596783  1.0000
  H   H45       1.0  0.3160468772370209  0.19707893564219603  0.45123138528428813  1.0000
  H   H46       1.0  0.183953524647201  0.6970787628089354  0.04876861430005871  1.0000
  H   H47       1.0  0.6839513214683065  0.8029229635453419  0.5487693021268001  1.0000
  H   H48       1.0  0.8160470935992166  0.3029219850078562  0.9512309511928481  1.0000
  H   H49       1.0  0.1978295242937875  0.3681878132531011  0.4269667136985191  1.0000
  H   H50       1.0  0.3021709548491671  0.868187655829857  0.0730325966995835  1.0000
  H   H51       1.0  0.8021674600679704  0.6318129345624471  0.5730333109881232  1.0000
  H   H52       1.0  0.6978308800268634  0.1318130919861531  0.9269682433599941  1.0000
  H   H53       1.0  0.37236163418427287  0.37588126213692874  0.5009776372859349  1.0000
  H   H54       1.0  0.12763943007848158  0.8758803100150204  0.9990220503902806  1.0000
  H   H55       1.0  0.6276365645213247  0.6241217884228691  0.4990230501248903  1.0000
  H   H56       1.0  0.8723624047980821  0.1241227405455092  0.0009787896687712052  1.0000
  C   C1        1.0  0.436900362834507  0.3076928094407235  0.019261895131357697  1.0000
  C   C2        1.0  0.06310009047194849  0.8076930086985  0.4807380544534469  1.0000
  C   C3        1.0  0.563099047927544  0.6923079383747962  0.9807388431627333  1.0000
  C   C4        1.0  0.9369005254881629  0.1923077391188031  0.5192608991974978  1.0000
  C   C5        1.0  0.6633286548574092  0.3462430291336389  0.11478444668813381  1.0000
  C   C6        1.0  0.8366728349763193  0.846242366212195  0.3852155589427113  1.0000
  C   C7        1.0  0.3366707536183284  0.6537577186823995  0.8852156797639881  1.0000
  C   C8        1.0  0.16332899532709186  0.15375838160483818  0.6147840574329424  1.0000
  C   C9        1.0  0.721659765137929  0.41827858094810466  0.19529504406707332  1.0000
  C   C10       1.0  0.7783405438406489  0.9182791763611745  0.304704266277426  1.0000
  C   C11       1.0  0.27833964333754574  0.5817210154956741  0.8047050823853183  1.0000
  C   C12       1.0  0.2216600744054986  0.08172042008335718  0.6952952992157437  1.0000
  C   C13       1.0  0.6838924781766736  0.39813289168957067  0.33878634268800323  1.0000
  C   C14       1.0  0.8161078214366385  0.8981337448379705  0.16121297676264854  1.0000
  C   C15       1.0  0.3161069302982611  0.6018644020096887  0.6612137837649074  1.0000
  C   C16       1.0  0.18389279909555256  0.1018647002337971  0.838787200572739  1.0000
  C   C17       1.0  0.5825226737005309  0.3143094651470122  0.3963104236086253  1.0000
  C   C18       1.0  0.9174775869450187  0.8143104624434088  0.10368893373168932  1.0000
  C   C19       1.0  0.41747673477494357  0.6856901312967594  0.6036897028437664  1.0000
  C   C20       1.0  0.0825218192441426  0.1856891340008815  0.8963105808787405  1.0000
  C   C21       1.0  0.31908268656330546  0.32271092646879396  0.4437866086610853  1.0000
  C   C22       1.0  0.1809177714386294  0.822711891126673  0.05621272229313232  1.0000
  C   C23       1.0  0.6809142977984592  0.6772898213467542  0.5562134160255569  1.0000
  C   C24       1.0  0.8190840611513508  0.17729000806210854  0.9437875059242202  1.0000
  Cl  Cl1       1.0  0.4245093193691005  0.6767316330988251  0.2116330867019016  1.0000
  Cl  Cl2       1.0  0.07549107076961552  0.1767308129086658  0.2883663102379757  1.0000
  Cl  Cl3       1.0  0.5754913034493967  0.32326681197243085  0.7883677024754476  1.0000
  Cl  Cl4       1.0  0.9245083331326995  0.8232664807916166  0.7116325925310107  1.0000
  Cl  Cl5       1.0  0.09964196024120041  0.5671162315006625  0.30769208850350094  1.0000
  Cl  Cl6       1.0  0.4003583789396217  0.06711572568563891  0.1923073579844328  1.0000
  Cl  Cl7       1.0  0.9003562338909675  0.4328833649433861  0.692307375224182  1.0000
  Cl  Cl8       1.0  0.5996422415928395  0.9328838707583812  0.8076928193506989  1.0000
  Cl  Cl9       1.0  0.0880937959307388  0.404103968321067  0.09812234088728643  1.0000
  Cl  Cl10      1.0  0.4119067021950968  0.9041033131672478  0.4018775651181485  1.0000
  Cl  Cl11      1.0  0.9119056125449988  0.5958967794949644  0.9018777855648424  1.0000
  Cl  Cl12      1.0  0.588093918337364  0.09589628327677252  0.5981226122169829  1.0000
  O   O1        1.0  0.4924439994627433  0.3748050950303181  0.09713018675880392  1.0000
  O   O2        1.0  0.007557697099855401  0.8748053981532491  0.4028697833727649  1.0000
  O   O3        1.0  0.5075566256423372  0.625194501412679  0.9028712142602516  1.0000
  O   O4        1.0  0.9924429188602558  0.12519534966405393  0.5971291702781798  1.0000
  O   O5        1.0  0.6226694752397747  0.35816766349469026  0.2565509484689699  1.0000
  O   O6        1.0  0.8773320155654432  0.8581695595401797  0.24344782808723417  1.0000
  O   O7        1.0  0.377331143005577  0.6418284788330694  0.7434486170249812  1.0000
  O   O8        1.0  0.1226686026804344  0.1418288855320924  0.7565517374061984  1.0000
  O   O9        1.0  0.416376716043473  0.36168610697396286  0.3777619020132336  1.0000
  O   O10       1.0  0.0836249721341815  0.8616869152043946  0.12223746220627872  1.0000
  O   O11       1.0  0.5836214826615844  0.6383146408413155  0.6222387853981176  1.0000
  O   O12       1.0  0.9163744340549798  0.13831268123989562  0.8777620524041441  1.0000
