data_image0
_chemical_formula_structural       Zn8H16C80N16O58F8
_chemical_formula_sum              "Zn8 H16 C80 N16 O58 F8"
_cell_length_a       23.86077365701007
_cell_length_b       23.86251274543209
_cell_length_c       23.860661965316716
_cell_angle_alpha    66.63798473040822
_cell_angle_beta     72.44347834358406
_cell_angle_gamma    107.56298704820624

_space_group_name_H-M_alt    "P 1"
_space_group_IT_number       1

loop_
  _space_group_symop_operation_xyz
  'x, y, z'

loop_
  _atom_site_type_symbol
  _atom_site_label
  _atom_site_symmetry_multiplicity
  _atom_site_fract_x
  _atom_site_fract_y
  _atom_site_fract_z
  _atom_site_occupancy
  Zn  Zn1       1.0  0.057100330159215666  0.9568942654493001  0.4860825282146665  1.0000
  Zn  Zn2       1.0  0.057091490227662696  0.10018912719073109  0.45683303966391253  1.0000
  Zn  Zn3       1.0  0.9429019649497266  0.9860964625177362  0.45689710203339445  1.0000
  Zn  Zn4       1.0  0.9429180356184617  0.9567987044684756  0.6002113927205883  1.0000
  Zn  Zn5       1.0  0.9429842538731065  0.5431848816002183  0.013900282477188108  1.0000
  Zn  Zn6       1.0  0.05703015619844364  0.513907758677334  0.04318236559561939  1.0000
  Zn  Zn7       1.0  0.9429764403731229  0.3997943153560259  0.04312104241833473  1.0000
  Zn  Zn8       1.0  0.05700454213827298  0.5430814770661598  0.8998133162959547  1.0000
  H   H1        1.0  0.9231805025070514  0.6520456048244796  0.11281546559329302  1.0000
  H   H2        1.0  0.07683819985412302  0.6128148430549629  0.15206533382188067  1.0000
  H   H3        1.0  0.9236858028309599  0.8879192275072899  0.34730752693870665  1.0000
  H   H4        1.0  0.07621589554904798  0.8472557324395925  0.3880117077307757  1.0000
  H   H5        1.0  0.07680756616301207  0.4639863215392169  0.7711477390084269  1.0000
  H   H6        1.0  0.9231586646376118  0.2710914399406549  0.9640183740757776  1.0000
  H   H7        1.0  0.0762238823062091  0.22895778847377105  0.5357772266381388  1.0000
  H   H8        1.0  0.9236949426629479  0.035772792016338394  0.7289887186046187  1.0000
  H   H9        1.0  0.7352483589362893  0.4642348748846673  0.11204705714889943  1.0000
  H   H10       1.0  0.7352481658685055  0.2710416771542158  0.15270843725223665  1.0000
  H   H11       1.0  0.26486381712135204  0.22887806293454105  0.34794615195137624  1.0000
  H   H12       1.0  0.2648746695637954  0.03600936574306962  0.3871593022335843  1.0000
  H   H13       1.0  0.2647358800939514  0.6119913478207124  0.9642312233260952  1.0000
  H   H14       1.0  0.2647650778750331  0.6527032151588443  0.7709939213949896  1.0000
  H   H15       1.0  0.7351257147452301  0.847942115369399  0.7289050254316934  1.0000
  H   H16       1.0  0.7351185865428536  0.8871888294037763  0.5360061738078341  1.0000
  C   C1        1.0  0.18141566185447291  0.09071449713362513  0.40928265291899624  1.0000
  C   C2        1.0  0.9999987796114951  0.13753694784576703  0.36247862498042577  1.0000
  C   C3        1.0  0.9999683051428863  0.9093252816930287  0.40937419421362625  1.0000
  C   C4        1.0  0.8185838707920681  0.9092791300132461  0.5907272826697963  1.0000
  C   C5        1.0  5.6471198675572584e-05  0.8624719142499658  0.6375050566351419  1.0000
  C   C6        1.0  0.9999740360795004  0.09063965822794978  0.5906623189495405  1.0000
  C   C7        1.0  0.9999976304406175  0.5906881403947465  0.09072373717199882  1.0000
  C   C8        1.0  2.1255565272268164e-05  0.36248096686998815  0.13754201952455966  1.0000
  C   C9        1.0  0.818697098231212  0.409365876799626  0.09064130273030471  1.0000
  C   C10       1.0  0.9999848275781675  0.4092617049398799  0.9093200526443538  1.0000
  C   C11       1.0  1.839525074835941e-05  0.63751750586421  0.862437913199258  1.0000
  C   C12       1.0  0.18130144710502807  0.590634598675564  0.9093335292152956  1.0000
  C   C13       1.0  5.5756893431321403e-05  0.8051535466912939  0.6948088226028373  1.0000
  C   C14       1.0  2.6403340065490698e-05  0.694826513468712  0.8051155348456546  1.0000
  C   C15       1.0  0.9576933677026815  0.7766000875938915  0.765655766152058  1.0000
  C   C16       1.0  0.04237165428916248  0.7233533373232459  0.7342675950001548  1.0000
  C   C17       1.0  0.9576944923536531  0.7233418535428627  0.8189203861119478  1.0000
  C   C18       1.0  0.0424069827694566  0.7766537555701448  0.6809999911456615  1.0000
  C   C19       1.0  0.9999964401721968  0.19485694966253672  0.305173876528734  1.0000
  C   C20       1.0  1.181903035532163e-05  0.30516792705417833  0.19486391130637767  1.0000
  C   C21       1.0  0.9576818143654295  0.18105918973821383  0.2766338730893452  1.0000
  C   C22       1.0  0.042302212297237046  0.31896995812520157  0.22343137862487333  1.0000
  C   C23       1.0  0.9577138226647935  0.2343255744976392  0.22334386811041881  1.0000
  C   C24       1.0  0.042316408859456166  0.26570137002372723  0.2766798072377199  1.0000
  C   C25       1.0  5.6257759767164455e-06  0.6281717015373404  0.1282024301845013  1.0000
  C   C26       1.0  0.9572103997811537  0.6571177770419397  0.13447596210069437  1.0000
  C   C27       1.0  0.9590080494524927  0.6933021229445375  0.16772025865829213  1.0000
  C   C28       1.0  2.7572165564756437e-06  0.6995185904037272  0.19954696293512347  1.0000
  C   C29       1.0  0.04100588812897843  0.6677063326872315  0.1933255378029699  1.0000
  C   C30       1.0  0.04280429865661966  0.634458050549256  0.15714803558291376  1.0000
  C   C31       1.0  0.9999964705361463  0.7347480419558393  0.23478111288243766  1.0000
  C   C32       1.0  0.9999857248894629  0.7652816436643591  0.26531133640658305  1.0000
  C   C33       1.0  0.9999687582664903  0.8005026142846601  0.30055621446107494  1.0000
  C   C34       1.0  0.9561927861942298  0.8288100371600821  0.31026379588990244  1.0000
  C   C35       1.0  0.9569186514679943  0.8652581466739875  0.3432452685551653  1.0000
  C   C36       1.0  0.9999491017223792  0.87182437707105  0.37190822192957274  1.0000
  C   C37       1.0  0.042981796550535016  0.843169604501341  0.36535040680404757  1.0000
  C   C38       1.0  0.04373164789959101  0.810204681508793  0.3288860885513359  1.0000
  C   C39       1.0  0.9999832250191218  0.37178310051088176  0.8718361635718213  1.0000
  C   C40       1.0  0.042777486780195814  0.40830369282404183  0.8000943944417428  1.0000
  C   C41       1.0  0.04098387703609062  0.37327099448226875  0.7656971203118416  1.0000
  C   C42       1.0  0.9999872165280336  0.30045766212470687  0.8004681289032832  1.0000
  C   C43       1.0  0.958992524831892  0.2656714684060618  0.8732868531483858  1.0000
  C   C44       1.0  0.9571924388615045  0.3000448312653818  0.9083395496257295  1.0000
  C   C45       1.0  0.9999860134986065  0.2652377900795957  0.7652262060641987  1.0000
  C   C46       1.0  0.9999795999995057  0.23470317415161207  0.734696535631265  1.0000
  C   C47       1.0  0.9999674980569891  0.19947031009233027  0.6994693347046023  1.0000
  C   C48       1.0  0.043729633580525694  0.2335252572454891  0.627386622778843  1.0000
  C   C49       1.0  0.042987508883001554  0.19980949981005836  0.5916709277080515  1.0000
  C   C50       1.0  0.9999593371309815  0.12812384088731227  0.6281380241701483  1.0000
  C   C51       1.0  0.9569292046557223  0.09166648616026403  0.699824496933431  1.0000
  C   C52       1.0  0.9561957229318453  0.1273885920476517  0.7335336511812754  1.0000
  C   C53       1.0  0.7437300289385502  0.37188396294484244  0.12812601720649042  1.0000
  C   C54       1.0  0.7085095592424653  0.4083479711102316  0.1346931319373963  1.0000
  C   C55       1.0  0.6390811979840834  0.3726305839095545  0.17114336703453864  1.0000
  C   C56       1.0  0.6010584609621149  0.3005498401018374  0.1994599333513562  1.0000
  C   C57       1.0  0.6390814123111214  0.2664878172836538  0.1897569077629413  1.0000
  C   C58       1.0  0.7085101765250031  0.30019814641290304  0.15678148925498905  1.0000
  C   C59       1.0  0.5305916409623848  0.26531506991253206  0.23469020490563253  1.0000
  C   C60       1.0  0.46953388609209423  0.23478277280862164  0.2652120819312528  1.0000
  C   C61       1.0  0.3990655060929384  0.1995469636831615  0.30044197859635347  1.0000
  C   C62       1.0  0.3610218866026643  0.23431821039184095  0.3066764312912155  1.0000
  C   C63       1.0  0.2915981345905934  0.19993682249775452  0.34285480427175224  1.0000
  C   C64       1.0  0.25637906263698806  0.12820159978566895  0.3717928002722245  1.0000
  C   C65       1.0  0.291603191257245  0.09169054624961599  0.3655034718531737  1.0000
  C   C66       1.0  0.3610299516759312  0.12673599659389367  0.3322472198523911  1.0000
  C   C67       1.0  0.25626245057407  0.6280979392837481  0.8718605157196534  1.0000
  C   C68       1.0  0.29148409592242075  0.6346535481697941  0.9083352718294505  1.0000
  C   C69       1.0  0.3609153432155028  0.6711134099578829  0.8726249035071588  1.0000
  C   C70       1.0  0.39894252181003526  0.6994421191009296  0.8005397474247146  1.0000
  C   C71       1.0  0.3609218577531763  0.6897384973861945  0.7664705838677078  1.0000
  C   C72       1.0  0.2914917607856395  0.6567622678496008  0.8001703425772887  1.0000
  C   C73       1.0  0.4693995431400993  0.7346806280705709  0.765315144711991  1.0000
  C   C74       1.0  0.5304646364667818  0.765212980675713  0.7347805525952539  1.0000
  C   C75       1.0  0.6009261615778739  0.8004481845617022  0.6995508697211362  1.0000
  C   C76       1.0  0.6389701125731193  0.8066721238663705  0.7343304537916423  1.0000
  C   C77       1.0  0.708397220355877  0.842859260668703  0.6999493341599675  1.0000
  C   C78       1.0  0.7436219434483534  0.8718054854011187  0.6282084273807484  1.0000
  C   C79       1.0  0.7083912724370268  0.8655283703427018  0.5916910733356529  1.0000
  C   C80       1.0  0.6389621103871264  0.8322735453115869  0.6267317699905988  1.0000
  N   N1        1.0  0.0839500249023075  0.6685060800253312  0.22688434136902202  1.0000
  N   N2        1.0  0.9160649901855962  0.7268545257686512  0.16849350541644972  1.0000
  N   N3        1.0  0.09346597128518405  0.7852237615259057  0.31943812812438205  1.0000
  N   N4        1.0  0.9064677731285188  0.8193643801016395  0.28526187235220846  1.0000
  N   N5        1.0  0.9160621794277902  0.18918430008272216  0.9154236475686516  1.0000
  N   N6        1.0  0.08393505166118588  0.4154242854397481  0.6892106536065583  1.0000
  N   N7        1.0  0.9064746244275812  0.08710950264003257  0.8082503152753445  1.0000
  N   N8        1.0  0.09345981173537152  0.3082352573210088  0.5871113169668475  1.0000
  N   N9        1.0  0.6046501516666254  0.191779619656117  0.21473506766528766  1.0000
  N   N10       1.0  0.6046421130790238  0.4129093852934319  0.18058784050582935  1.0000
  N   N11       1.0  0.39536597014173946  0.0845801980554484  0.33144407902847206  1.0000
  N   N12       1.0  0.3953609509222672  0.31081069346282664  0.2731312318434008  1.0000
  N   N13       1.0  0.39535764997228295  0.7147338104262604  0.6917479842306802  1.0000
  N   N14       1.0  0.3953477667295645  0.6805594331523821  0.9129132407708409  1.0000
  N   N15       1.0  0.6046271185336991  0.831484792546334  0.5845695195493903  1.0000
  N   N16       1.0  0.6046322845543841  0.7731196953865193  0.8108245397886048  1.0000
  O   O1        1.0  4.5508357616267495e-06  0.9999943195906835  0.5000072068437973  1.0000
  O   O2        1.0  0.15284059665433597  0.025520539654713997  0.43376392375517264  1.0000
  O   O3        1.0  0.0402344091939497  0.1559858559962564  0.3843557901950874  1.0000
  O   O4        1.0  0.9586375630068532  0.933013654275648  0.41427089264929845  1.0000
  O   O5        1.0  0.1528367079832407  0.12732812824555856  0.4133859196738499  1.0000
  O   O6        1.0  0.04132665859866347  0.9142343218470754  0.43303825414910346  1.0000
  O   O7        1.0  0.9597703409948724  0.07543821961732523  0.3842393252909416  1.0000
  O   O8        1.0  0.8471557891455389  0.9337556060362714  0.525533153022309  1.0000
  O   O9        1.0  0.9598512292354259  0.8843673468175269  0.6559656804038096  1.0000
  O   O10       1.0  0.8471655084619059  0.9133674057767397  0.6273486303554136  1.0000
  O   O11       1.0  0.04026333552854297  0.8842312302074404  0.5753965980881118  1.0000
  O   O12       1.0  0.0413365645482173  0.12707242589650036  0.5256523006736202  1.0000
  O   O13       1.0  0.95863165997428  0.025627293571588466  0.627091268780191  1.0000
  O   O14       1.0  0.9999958106979678  0.49999172863340396  8.981360906490502e-06  1.0000
  O   O15       1.0  0.9592748219975962  0.5865845763078569  0.06624744772648228  1.0000
  O   O16       1.0  0.04041775259702969  0.4245826502157897  0.11560372490565386  1.0000
  O   O17       1.0  0.847275162740921  0.3729300174841229  0.08572484274477433  1.0000
  O   O18       1.0  0.04071648943943266  0.5662124812465166  0.08662315324339433  1.0000
  O   O19       1.0  0.8472749858896195  0.4743798254940756  0.06697855653310829  1.0000
  O   O20       1.0  0.9596302251006109  0.3440248614390386  0.11582405369005493  1.0000
  O   O21       1.0  0.9592753315249071  0.3726455385732311  0.974514784242167  1.0000
  O   O22       1.0  0.040342838897579725  0.6157343727588652  0.843990753915797  1.0000
  O   O23       1.0  0.04069646882872751  0.47445449572757786  0.8727003238703331  1.0000
  O   O24       1.0  0.9596941119289683  0.6156541934480373  0.9245396501616481  1.0000
  O   O25       1.0  0.15272796074493306  0.5669925892996518  0.9743431115104642  1.0000
  O   O26       1.0  0.1527194003957675  0.5857150878417912  0.8728960460852945  1.0000
  O   O27       1.0  0.05781081396388288  0.6530670658811033  0.2877714475550235  1.0000
  O   O28       1.0  0.14213157072296678  0.6832080751184578  0.19136753240432808  1.0000
  O   O29       1.0  0.9421909347438202  0.7877319171608264  0.1530781961603866  1.0000
  O   O30       1.0  0.8578994615861505  0.6913471519507866  0.1831429382487286  1.0000
  O   O31       1.0  0.12636351260905326  0.7988644805177569  0.2603168973326292  1.0000
  O   O32       1.0  0.09873954087601086  0.7539596621006341  0.37144415182262264  1.0000
  O   O33       1.0  0.8735487801996058  0.7602401392123995  0.298926673372918  1.0000
  O   O34       1.0  0.9012257951031375  0.8713789754194182  0.25395917252692607  1.0000
  O   O35       1.0  0.942201849650644  0.15444241853244722  0.904713132717063  1.0000
  O   O36       1.0  0.857885408464078  0.1665143058324078  0.9589144076018598  1.0000
  O   O37       1.0  0.05781594330708371  0.4047392582325032  0.6544396936698362  1.0000
  O   O38       1.0  0.1421116903726727  0.4588983671216483  0.6665712502963642  1.0000
  O   O39       1.0  0.8735661505778226  0.11332223730650536  0.8275088989565658  1.0000
  O   O40       1.0  0.9012212937512771  0.029846444557392736  0.8447896523182193  1.0000
  O   O41       1.0  0.12636627031180578  0.3274867279209559  0.6133335368127816  1.0000
  O   O42       1.0  0.09872325458601244  0.3447801672332816  0.5298407406451843  1.0000
  O   O43       1.0  0.5591883031307745  0.17252700071396274  0.20106696503860638  1.0000
  O   O44       1.0  0.6253688171509424  0.15523498303814878  0.24603037961371402  1.0000
  O   O45       1.0  0.5591641365505778  0.38668872315183467  0.23970716690131164  1.0000
  O   O46       1.0  0.625369031437174  0.4701771599305929  0.12858137676592915  1.0000
  O   O47       1.0  0.4408284311888124  0.0952726281617942  0.34686775724125596  1.0000
  O   O48       1.0  0.3745151459195243  0.041092406503693744  0.31676076939584863  1.0000
  O   O49       1.0  0.4408048076864973  0.3455658573475234  0.21224434769710857  1.0000
  O   O50       1.0  0.3745330700880062  0.3334619255145626  0.3086573365823213  1.0000
  O   O51       1.0  0.44083601219042373  0.7010904724492946  0.6724907027234934  1.0000
  O   O52       1.0  0.37462238027885086  0.7460097674853332  0.6552102504785536  1.0000
  O   O53       1.0  0.44082779530781124  0.7396764063319097  0.8866938552471523  1.0000
  O   O54       1.0  0.3746200512762173  0.6285595866216911  0.9701865371585325  1.0000
  O   O55       1.0  0.5591596003197382  0.8468956597453713  0.5952730062019285  1.0000
  O   O56       1.0  0.6254780630639445  0.8168205466093069  0.5410661129445485  1.0000
  O   O57       1.0  0.559186605997141  0.7122350917761723  0.8455740569441873  1.0000
  O   O58       1.0  0.6254623972047784  0.8086348306996315  0.8334867294117599  1.0000
  F   F1        1.0  0.9148471127534494  0.7990277565735938  0.785990842954554  1.0000
  F   F2        1.0  0.08515900030582897  0.7008620731632931  0.7139306438532244  1.0000
  F   F3        1.0  0.9148873639044198  0.700879060871273  0.8841909218278942  1.0000
  F   F4        1.0  0.08527919410856534  0.799180593951668  0.6157230008348904  1.0000
  F   F5        1.0  0.9148594196177272  0.11579272863486513  0.2991056599775206  1.0000
  F   F6        1.0  0.08505232269673958  0.38424220744183657  0.20103444476531962  1.0000
  F   F7        1.0  0.9149749689105279  0.21399261111556467  0.20080013406340663  1.0000
  F   F8        1.0  0.08513176603551645  0.2860369294079065  0.2991507998938516  1.0000
