data_image0
_chemical_formula_structural       K4H28C32N16O32
_chemical_formula_sum              "K4 H28 C32 N16 O32"
_cell_length_a       6.84014794427664
_cell_length_b       11.915384776075774
_cell_length_c       14.543517123530131
_cell_angle_alpha    90.00017113288084
_cell_angle_beta     103.9732480089201
_cell_angle_gamma    90.0003188884752

_space_group_name_H-M_alt    "P 1"
_space_group_IT_number       1

loop_
  _space_group_symop_operation_xyz
  'x, y, z'

loop_
  _atom_site_type_symbol
  _atom_site_label
  _atom_site_symmetry_multiplicity
  _atom_site_fract_x
  _atom_site_fract_y
  _atom_site_fract_z
  _atom_site_occupancy
  K   K1        1.0  0.18913070787542094  0.1319865266692588  0.7661966695258189  1.0000
  K   K2        1.0  0.31087167964610524  0.6319831046748094  0.7338078393872038  1.0000
  K   K3        1.0  0.8108692060743509  0.8680148153820043  0.23380603448138268  1.0000
  K   K4        1.0  0.6891237411396816  0.3680224336289654  0.2661971137141422  1.0000
  H   H1        1.0  0.6182700465809389  0.5483990014904095  0.6140602756072441  1.0000
  H   H2        1.0  0.8817290562154553  0.04839844014873052  0.8859387978948166  1.0000
  H   H3        1.0  0.381731340906775  0.45160066205499333  0.3859391548101102  1.0000
  H   H4        1.0  0.11827233126738432  0.9516003841455574  0.11406063252096033  1.0000
  H   H5        1.0  0.09168195608557989  0.3611066127318808  0.5747825991918634  1.0000
  H   H6        1.0  0.40831552356365103  0.8611042002830518  0.9252178022642853  1.0000
  H   H7        1.0  0.9083179314792105  0.6388938900631942  0.4252173514778265  1.0000
  H   H8        1.0  0.5916858771141166  0.13889546326488042  0.07478300482103611  1.0000
  H   H9        1.0  0.1918035136077663  0.9649494637612865  0.48313188289818504  1.0000
  H   H10       1.0  0.3081927547868516  0.4649473212476921  0.0168643609544077  1.0000
  H   H11       1.0  0.8081963739619054  0.035051878284903616  0.5168680677730819  1.0000
  H   H12       1.0  0.6918056196503242  0.5350515030411673  0.9831347332948966  1.0000
  H   H13       1.0  0.23160170591221874  0.21374557831208568  0.2945555690556603  1.0000
  H   H14       1.0  0.2683991871717879  0.7137419171587  0.20544194574016938  1.0000
  H   H15       1.0  0.7683951686020335  0.7862540852264462  0.7054440454459866  1.0000
  H   H16       1.0  0.731603706833873  0.28625690713829516  0.7945576527588332  1.0000
  H   H17       1.0  0.5899013926217054  0.14178610122763766  0.6774954330353539  1.0000
  H   H18       1.0  0.9100957896757149  0.6417866768203951  0.8225043443709199  1.0000
  H   H19       1.0  0.4100999948708904  0.8582144015688871  0.3225039973835849  1.0000
  H   H20       1.0  0.08990107824350697  0.3582129867168718  0.17749458179674357  1.0000
  H   H21       1.0  0.3268876029569228  0.38804901600222064  0.7875837378439385  1.0000
  H   H22       1.0  0.17311168993827408  0.888050111330415  0.7124162448443274  1.0000
  H   H23       1.0  0.6731137779308866  0.6119498082908025  0.21241500423784743  1.0000
  H   H24       1.0  0.826885177980948  0.11194955220684485  0.2875826813233361  1.0000
  H   H25       1.0  0.1401097427443432  0.41378693902330366  0.8249328998473331  1.0000
  H   H26       1.0  0.35988984283542175  0.9137859771565078  0.6750664914427704  1.0000
  H   H27       1.0  0.8598916447433709  0.586212724522099  0.17506653057002106  1.0000
  H   H28       1.0  0.6401070250838002  0.0862136863807521  0.3249324347248931  1.0000
  C   C1        1.0  0.5437481358501587  0.379805893015515  0.5984392160045786  1.0000
  C   C2        1.0  0.9562548140962475  0.8798060651966043  0.9015604173806938  1.0000
  C   C3        1.0  0.456260784251711  0.6201937705434588  0.4015610548289318  1.0000
  C   C4        1.0  0.04374807990941319  0.12019275910039805  0.09843918111830872  1.0000
  C   C5        1.0  0.8729217580431197  0.46404373944600524  0.6024322146105804  1.0000
  C   C6        1.0  0.6270671128515983  0.9640487200220069  0.8975667435600915  1.0000
  C   C7        1.0  0.1270736099287788  0.5359525670853389  0.3975672318015101  1.0000
  C   C8        1.0  0.37292673544158106  0.03595346126192572  0.10243115811186952  1.0000
  C   C9        1.0  0.8355107606048763  0.2641314723247066  0.5623035024154818  1.0000
  C   C10       1.0  0.664483351156953  0.7641266478092068  0.9376989848702737  1.0000
  C   C11       1.0  0.16448611392401347  0.7358707089671842  0.4376961120908974  1.0000
  C   C12       1.0  0.33551654958812793  0.23587217648616848  0.06230234246422129  1.0000
  C   C13       1.0  0.38510997856320023  0.09659605501203572  0.5444921313866545  1.0000
  C   C14       1.0  0.1148859119968435  0.5965961724856685  0.955505376899062  1.0000
  C   C15       1.0  0.614886895960808  0.9034052870287329  0.45550748311815437  1.0000
  C   C16       1.0  0.8851139689680422  0.4034034910570273  0.04449388543505959  1.0000
  C   C17       1.0  0.1873833603669581  0.08275031481430523  0.3807610276455194  1.0000
  C   C18       1.0  0.31260388477783607  0.582756551482696  0.11922707744678726  1.0000
  C   C19       1.0  0.8126150074800692  0.9172493487244111  0.6192373782713931  1.0000
  C   C20       1.0  0.6873990026328014  0.4172422728130415  0.8807718327182316  1.0000
  C   C21       1.0  0.4208697028290516  0.23819015273899435  0.4283311250575253  1.0000
  C   C22       1.0  0.07913146793480048  0.7381904343897078  0.07166579348015743  1.0000
  C   C23       1.0  0.5791271716949637  0.7618111893017743  0.5716684894472835  1.0000
  C   C24       1.0  0.9208729194085237  0.26180922915858673  0.928332596435695  1.0000
  C   C25       1.0  0.630240419133763  0.2612324219600738  0.5902334917863217  1.0000
  C   C26       1.0  0.8697566456049657  0.7612315084523616  0.9097665674183022  1.0000
  C   C27       1.0  0.3697594618408786  0.7387689200848585  0.4097657705509619  1.0000
  C   C28       1.0  0.1302432419500619  0.23876731584047672  0.09023338324822561  1.0000
  C   C29       1.0  0.4771832887701422  0.19389473683034456  0.5205335125004639  1.0000
  C   C30       1.0  0.022816733074904495  0.6938946475073353  0.9794633217505508  1.0000
  C   C31       1.0  0.5228135989390381  0.8061057659618316  0.4794674786707277  1.0000
  C   C32       1.0  0.9771876608732057  0.30610669454446804  0.020535756502447114  1.0000
  N   N1        1.0  0.6752915171453749  0.46761193194837625  0.609275425475751  1.0000
  N   N2        1.0  0.8247049344105974  0.9676099657857764  0.8907250748712698  1.0000
  N   N3        1.0  0.3247083638243922  0.5323885708454343  0.39072383685995504  1.0000
  N   N4        1.0  0.1752964596623841  0.03238801925865431  0.10927504387690593  1.0000
  N   N5        1.0  0.9428531961187473  0.3619245708332671  0.5785842173720044  1.0000
  N   N6        1.0  0.5571450394959427  0.8619210224578714  0.921416221076065  1.0000
  N   N7        1.0  0.05714819797375271  0.6380767712156371  0.4214159013824955  1.0000
  N   N8        1.0  0.4428563545819201  0.1380778018376816  0.0785838976736954  1.0000
  N   N9        1.0  0.24661647733020686  0.04343249994287392  0.4718610128302673  1.0000
  N   N10       1.0  0.25338091557836157  0.543430661827074  0.02813431574809751  1.0000
  N   N11       1.0  0.7533819103019042  0.9565671635996369  0.5281394580885889  1.0000
  N   N12       1.0  0.7466189587915011  0.4565690017143497  0.9718642582520405  1.0000
  N   N13       1.0  0.2746169182430691  0.18103847628953673  0.3624611348136497  1.0000
  N   N14       1.0  0.22538810090939168  0.6810386262652843  0.13753538438257357  1.0000
  N   N15       1.0  0.7253814693890347  0.8189611872529743  0.6375393361052064  1.0000
  N   N16       1.0  0.7746162930387186  0.318962715786519  0.8624636938704243  1.0000
  O   O1        1.0  0.3664417924385574  0.3943271757388302  0.6005694874329779  1.0000
  O   O2        1.0  0.133551553958938  0.8943271483163646  0.8994305349003896  1.0000
  O   O3        1.0  0.6335551150556994  0.6056733270571542  0.39943356874016445  1.0000
  O   O4        1.0  0.8664453271357004  0.1056699974700734  0.10056976793050153  1.0000
  O   O5        1.0  0.9788878629833986  0.5489350221503743  0.615334520563586  1.0000
  O   O6        1.0  0.5211142920357402  0.04892910767208042  0.8846683327836404  1.0000
  O   O7        1.0  0.021116563954478803  0.45106883766111155  0.38466799936406915  1.0000
  O   O8        1.0  0.4788901282631954  0.9510671988780718  0.11533349879579902  1.0000
  O   O9        1.0  0.9094169812798398  0.17934451847073526  0.5353358605941808  1.0000
  O   O10       1.0  0.5905806707399748  0.6793454309412966  0.9646674999432181  1.0000
  O   O11       1.0  0.0905798932344126  0.8206551450677964  0.464663753907459  1.0000
  O   O12       1.0  0.40942225624569767  0.3206542326131513  0.03533554022727971  1.0000
  O   O13       1.0  0.42255250493572305  0.05347890158535051  0.6279544353865276  1.0000
  O   O14       1.0  0.07743682516586149  0.5534777557201452  0.872038796496881  1.0000
  O   O15       1.0  0.577445882696388  0.9465207619571533  0.3720460355323355  1.0000
  O   O16       1.0  0.9225600427484792  0.44652106856600005  0.12796012966919793  1.0000
  O   O17       1.0  0.0605896298957376  0.032703774958477504  0.31792709753062104  1.0000
  O   O18       1.0  0.4394196904244794  0.5326997357341839  0.18206953530062014  1.0000
  O   O19       1.0  0.9394102510740298  0.967296727835333  0.6820721648050851  1.0000
  O   O20       1.0  0.5605816838683068  0.4672990885575744  0.8179285184471825  1.0000
  O   O21       1.0  0.49791433127742835  0.32709545942898904  0.4039980519490741  1.0000
  O   O22       1.0  0.0020878931043171005  0.8270964229203063  0.09600126644610192  1.0000
  O   O23       1.0  0.5020825498318473  0.6729042041108076  0.5960022508865565  1.0000
  O   O24       1.0  0.997916500843793  0.17290491913149716  0.9039978118068961  1.0000
  O   O25       1.0  0.6747835072405832  0.21311420058825095  0.6836344324539853  1.0000
  O   O26       1.0  0.8252129979610031  0.7131136433216061  0.8163654455181304  1.0000
  O   O27       1.0  0.3252133672785503  0.7868863022013959  0.31636518204923914  1.0000
  O   O28       1.0  0.17478839612661545  0.2868868594761835  0.18363467323478494  1.0000
  O   O29       1.0  0.19222359338623815  0.3581941194399931  0.7868234187440992  1.0000
  O   O30       1.0  0.3077768588590644  0.8581939693192312  0.7131766195791303  1.0000
  O   O31       1.0  0.8077762941687895  0.6418047048528451  0.2131765319224287  1.0000
  O   O32       1.0  0.692221528777921  0.14180653347439434  0.28682385134131044  1.0000
