data_image0
_chemical_formula_structural       Zn6H90C72N12O24
_chemical_formula_sum              "Zn6 H90 C72 N12 O24"
_cell_length_a       10.69057981115353
_cell_length_b       17.314129033389314
_cell_length_c       17.313280243689647
_cell_angle_alpha    119.99777712595312
_cell_angle_beta     89.99835305709814
_cell_angle_gamma    90.00082007466898

_space_group_name_H-M_alt    "P 1"
_space_group_IT_number       1

loop_
  _space_group_symop_operation_xyz
  'x, y, z'

loop_
  _atom_site_type_symbol
  _atom_site_label
  _atom_site_symmetry_multiplicity
  _atom_site_fract_x
  _atom_site_fract_y
  _atom_site_fract_z
  _atom_site_occupancy
  Zn  Zn1       1.0  0.851986226262582  0.9270292075242778  0.4658538532765562  1.0000
  Zn  Zn2       1.0  0.6854692968021183  0.4656987313041653  0.5387143668502147  1.0000
  Zn  Zn3       1.0  0.51832887611436  0.5388570834825899  0.07308750842010878  1.0000
  Zn  Zn4       1.0  0.3520210086311621  0.07296068185276978  0.5341516949470131  1.0000
  Zn  Zn5       1.0  0.18518277332873367  0.5343098015527303  0.4612755150620059  1.0000
  Zn  Zn6       1.0  0.0182767664154468  0.46115618369582717  0.9268821411273719  1.0000
  H   H1        1.0  0.2965343180334372  0.6548264017718992  0.09856192881861854  1.0000
  H   H2        1.0  0.1303515550436529  0.09842517697702387  0.4437810212349618  1.0000
  H   H3        1.0  0.9636566853708574  0.44407246340718126  0.3453673505308216  1.0000
  H   H4        1.0  0.7965388033890192  0.34519314836411025  0.9014322746692327  1.0000
  H   H5        1.0  0.6303663463069711  0.9015735626253374  0.5562254131712977  1.0000
  H   H6        1.0  0.46363684886739526  0.5559470447149407  0.6546377703098897  1.0000
  H   H7        1.0  0.6422036173159354  0.6990344087560558  0.22192616477089194  1.0000
  H   H8        1.0  0.47566260367894836  0.2222742850509505  0.523446452764567  1.0000
  H   H9        1.0  0.30927123846890237  0.5233684502232165  0.3012513494262948  1.0000
  H   H10       1.0  0.14222955572545712  0.3009593856482341  0.778058434429461  1.0000
  H   H11       1.0  0.9756614322130588  0.7776985615421879  0.4765531366922958  1.0000
  H   H12       1.0  0.8092326834620918  0.47665388312428536  0.6987340674557811  1.0000
  H   H13       1.0  0.23036708417604498  0.8133924161464704  0.20100479684666797  1.0000
  H   H14       1.0  0.0640208040074626  0.20084520276584777  0.3876970394590272  1.0000
  H   H15       1.0  0.8975547439218089  0.38795288351251855  0.1868008166294857  1.0000
  H   H16       1.0  0.730381127899129  0.186617029249291  0.7990018500556956  1.0000
  H   H17       1.0  0.5640111227338876  0.7991610330974976  0.6123181009250516  1.0000
  H   H18       1.0  0.3975429674207547  0.6120883939502023  0.8131952658112241  1.0000
  H   H19       1.0  0.2209628557175876  0.8404394462807545  0.36484162162274464  1.0000
  H   H20       1.0  0.05402473626373449  0.3650581289472043  0.5243985173160154  1.0000
  H   H21       1.0  0.8876958606636335  0.5242196719798073  0.1595274037708663  1.0000
  H   H22       1.0  0.7209613066573083  0.15955523620239392  0.6351811130334255  1.0000
  H   H23       1.0  0.5539820841933789  0.6349465991273817  0.4756032927191427  1.0000
  H   H24       1.0  0.38768074973724964  0.47579249313738337  0.840469090805321  1.0000
  H   H25       1.0  0.20896789892891124  0.8073513290858259  0.4844820600158499  1.0000
  H   H26       1.0  0.04189789930682511  0.48477299043985056  0.6770165574082228  1.0000
  H   H27       1.0  0.8748911438552154  0.6769306013323017  0.19234303921376045  1.0000
  H   H28       1.0  0.7089613067618004  0.1926503951545867  0.5155419328256982  1.0000
  H   H29       1.0  0.5418492452440375  0.5151751226925043  0.32296353821448054  1.0000
  H   H30       1.0  0.3748909708153931  0.32309373794736007  0.8076565259658536  1.0000
  H   H31       1.0  0.4411755036784086  0.9895571012167748  0.3517866396350512  1.0000
  H   H32       1.0  0.27454952612349354  0.3516385093865678  0.3622359334315135  1.0000
  H   H33       1.0  0.10876215327549228  0.3627359799101555  0.010701527663584967  1.0000
  H   H34       1.0  0.941181271605693  0.010432041333856883  0.6482365444381484  1.0000
  H   H35       1.0  0.7745867831061304  0.648276862407286  0.637696506471471  1.0000
  H   H36       1.0  0.6087242300555856  0.637280428764818  0.9892876222697994  1.0000
  H   H37       1.0  0.28193667150114976  0.9602544849999858  0.3187616205088092  1.0000
  H   H38       1.0  0.11533991558560788  0.31861905782254496  0.3586445573766852  1.0000
  H   H39       1.0  0.949546525166994  0.3583772238102725  0.039680313818834634  1.0000
  H   H40       1.0  0.781943458299871  0.03975416542411378  0.6812552963635667  1.0000
  H   H41       1.0  0.6153618393034676  0.6813238095430165  0.641372971274123  1.0000
  H   H42       1.0  0.449535256144415  0.6416559293390802  0.960316033455413  1.0000
  H   H43       1.0  0.5925237321549659  0.8589568024209696  0.3278375271776711  1.0000
  H   H44       1.0  0.4258389008983769  0.328141411097313  0.46938693535778236  1.0000
  H   H45       1.0  0.25968950318060285  0.46937951340275674  0.14133124648928688  1.0000
  H   H46       1.0  0.0925378423125238  0.141038197059885  0.672169858296904  1.0000
  H   H47       1.0  0.925818884688127  0.6718362431280127  0.5306283745805445  1.0000
  H   H48       1.0  0.7596663819327033  0.530643299270494  0.858656887392044  1.0000
  H   H49       1.0  0.4255196334439191  0.9398360377176401  0.5754469999915273  1.0000
  H   H50       1.0  0.25888807817528203  0.5755710684096158  0.6357541148341852  1.0000
  H   H51       1.0  0.0916312209058816  0.6355041608656576  0.060006840894537686  1.0000
  H   H52       1.0  0.9255301402197914  0.060164945032873486  0.4245796397297922  1.0000
  H   H53       1.0  0.758910360339989  0.4244257828302408  0.3642507555702251  1.0000
  H   H54       1.0  0.5916194140653204  0.3645119112956933  0.9399829515302683  1.0000
  H   H55       1.0  0.3697811415303818  0.8634737109803581  0.6071987973995334  1.0000
  H   H56       1.0  0.2029189406396057  0.6072565729056265  0.7438152639367743  1.0000
  H   H57       1.0  0.0356206283873277  0.7435788440625188  0.13622283647522693  1.0000
  H   H58       1.0  0.8697891783328942  0.13652639873682648  0.3928193151175562  1.0000
  H   H59       1.0  0.702907086506535  0.39272082783676854  0.2561811802020699  1.0000
  H   H60       1.0  0.5356108249234809  0.25643528275659117  0.8637733680489176  1.0000
  H   H61       1.0  0.2714616687554993  0.950642063801048  0.6175712788064587  1.0000
  H   H62       1.0  0.10489244736420027  0.6177500275803425  0.6669512374218768  1.0000
  H   H63       1.0  0.9375438406872403  0.6665693235118227  0.04897561619916507  1.0000
  H   H64       1.0  0.7714560804328912  0.04935469381128845  0.38245194351300427  1.0000
  H   H65       1.0  0.6049049225715848  0.3822063307244293  0.33305529611960333  1.0000
  H   H66       1.0  0.437539242126519  0.33345560452269735  0.9510233955988879  1.0000
  H   H67       1.0  0.3571592297123445  0.7242427360204076  0.3565925838941907  1.0000
  H   H68       1.0  0.18957516682051082  0.35674566524218676  0.632547496558395  1.0000
  H   H69       1.0  0.0231388785177415  0.6327092179194906  0.27584298898004533  1.0000
  H   H70       1.0  0.8571645644346189  0.2757689943105958  0.6434233738588445  1.0000
  H   H71       1.0  0.689540428854059  0.64323431136971  0.3674477653256289  1.0000
  H   H72       1.0  0.5231678275223359  0.3672935758323205  0.7241474448793211  1.0000
  H   H73       1.0  0.40559122771251305  0.7250486090784419  0.45503974762775107  1.0000
  H   H74       1.0  0.2379137906226561  0.45518105648967827  0.7302560197760427  1.0000
  H   H75       1.0  0.071285176850445  0.7302648401201137  0.2747839069063858  1.0000
  H   H76       1.0  0.9055944783846144  0.2749484885292189  0.5449680304160651  1.0000
  H   H77       1.0  0.7378616698821219  0.5447951060571156  0.26973988241083907  1.0000
  H   H78       1.0  0.5712829121919469  0.2697354254006327  0.7252151262339835  1.0000
  H   H79       1.0  0.48055314924528136  0.7962128636337978  0.4223593277741244  1.0000
  H   H80       1.0  0.31340093436583766  0.4223194557344598  0.6265395452765928  1.0000
  H   H81       1.0  0.14660241225755746  0.6264954729931701  0.2039296359480645  1.0000
  H   H82       1.0  0.9805636202947738  0.20379424441463795  0.5776544265829243  1.0000
  H   H83       1.0  0.8133635302922997  0.5776399888648243  0.37345093410016966  1.0000
  H   H84       1.0  0.6466085819231182  0.37350984919385155  0.7960710800277083  1.0000
  H   H85       1.0  0.8886345141161344  0.8461718601579804  0.21496606975371457  1.0000
  H   H86       1.0  0.7220689524606385  0.21476733458153768  0.36880850589012226  1.0000
  H   H87       1.0  0.553413038784015  0.3689644965458783  0.1543739642715067  1.0000
  H   H88       1.0  0.3885970001301473  0.15384918847784956  0.7850446272989444  1.0000
  H   H89       1.0  0.22215443026941267  0.7852338558802358  0.6312227168399502  1.0000
  H   H90       1.0  0.0533786935083356  0.6310213510359121  0.845606307942596  1.0000
  C   C1        1.0  0.1313618918209798  0.9468510564295087  0.48358536953049486  1.0000
  C   C2        1.0  0.9648463483608437  0.48374802524177346  0.5365652145891531  1.0000
  C   C3        1.0  0.7974769291661019  0.536279896505711  0.053172406728386176  1.0000
  C   C4        1.0  0.6313886400831663  0.0531414610962813  0.5164214935379617  1.0000
  C   C5        1.0  0.46463041599227484  0.5161985137212355  0.4634216044631286  1.0000
  C   C6        1.0  0.2974744812832029  0.4637354082814794  0.9468248705677879  1.0000
  C   C7        1.0  0.3583422834047241  0.7025020488024012  0.1506544244224202  1.0000
  C   C8        1.0  0.19207646695305408  0.15060266384011806  0.448302951394538  1.0000
  C   C9        1.0  0.025438361292003695  0.4485978660252101  0.29773886218021767  1.0000
  C   C10       1.0  0.8583649179180454  0.2975077115192732  0.8493415339628783  1.0000
  C   C11       1.0  0.692087498194944  0.8493916386074502  0.5517125932981982  1.0000
  C   C12       1.0  0.5254162739982107  0.5514143715849541  0.702253637973129  1.0000
  C   C13       1.0  0.5522313098677856  0.7273204733415852  0.21984320769340834  1.0000
  C   C14       1.0  0.3857308265365447  0.2201024089999989  0.4929660937748962  1.0000
  C   C15       1.0  0.21927829776679889  0.49302417826603323  0.27293976186462743  1.0000
  C   C16       1.0  0.05225278316900981  0.2726810571932387  0.78015143512642  1.0000
  C   C17       1.0  0.8857301865991403  0.7798787098616913  0.5070360713086686  1.0000
  C   C18       1.0  0.7192381926601071  0.5069948938221528  0.7270493698666414  1.0000
  C   C19       1.0  0.32292855179605345  0.7905433008571734  0.2072890042959301  1.0000
  C   C20       1.0  0.1565353040743815  0.2072596774755979  0.4169378077958327  1.0000
  C   C21       1.0  0.9900574821612905  0.4171860460272896  0.20967608439755028  1.0000
  C   C22       1.0  0.8229490018442076  0.20945740851630743  0.7927085526839333  1.0000
  C   C23       1.0  0.6565314883124245  0.7927437286131678  0.5830808194372423  1.0000
  C   C24       1.0  0.49005451574506503  0.5828514427219671  0.7903325303143588  1.0000
  C   C25       1.0  0.25416215791373287  0.8908878042024567  0.4314254379479864  1.0000
  C   C26       1.0  0.0873235835085993  0.4316195031441549  0.5405152241157295  1.0000
  C   C27       1.0  0.9205476066072789  0.5403664002917381  0.1090043379399504  1.0000
  C   C28       1.0  0.754155971456889  0.10911728660742173  0.568589759552161  1.0000
  C   C29       1.0  0.5874298514949956  0.5684128180345667  0.459459548802883  1.0000
  C   C30       1.0  0.4205307724422268  0.4596422400252464  0.8909846980948685  1.0000
  C   C31       1.0  0.2954136026347385  0.8401393224615107  0.4811931721324356  1.0000
  C   C32       1.0  0.12848706148903233  0.48134133787041833  0.6410309880659213  1.0000
  C   C33       1.0  0.9614415174371372  0.6409561245060686  0.15967532337367632  1.0000
  C   C34       1.0  0.7954098738956716  0.15986052985555688  0.5188253719009381  1.0000
  C   C35       1.0  0.6284461996090512  0.5185997708164294  0.35894185813360474  1.0000
  C   C36       1.0  0.4614378504840815  0.3590677420616473  0.8403208573515784  1.0000
  C   C37       1.0  0.3669986645115628  0.941732737302672  0.3424942532161311  1.0000
  C   C38       1.0  0.2004216015251856  0.3424712055186205  0.40088710420054946  1.0000
  C   C39       1.0  0.0342538415530527  0.4009968374510322  0.05836159612071872  1.0000
  C   C40       1.0  0.8670181679268865  0.05827290330429242  0.6575287740459572  1.0000
  C   C41       1.0  0.7004140509510534  0.6574981984561673  0.5991000545044683  1.0000
  C   C42       1.0  0.5342293979309147  0.5990294655738565  0.9416374727995701  1.0000
  C   C43       1.0  0.40584928956315747  0.8484262923002815  0.2734939596049769  1.0000
  C   C44       1.0  0.23933304208885176  0.2735761978782917  0.4253640723968742  1.0000
  C   C45       1.0  0.0729533497490777  0.42553551741130485  0.15178634373646097  1.0000
  C   C46       1.0  0.9058705317372856  0.15157413987196117  0.7265104787737612  1.0000
  C   C47       1.0  0.739318782112086  0.72642055398628  0.5746597299776965  1.0000
  C   C48       1.0  0.5729232597776814  0.5744920130185703  0.848216581900182  1.0000
  C   C49       1.0  0.523975253287901  0.8161829548832816  0.27812732676949997  1.0000
  C   C50       1.0  0.3573791713024264  0.2783418851115442  0.4623517158711151  1.0000
  C   C51       1.0  0.1910532612508717  0.4624396284792808  0.1840619706227642  1.0000
  C   C52       1.0  0.023997404982097206  0.18381221104684894  0.7218788069781324  1.0000
  C   C53       1.0  0.8573711663582272  0.721641913741017  0.5376609826423504  1.0000
  C   C54       1.0  0.6910219499225363  0.5375793492059129  0.8159289150754744  1.0000
  C   C55       1.0  0.342831466098218  0.902196012847405  0.5753716225036314  1.0000
  C   C56       1.0  0.1761134160335729  0.5754902306160545  0.6732424857498884  1.0000
  C   C57       1.0  0.008832654751699903  0.6729975763543762  0.09753891685814152  1.0000
  C   C58       1.0  0.8428334519276887  0.09779829259700523  0.42464584554395657  1.0000
  C   C59       1.0  0.6761252460666256  0.4244672541068724  0.32675587248787247  1.0000
  C   C60       1.0  0.5088189171824026  0.32701832625469524  0.9024502146526813  1.0000
  C   C61       1.0  0.39039394978522785  0.7674089240455401  0.4252205790013477  1.0000
  C   C62       1.0  0.22302348778766398  0.4253293624213086  0.6580316781475517  1.0000
  C   C63       1.0  0.05632356520392529  0.6580486497846252  0.2325621037488831  1.0000
  C   C64       1.0  0.8903902246165387  0.23258732522963022  0.5747906294832247  1.0000
  C   C65       1.0  0.7229874505684889  0.5746451541735594  0.3419615154521978  1.0000
  C   C66       1.0  0.5563284664965309  0.34195950257728197  0.76743508497902  1.0000
  C   C67       1.0  0.9198719791175093  0.8786208601433785  0.2858206523783765  1.0000
  C   C68       1.0  0.7532729723882168  0.2856048308681167  0.4072257357566755  1.0000
  C   C69       1.0  0.5851730056454301  0.4071521375439957  0.12180682317627858  1.0000
  C   C70       1.0  0.4198360339750309  0.1213888806915334  0.7141961745810618  1.0000
  C   C71       1.0  0.25331746752022616  0.714392191560364  0.5927940808399086  1.0000
  C   C72       1.0  0.0851400712144041  0.5928413197211098  0.8781618054378839  1.0000
  N   N1        1.0  0.4702533764528311  0.6708399315659506  0.15791794853105778  1.0000
  N   N2        1.0  0.3039292757765324  0.15800332358959676  0.487340797327846  1.0000
  N   N3        1.0  0.1373197504125727  0.4875248986822385  0.3293984241328758  1.0000
  N   N4        1.0  0.9702714329003043  0.3291719388384565  0.842072744265792  1.0000
  N   N5        1.0  0.8039372426702016  0.8419827105103082  0.5126717760488192  1.0000
  N   N6        1.0  0.6372888855783289  0.5124806964252712  0.670581392034741  1.0000
  N   N7        1.0  0.3406015966860351  0.9502594500250084  0.4286841267418852  1.0000
  N   N8        1.0  0.1739320553287911  0.42877093770722746  0.4783848602550832  1.0000
  N   N9        1.0  0.007112313672351399  0.4784476634652179  0.049604962779234554  1.0000
  N   N10       1.0  0.8405752580726612  0.04971792740690958  0.5713191214387192  1.0000
  N   N11       1.0  0.6739654045829795  0.5712394956469422  0.5215097553713831  1.0000
  N   N12       1.0  0.5071222313740334  0.5215704182584419  0.9503797095946355  1.0000
  O   O1        1.0  0.0398184024459738  0.8959599767343461  0.4709882254712099  1.0000
  O   O2        1.0  0.8731487208567615  0.4714317727003489  0.5749580423085944  1.0000
  O   O3        1.0  0.7060611309369165  0.574501605116616  0.1042402611235431  1.0000
  O   O4        1.0  0.5398260645379054  0.10402077077012699  0.5290158726749821  1.0000
  O   O5        1.0  0.37309195827223357  0.5287171640637139  0.42509946200439686  1.0000
  O   O6        1.0  0.20605454587173705  0.42550139354312216  0.8957617160264206  1.0000
  O   O7        1.0  0.137991085555413  0.02972370837841253  0.529380094894421  1.0000
  O   O8        1.0  0.9715246102484301  0.5293929651929544  0.49929073141171887  1.0000
  O   O9        1.0  0.8037780297525075  0.49909508157320903  0.9702774129464798  1.0000
  O   O10       1.0  0.6380215894053691  0.9702669643649883  0.4706308049659426  1.0000
  O   O11       1.0  0.4713761226162915  0.470603930585888  0.5006929679774288  1.0000
  O   O12       1.0  0.3037938373212086  0.500895049794643  0.029712582638204373  1.0000
  O   O13       1.0  0.8359613640772707  0.8725168143265022  0.3367871589488375  1.0000
  O   O14       1.0  0.6693123436726934  0.3366311599300005  0.46419565923014255  1.0000
  O   O15       1.0  0.5015456794460178  0.464237667289261  0.12750004346647614  1.0000
  O   O16       1.0  0.335930681080896  0.1274799613399863  0.6632175651645865  1.0000
  O   O17       1.0  0.1693339782346754  0.6634113320911011  0.535834477219403  1.0000
  O   O18       1.0  0.0015182833720147  0.53575566169399  0.8724759839100142  1.0000
  O   O19       1.0  0.024199245150789694  0.9148607428872921  0.3069868760805719  1.0000
  O   O20       1.0  0.8576776144317934  0.30670894722116765  0.3922190784783695  1.0000
  O   O21       1.0  0.6896880977899186  0.39186279437090116  0.08584867509129168  1.0000
  O   O22       1.0  0.5241522513090189  0.08513260107673656  0.6930187660822468  1.0000
  O   O23       1.0  0.3577059909169691  0.6932209719154939  0.6077724131906804  1.0000
  O   O24       1.0  0.1896650912209665  0.6081369278170425  0.914112975088507  1.0000
