data_image0
_chemical_formula_structural       Cd4H40C48I8N16O8
_chemical_formula_sum              "Cd4 H40 C48 I8 N16 O8"
_cell_length_a       7.631160133771716
_cell_length_b       14.716068827537649
_cell_length_c       18.82717942378996
_cell_angle_alpha    89.99761859214934
_cell_angle_beta     89.99766860202863
_cell_angle_gamma    90.00072833303088

_space_group_name_H-M_alt    "P 1"
_space_group_IT_number       1

loop_
  _space_group_symop_operation_xyz
  'x, y, z'

loop_
  _atom_site_type_symbol
  _atom_site_label
  _atom_site_symmetry_multiplicity
  _atom_site_fract_x
  _atom_site_fract_y
  _atom_site_fract_z
  _atom_site_occupancy
  Cd  Cd1       1.0  0.546569640281959  0.9264655949037465  0.7858935144422927  1.0000
  Cd  Cd2       1.0  0.9534236907438967  0.0735288001516707  0.285910982312501  1.0000
  Cd  Cd3       1.0  0.45343830769963483  0.42646544449404195  0.7140935352748413  1.0000
  Cd  Cd4       1.0  0.04656477587356989  0.5735362686071711  0.2141083184577113  1.0000
  H   H1        1.0  0.23463763494266493  0.9782291347846055  0.9127921346348344  1.0000
  H   H2        1.0  0.2653418298129324  0.021758028745203706  0.41279956931848005  1.0000
  H   H3        1.0  0.7653584913430223  0.4782580932172634  0.5871969362127841  1.0000
  H   H4        1.0  0.7346492864609004  0.5217834690381764  0.08720814921723267  1.0000
  H   H5        1.0  0.43509141888832653  0.978514835212849  0.9262890254366312  1.0000
  H   H6        1.0  0.06489719087861799  0.021462103109513495  0.42631415965677627  1.0000
  H   H7        1.0  0.5649125774456676  0.47855203150689357  0.5736925997884794  1.0000
  H   H8        1.0  0.9351004697563637  0.5214983968604231  0.07370419128534418  1.0000
  H   H9        1.0  0.8795735431559563  0.8598328146132843  0.8853347606316574  1.0000
  H   H10       1.0  0.6204309006342896  0.14014138937649537  0.3853657003959086  1.0000
  H   H11       1.0  0.1204655151383562  0.3598459262309889  0.614647036401294  1.0000
  H   H12       1.0  0.37958018260116694  0.6401719008793025  0.1146609772645064  1.0000
  H   H13       1.0  0.9972112796856507  0.7234642150307948  0.9506846223390895  1.0000
  H   H14       1.0  0.502773585087077  0.2765004290251696  0.4507082781485109  1.0000
  H   H15       1.0  0.0028257114145234  0.2234929146852878  0.5492947389471823  1.0000
  H   H16       1.0  0.4972264616718646  0.7765405883037673  0.049312336915711796  1.0000
  H   H17       1.0  0.8180400702108769  0.5804505259707256  0.9524667428801267  1.0000
  H   H18       1.0  0.6819105477986225  0.41953169203824797  0.45248165567147663  1.0000
  H   H19       1.0  0.18195537574545992  0.08046146120260289  0.547518899676916  1.0000
  H   H20       1.0  0.3180786276165079  0.9195585449082699  0.047530022758003596  1.0000
  H   H21       1.0  0.5284227506784163  0.5782495839081039  0.8888112295527575  1.0000
  H   H22       1.0  0.9715433479857863  0.4217427846544767  0.38881804420581995  1.0000
  H   H23       1.0  0.4715739503597474  0.0782522577089964  0.6111888262329825  1.0000
  H   H24       1.0  0.028445882130590395  0.9217616746644381  0.11119303073939336  1.0000
  H   H25       1.0  0.08601555125998318  0.5120162374716842  0.819833824318536  1.0000
  H   H26       1.0  0.4139560884275681  0.4879703890661062  0.31984686655817274  1.0000
  H   H27       1.0  0.9140070292440254  0.0120303939522302  0.6801418444724092  1.0000
  H   H28       1.0  0.5860229879911428  0.9879981147281783  0.1801753164305282  1.0000
  H   H29       1.0  0.821416404303598  0.420429678243238  0.792518133794516  1.0000
  H   H30       1.0  0.6785697182717172  0.5795568928764467  0.2925331695071875  1.0000
  H   H31       1.0  0.17860711992337025  0.9204383573522179  0.7074558347963346  1.0000
  H   H32       1.0  0.3214175867624292  0.07957321834765452  0.20749814994147184  1.0000
  H   H33       1.0  0.5993917537930216  0.6293397563095411  0.6745642180699176  1.0000
  H   H34       1.0  0.9006270230671306  0.37065846807236363  0.1745754858046027  1.0000
  H   H35       1.0  0.4006114549913632  0.12933747080380442  0.8254235403515081  1.0000
  H   H36       1.0  0.09935570002840417  0.8706420660934383  0.3254261099453188  1.0000
  H   H37       1.0  0.8535065710162257  0.7321398405509215  0.6979834625003887  1.0000
  H   H38       1.0  0.6464954704950896  0.2678557902497332  0.19800022070555903  1.0000
  H   H39       1.0  0.1465070469728431  0.232143247638831  0.8019998642330177  1.0000
  H   H40       1.0  0.3534847061993034  0.7678463577996197  0.3020015573681362  1.0000
  C   C1        1.0  0.8070672811705605  0.795906478900122  0.8875932575443098  1.0000
  C   C2        1.0  0.6929238352789752  0.20407372205777113  0.38761345470501846  1.0000
  C   C3        1.0  0.19294922686705718  0.29592425954567153  0.6123916970434848  1.0000
  C   C4        1.0  0.3070862110569763  0.7040984431003992  0.1124058162433599  1.0000
  C   C5        1.0  0.8710613747592716  0.7199336809058253  0.9236822201853698  1.0000
  C   C6        1.0  0.6289169929741688  0.2800425793726192  0.42370099674347717  1.0000
  C   C7        1.0  0.1289598035493711  0.2199611005351443  0.576303630729285  1.0000
  C   C8        1.0  0.37108576251934977  0.7800675814957218  0.07631259754346327  1.0000
  C   C9        1.0  0.7719050598783781  0.6403054208580415  0.924187349621107  1.0000
  C   C10       1.0  0.7280575332204862  0.3596640177192043  0.42419601736578016  1.0000
  C   C11       1.0  0.22810890374591247  0.14032603881727107  0.5758085472939029  1.0000
  C   C12       1.0  0.2719419532519467  0.8596985922857598  0.07581231150962248  1.0000
  C   C13       1.0  0.609953650531466  0.6393000924136986  0.8899159272259423  1.0000
  C   C14       1.0  0.8900149590311345  0.3606820248072537  0.38992982314051255  1.0000
  C   C15       1.0  0.3900484944771563  0.13931112668651485  0.6100768160118688  1.0000
  C   C16       1.0  0.1099766896816092  0.8607035437419343  0.1100848464137982  1.0000
  C   C17       1.0  0.5552922865250238  0.7188342793704975  0.8558972392935331  1.0000
  C   C18       1.0  0.9446810042030123  0.28115506705601945  0.3559117661806893  1.0000
  C   C19       1.0  0.44470789736256217  0.218843197729349  0.6440944907490261  1.0000
  C   C20       1.0  0.0553047430397555  0.7811696796183297  0.14410710342751537  1.0000
  C   C21       1.0  0.3885528239767949  0.7253527456708612  0.8192764703902569  1.0000
  C   C22       1.0  0.11142935430542882  0.274631871721489  0.31928828056930303  1.0000
  C   C23       1.0  0.6114566944088438  0.22535946263708692  0.6807123902363725  1.0000
  C   C24       1.0  0.8885470587319373  0.7746520281769803  0.1807260224969482  1.0000
  C   C25       1.0  0.139361706324479  0.687637150144525  0.7763141575873789  1.0000
  C   C26       1.0  0.3606325913855102  0.3123592450087997  0.2763274728772912  1.0000
  C   C27       1.0  0.860652119839962  0.18763439466622603  0.7236653163253448  1.0000
  C   C28       1.0  0.6393578603284382  0.8123687164011671  0.22368453145976017  1.0000
  C   C29       1.0  0.9899846941135522  0.6300869059441254  0.7613137147061764  1.0000
  C   C30       1.0  0.5100005893547105  0.3699074256901937  0.26132462825247416  1.0000
  C   C31       1.0  0.010032948147518499  0.13008800398408482  0.7386671141407319  1.0000
  C   C32       1.0  0.4899847360037626  0.8699171706820296  0.2386828342792953  1.0000
  C   C33       1.0  0.9804568449899379  0.541486417356829  0.7882098749226145  1.0000
  C   C34       1.0  0.5195336360527564  0.4585030991246484  0.28821878778023796  1.0000
  C   C35       1.0  0.0195664651709322  0.04149511090062671  0.7117712018476039  1.0000
  C   C36       1.0  0.4804473313194961  0.9585209943783966  0.21180011195121298  1.0000
  C   C37       1.0  0.8332133049493963  0.4897333937400745  0.7727125522416783  1.0000
  C   C38       1.0  0.6667839533283128  0.5102596576726626  0.2727215578910459  1.0000
  C   C39       1.0  0.1667988313365001  0.9897443493793008  0.7272713613986637  1.0000
  C   C40       1.0  0.33320818781994893  0.010272977589608  0.22729769177438186  1.0000
  C   C41       1.0  0.7102681686117903  0.6065981416626657  0.7067660452490685  1.0000
  C   C42       1.0  0.7897251403709474  0.39340518061612073  0.20678107598941856  1.0000
  C   C43       1.0  0.2897462707362379  0.10659275305390993  0.7932182092966966  1.0000
  C   C44       1.0  0.21024766234715037  0.8933864425018782  0.29322986616434576  1.0000
  C   C45       1.0  0.8517657169468008  0.6635020435096378  0.7198025274383396  1.0000
  C   C46       1.0  0.6482302316679452  0.3364971941072312  0.2198148823972801  1.0000
  C   C47       1.0  0.14824226968775628  0.16349845766325194  0.7801772064040333  1.0000
  C   C48       1.0  0.35174378260919786  0.8364943361575713  0.28019261314265254  1.0000
  I   I1        1.0  0.7248795023757211  0.04511758656199309  0.8800304977012557  1.0000
  I   I2        1.0  0.7751136737231262  0.9548643719891815  0.3800533969143202  1.0000
  I   I3        1.0  0.27513210375221325  0.5451328664532866  0.6199568338134043  1.0000
  I   I4        1.0  0.2248645827589968  0.4548846808053142  0.11996455976341028  1.0000
  I   I5        1.0  0.6327360650753204  0.8911727881466049  0.6453837437005489  1.0000
  I   I6        1.0  0.8672659465875157  0.10882697400972322  0.1454004320535986  1.0000
  I   I7        1.0  0.3672670771559723  0.3911463227339169  0.8546023386014239  1.0000
  I   I8        1.0  0.13269849632893474  0.6088208034542718  0.354618243410421  1.0000
  N   N1        1.0  0.6523139557278269  0.7957145463943008  0.8542369279816383  1.0000
  N   N2        1.0  0.8476778449410957  0.20426945118662596  0.3542582512479626  1.0000
  N   N3        1.0  0.34770647879306443  0.2957207060794147  0.6457453773192368  1.0000
  N   N4        1.0  0.15232565417706204  0.7042934433139438  0.14576048220514073  1.0000
  N   N5        1.0  0.3251010109768017  0.7969418073994204  0.7867733485016115  1.0000
  N   N6        1.0  0.17488569825929554  0.20305335692057722  0.28678750692345994  1.0000
  N   N7        1.0  0.6748958659702069  0.29694790459124215  0.7132184774204333  1.0000
  N   N8        1.0  0.8250902520260509  0.7030639116373153  0.21322701766071353  1.0000
  N   N9        1.0  0.164530172778754  0.7730062742376164  0.7590438968756812  1.0000
  N   N10       1.0  0.335457973549822  0.2269923901354289  0.259059368315853  1.0000
  N   N11       1.0  0.8354831468110361  0.2729976874711397  0.7409418087119091  1.0000
  N   N12       1.0  0.6645277426371408  0.7269956793551202  0.24095330942370907  1.0000
  N   N13       1.0  0.700718141674727  0.5212641816506576  0.732475038560487  1.0000
  N   N14       1.0  0.7992647573825096  0.47873506745112593  0.23249083115347696  1.0000
  N   N15       1.0  0.2992902527311543  0.021267685129394906  0.7675098880736043  1.0000
  N   N16       1.0  0.2007114692062615  0.9787346101634001  0.2675289992681939  1.0000
  O   O1        1.0  0.2772453378195792  0.6534569309010225  0.8151914021857037  1.0000
  O   O2        1.0  0.22274248708182395  0.34653673573743765  0.31520165187328786  1.0000
  O   O3        1.0  0.7227807457009661  0.1534594021264439  0.6847923786580805  1.0000
  O   O4        1.0  0.7772579843343408  0.8465464375144833  0.18480657649360666  1.0000
  O   O5        1.0  0.3308865478374017  0.9388326807237491  0.9271010765589337  1.0000
  O   O6        1.0  0.16909280890266837  0.0611455740056002  0.4271194512269858  1.0000
  O   O7        1.0  0.6691099133214137  0.4388699199374316  0.5728834427292782  1.0000
  O   O8        1.0  0.8308979725433048  0.5611778330432456  0.07289122547165049  1.0000
