data_image0
_chemical_formula_structural       Na4H28C28S4O12
_chemical_formula_sum              "Na4 H28 C28 S4 O12"
_cell_length_a       6.1103683410431335
_cell_length_b       8.522071796097382
_cell_length_c       14.949752957482694
_cell_angle_alpha    100.42861766194471
_cell_angle_beta     90.00025738813235
_cell_angle_gamma    90.00028716133109

_space_group_name_H-M_alt    "P 1"
_space_group_IT_number       1

loop_
  _space_group_symop_operation_xyz
  'x, y, z'

loop_
  _atom_site_type_symbol
  _atom_site_label
  _atom_site_symmetry_multiplicity
  _atom_site_fract_x
  _atom_site_fract_y
  _atom_site_fract_z
  _atom_site_occupancy
  Na  Na1       1.0  0.1277418533598222  0.18420999032971244  0.4693094859913315  1.0000
  Na  Na2       1.0  0.6277419583952691  0.3157898377000378  0.5306902156892263  1.0000
  Na  Na3       1.0  0.8722575538724583  0.8157881200325432  0.5306908079568372  1.0000
  Na  Na4       1.0  0.37226235853412953  0.6842106589368695  0.4693103260629527  1.0000
  H   H1        1.0  0.06849925655802018  0.4602785189544605  0.7690717060696882  1.0000
  H   H2        1.0  0.568490880255652  0.039719849674348495  0.23092974357590623  1.0000
  H   H3        1.0  0.9315116066367962  0.5397267516272776  0.2309286625246186  1.0000
  H   H4        1.0  0.4315003441655563  0.960275870197698  0.7690723088510507  1.0000
  H   H5        1.0  0.29863857595132254  0.3542517432587502  0.7163472722292779  1.0000
  H   H6        1.0  0.7986265955041958  0.14574646140504643  0.2836492255675153  1.0000
  H   H7        1.0  0.70136574095374  0.645746372725462  0.28365034667579175  1.0000
  H   H8        1.0  0.20136299235683447  0.8542564270741831  0.7163488889177215  1.0000
  H   H9        1.0  0.13880405706948548  0.6516983243043412  0.8944255717933199  1.0000
  H   H10       1.0  0.6387963766280434  0.8482851114566611  0.10557020193963494  1.0000
  H   H11       1.0  0.8612100791547518  0.3482818891120516  0.10557286368329237  1.0000
  H   H12       1.0  0.36120139404911805  0.1517129960964212  0.8944314295310105  1.0000
  H   H13       1.0  0.379622156593399  0.8483694181015621  0.9890628282962124  1.0000
  H   H14       1.0  0.8796251821342121  0.6516055237872463  0.010939188257225391  1.0000
  H   H15       1.0  0.6203805237305032  0.15161556080320077  0.010939446575115096  1.0000
  H   H16       1.0  0.1203709519793819  0.3483913892275509  0.989062988074515  1.0000
  H   H17       1.0  0.7501201595231706  0.9081506034526398  0.9311308276872194  1.0000
  H   H18       1.0  0.25012806314255437  0.5918595581875933  0.06887528078970459  1.0000
  H   H19       1.0  0.24987761115872334  0.09184869723234358  0.06887092768264579  1.0000
  H   H20       1.0  0.7498713441076389  0.40814213016757594  0.9311260536182855  1.0000
  H   H21       1.0  0.8696746356234043  0.7683936754915092  0.7776477754130295  1.0000
  H   H22       1.0  0.36968028543589776  0.7316277713804593  0.22235102549743144  1.0000
  H   H23       1.0  0.1303296813364199  0.23161636900611873  0.22235242000855485  1.0000
  H   H24       1.0  0.6303158486881769  0.26837272243280086  0.7776508537697991  1.0000
  H   H25       1.0  0.6313997659166687  0.5719177568657654  0.6849779796339345  1.0000
  H   H26       1.0  0.13139632306996418  0.9281002511872458  0.31501936409541287  1.0000
  H   H27       1.0  0.3686078241611598  0.42809706998610847  0.3150180300530678  1.0000
  H   H28       1.0  0.8686014476149778  0.07190263310175739  0.6849807566856041  1.0000
  C   C1        1.0  0.21956035505529306  0.47187919190418626  0.7312497405906837  1.0000
  C   C2        1.0  0.7195572308260479  0.0281198631460455  0.2687433578878284  1.0000
  C   C3        1.0  0.7804472349806132  0.5281213117538355  0.2687474573543723  1.0000
  C   C4        1.0  0.28044217640724867  0.9718794417508858  0.7312563911973978  1.0000
  C   C5        1.0  0.36732302797862104  0.5967505228792547  0.7833755076409118  1.0000
  C   C6        1.0  0.867316956299028  0.9032518220520412  0.21662197429548505  1.0000
  C   C7        1.0  0.6326829254758052  0.4032452082475686  0.21662119470541794  1.0000
  C   C8        1.0  0.13268408752318087  0.09675225257053909  0.7833796079127991  1.0000
  C   C9        1.0  0.2998368490863967  0.6774214797412551  0.8691860564506368  1.0000
  C   C10       1.0  0.7998260022181964  0.8225722063345697  0.13081441764273186  1.0000
  C   C11       1.0  0.7001707409234682  0.32256588964648353  0.13081445993818613  1.0000
  C   C12       1.0  0.20016849533487857  0.17742709574594784  0.8691866689612624  1.0000
  C   C13       1.0  0.43595206558172345  0.7884961073517329  0.9223901924056148  1.0000
  C   C14       1.0  0.9359447832593516  0.7114946042069047  0.07760888129496375  1.0000
  C   C15       1.0  0.5640522513199498  0.2114936454870104  0.07761190930227  1.0000
  C   C16       1.0  0.06404807772374  0.2885047006755456  0.9223908677828303  1.0000
  C   C17       1.0  0.6424550973850955  0.8214957701901823  0.890181789876621  1.0000
  C   C18       1.0  0.1424591344370114  0.6785031840440181  0.10981961541613566  1.0000
  C   C19       1.0  0.357541036733231  0.17850233595650875  0.10982051035433928  1.0000
  C   C20       1.0  0.8575353631207959  0.3214973111684002  0.8901815950870711  1.0000
  C   C21       1.0  0.7107972055558063  0.7425774838930649  0.804573312853847  1.0000
  C   C22       1.0  0.21080273057378207  0.7574360958292129  0.1954270592406074  1.0000
  C   C23       1.0  0.28920220170115124  0.25742778666334226  0.1954270557274639  1.0000
  C   C24       1.0  0.7891950401263725  0.24257156239013963  0.8045728883751193  1.0000
  C   C25       1.0  0.5751091312195342  0.6306045306820773  0.7517963021378902  1.0000
  C   C26       1.0  0.07510127362559159  0.8694096447723181  0.24820254846022738  1.0000
  C   C27       1.0  0.4248968222700568  0.3694019414373598  0.2482001777770576  1.0000
  C   C28       1.0  0.9248948604910509  0.13059085184649183  0.7517979932826645  1.0000
  S   S1        1.0  0.12773067017085538  0.49875427830591673  0.620824469708836  1.0000
  S   S2        1.0  0.6277335028261817  0.0012455524859546995  0.3791738944251079  1.0000
  S   S3        1.0  0.8722720101895688  0.5012474156675921  0.37917418965420063  1.0000
  S   S4        1.0  0.3722642678482728  0.9987537510045778  0.620826523420426  1.0000
  O   O1        1.0  0.9700508147587924  0.3675684080995082  0.5932148752999281  1.0000
  O   O2        1.0  0.47005620898669775  0.13243771358501277  0.4067827548207176  1.0000
  O   O3        1.0  0.029951865605355003  0.6324332844712257  0.4067844528252777  1.0000
  O   O4        1.0  0.5299431982533562  0.8675651735131497  0.5932160284378226  1.0000
  O   O5        1.0  0.0285473827673144  0.6577425929460003  0.6293074190640622  1.0000
  O   O6        1.0  0.5285458860228899  0.8422606313695125  0.37069355461748177  1.0000
  O   O7        1.0  0.97145857071618  0.3422567119654045  0.3706923300285894  1.0000
  O   O8        1.0  0.4714535212114157  0.15773986806208737  0.6293056496047951  1.0000
  O   O9        1.0  0.3208937466152974  0.4801340252276629  0.5600378615892295  1.0000
  O   O10       1.0  0.8208924724944567  0.019864272287819097  0.4399613617620445  1.0000
  O   O11       1.0  0.6791105702982065  0.5198652824856751  0.4399605499772291  1.0000
  O   O12       1.0  0.17910366162860916  0.9801350269907657  0.5600410623681356  1.0000
