data_image0
_chemical_formula_structural       Fe2Ni2H48C76N12
_chemical_formula_sum              "Fe2 Ni2 H48 C76 N12"
_cell_length_a       6.971529582192532
_cell_length_b       13.55887384628428
_cell_length_c       16.423529837018744
_cell_angle_alpha    106.85752149590897
_cell_angle_beta     96.60790472964126
_cell_angle_gamma    89.98888510021548

_space_group_name_H-M_alt    "P 1"
_space_group_IT_number       1

loop_
  _space_group_symop_operation_xyz
  'x, y, z'

loop_
  _atom_site_type_symbol
  _atom_site_label
  _atom_site_symmetry_multiplicity
  _atom_site_fract_x
  _atom_site_fract_y
  _atom_site_fract_z
  _atom_site_occupancy
  Fe  Fe1       1.0  2.046086607e-07  3.0806762368000004e-06  1.971228663e-06  1.0000
  Fe  Fe2       1.0  0.9999985721116077  0.500001115820652  0.999999956835076  1.0000
  Ni  Ni1       1.0  0.5066659266028851  0.7624568560879297  0.03064544987211087  1.0000
  Ni  Ni2       1.0  0.4933371684791866  0.2375496337195884  0.9693568969199478  1.0000
  H   H1        1.0  0.9430578242112448  0.025911154327900515  0.8287636055296164  1.0000
  H   H2        1.0  0.05693779783201341  0.9740914813157888  0.1712368413157393  1.0000
  H   H3        1.0  0.9262712643716428  0.9165256260590127  0.6787072069515078  1.0000
  H   H4        1.0  0.073722667949454  0.08347314832037261  0.32129405298086783  1.0000
  H   H5        1.0  0.9959621812682615  0.652411557801834  0.7759100372129881  1.0000
  H   H6        1.0  0.0040376796097944916  0.3475895284263402  0.22409267583371675  1.0000
  H   H7        1.0  0.004738098738222611  0.7730573055644359  0.9222492668115978  1.0000
  H   H8        1.0  0.9952661946283712  0.22694532318057983  0.0777540325439503  1.0000
  H   H9        1.0  0.7136702202868082  0.49117721664096337  0.11599633299277912  1.0000
  H   H10       1.0  0.2863293391557137  0.5088192429447957  0.8840052487715158  1.0000
  H   H11       1.0  0.7086812786040966  0.524048214021832  0.27259962658460074  1.0000
  H   H12       1.0  0.2913142447864701  0.47595287753169657  0.7274010516868119  1.0000
  H   H13       1.0  0.31892857130230823  0.601014219102453  0.30661555580274336  1.0000
  H   H14       1.0  0.6810696893771748  0.3989845593316731  0.6933846963039374  1.0000
  H   H15       1.0  0.3010040227769509  0.5608455138392828  0.14812124854591965  1.0000
  H   H16       1.0  0.6989998686756069  0.4391509460491748  0.8518805424330795  1.0000
  H   H17       1.0  0.026111241930081505  0.9123766385476985  0.5183835731910593  1.0000
  H   H18       1.0  0.9738972683614621  0.08762446329402711  0.4816146901234789  1.0000
  H   H19       1.0  0.7071934549593453  0.8608211352309213  0.5491051424700333  1.0000
  H   H20       1.0  0.2928161513124011  0.13917456521018323  0.4508930877936522  1.0000
  H   H21       1.0  0.45926415470213305  0.7680041126361844  0.42954816877182384  1.0000
  H   H22       1.0  0.5407426119763629  0.2319923605862115  0.5704495020422728  1.0000
  H   H23       1.0  0.5282891924225696  0.7284506436532823  0.27890730684429604  1.0000
  H   H24       1.0  0.47171493379387647  0.2715496886546944  0.7210899501882795  1.0000
  H   H25       1.0  0.7496742985576006  0.734970518242527  0.1742528341475024  1.0000
  H   H26       1.0  0.25032266153302635  0.26503058091598325  0.825745479781368  1.0000
  H   H27       1.0  0.0663517808813978  0.7849175005546768  0.14173245461729783  1.0000
  H   H28       1.0  0.93364646153988  0.21508129663963874  0.8582617122874229  1.0000
  H   H29       1.0  0.31590185952128996  0.8791913748207065  0.26067812279357133  1.0000
  H   H30       1.0  0.6841020602606704  0.12080587868705814  0.739316554490138  1.0000
  H   H31       1.0  0.2498882831981463  0.9206337176039698  0.41159514436488126  1.0000
  H   H32       1.0  0.7501156365838142  0.07936353590379501  0.5883995329188352  1.0000
  H   H33       1.0  0.36371809223298607  0.8278834995651537  0.5538039798167845  1.0000
  H   H34       1.0  0.636278613009722  0.17211374781004452  0.44619217433634634  1.0000
  H   H35       1.0  0.33972369762404503  0.013128996680038097  0.6310762966431229  1.0000
  H   H36       1.0  0.6602847121889895  0.9868705629475586  0.36892158957728355  1.0000
  H   H37       1.0  0.38777933804130543  0.07286647747167763  0.7910205902828978  1.0000
  H   H38       1.0  0.6122277264210824  0.9271346261451682  0.20897699477321657  1.0000
  H   H39       1.0  0.4639722150265159  0.9484201042982366  0.8732957764600261  1.0000
  H   H40       1.0  0.5360336136928296  0.0515840761419142  0.12670492712690876  1.0000
  H   H41       1.0  0.524267583634071  0.7696319530736276  0.8762385171371395  1.0000
  H   H42       1.0  0.47574526779660437  0.2303691396907085  0.12376299799308302  1.0000
  H   H43       1.0  0.5623471091314586  0.5868071467992168  0.8000294754247934  1.0000
  H   H44       1.0  0.4376570728016987  0.4131939509877683  0.19996979571543963  1.0000
  H   H45       1.0  0.5205490085842684  0.5258779377182563  0.6388611660493455  1.0000
  H   H46       1.0  0.47944218279626943  0.47412315353257395  0.36113930300737024  1.0000
  H   H47       1.0  0.4396377707674334  0.6494397743911832  0.5565204460591603  1.0000
  H   H48       1.0  0.5603503873661141  0.35055899770858195  0.4434811434404723  1.0000
  C   C1        1.0  0.9523635417262925  0.9427919643449768  0.8142006136604254  1.0000
  C   C2        1.0  0.0476349738011095  0.05721066587245361  0.18580179822198778  1.0000
  C   C3        1.0  0.9430008243965918  0.8809275495703943  0.7303881178710727  1.0000
  C   C4        1.0  0.056997752324988916  0.11907584049799175  0.2696181336795861  1.0000
  C   C5        1.0  0.9611399823785406  0.7735316881298857  0.7136451379605051  1.0000
  C   C6        1.0  0.03885689366596522  0.226467851930309  0.28635827555599047  1.0000
  C   C7        1.0  0.9825697256627424  0.7346037301128305  0.7847090886002308  1.0000
  C   C8        1.0  0.017434573181311905  0.2653988930041251  0.21529603631590535  1.0000
  C   C9        1.0  0.9887108216981418  0.8016690882375814  0.8665940230697944  1.0000
  C   C10       1.0  0.011294962259413002  0.19833431546743444  0.13340831753065885  1.0000
  C   C11       1.0  0.963702935508529  0.7101175074347097  0.6290040928813385  1.0000
  C   C12       1.0  0.036282781294175906  0.289888210054933  0.3709972285048552  1.0000
  C   C13       1.0  0.9762548600885953  0.6632480367045875  0.5538485877818646  1.0000
  C   C14       1.0  0.023729611841965006  0.3367607669884479  0.44615280953416925  1.0000
  C   C15       1.0  0.697789577523821  0.8566079076662801  0.03162071555713199  1.0000
  C   C16       1.0  0.3022135677975015  0.14339935324830583  0.9683818197819962  1.0000
  C   C17       1.0  0.687354409281646  0.33160563474187665  0.9745850724878056  1.0000
  C   C18       1.0  0.3126472993396163  0.668401618567728  0.02541982719387191  1.0000
  C   C19       1.0  0.6851586586088134  0.6601910378521368  0.014291530214052304  1.0000
  C   C20       1.0  0.31484150187895205  0.3398146768944699  0.9857117055948665  1.0000
  C   C21       1.0  0.3251733404421416  0.8619241577485257  0.03615986546213184  1.0000
  C   C22       1.0  0.6748163905026703  0.13807695028557282  0.963835057174592  1.0000
  C   C23       1.0  0.8450106748247849  0.5144811352140053  0.16034134420540622  1.0000
  C   C24       1.0  0.15499058894646822  0.48551917062789585  0.839664292633444  1.0000
  C   C25       1.0  0.8428897365631516  0.5332042956108866  0.2475457852237356  1.0000
  C   C26       1.0  0.15710284492983823  0.4667960283858151  0.7524533479837603  1.0000
  C   C27       1.0  0.01395766727947031  0.5655898024508803  0.3041777818600196  1.0000
  C   C28       1.0  0.986040701181814  0.4344105106933044  0.6958252814215768  1.0000
  C   C29       1.0  0.1822413965295695  0.5751736492758044  0.26669378971281804  1.0000
  C   C30       1.0  0.8177555114959818  0.4248266806516484  0.7333037271487799  1.0000
  C   C31       1.0  0.1732555755666993  0.5533844298137965  0.17851082640476082  1.0000
  C   C32       1.0  0.8267411999992904  0.4466135680322623  0.8214922100175955  1.0000
  C   C33       1.0  0.010514530259477801  0.5914854299921829  0.393379618790327  1.0000
  C   C34       1.0  0.9894953646670502  0.4085149102234738  0.6066154831143964  1.0000
  C   C35       1.0  0.9937787694224128  0.6210302754427207  0.47027477478675206  1.0000
  C   C36       1.0  0.006216167683796  0.3789839210780458  0.5297302560869783  1.0000
  C   C37       1.0  0.9610923147076778  0.8501789537693655  0.380423840757395  1.0000
  C   C38       1.0  0.03890898104462081  0.14982214193980076  0.6195758994265647  1.0000
  C   C39       1.0  0.9169262492312104  0.8724421231715598  0.46604126228134407  1.0000
  C   C40       1.0  0.08307494421675442  0.12755743219948812  0.5339574922882804  1.0000
  C   C41       1.0  0.7397232085786813  0.8436648963534098  0.48319294692065295  1.0000
  C   C42       1.0  0.2602880390017859  0.15633389236890594  0.5168048902291533  1.0000
  C   C43       1.0  0.5990053775914106  0.7905926177929958  0.4154514942308369  1.0000
  C   C44       1.0  0.40100293722058217  0.20940539399239813  0.5845478404560185  1.0000
  C   C45       1.0  0.6371061259508795  0.7679930748921108  0.3316307344081722  1.0000
  C   C46       1.0  0.36289651515206606  0.2320064768277987  0.6683693069400791  1.0000
  C   C47       1.0  0.817353835408234  0.7971241901198811  0.31179307356206476  1.0000
  C   C48       1.0  0.18265019763298798  0.20287459246988251  0.6882062404571558  1.0000
  C   C49       1.0  0.8595389919345564  0.7750868325291264  0.22612904140853377  1.0000
  C   C50       1.0  0.14045920572493034  0.22491118793006146  0.7738667625097053  1.0000
  C   C51       1.0  0.03600461053714812  0.803191943320819  0.20803575249992437  1.0000
  C   C52       1.0  0.9639922399458671  0.19680762300364313  0.791959141733827  1.0000
  C   C53       1.0  0.177640928682024  0.8558977886017871  0.27555530795461897  1.0000
  C   C54       1.0  0.8223573676301541  0.14410177594756143  0.7244402645375632  1.0000
  C   C55       1.0  0.14090353220942123  0.8792033448745472  0.3597462526038627  1.0000
  C   C56       1.0  0.8590976502836158  0.12079622175262021  0.6402488508445929  1.0000
  C   C57       1.0  0.4373797949623538  0.7816904570486404  0.6687809990982533  1.0000
  C   C58       1.0  0.5626111415702654  0.2183067824188782  0.3312173101827299  1.0000
  C   C59       1.0  0.39032398380525285  0.8548310658535954  0.6235699530568227  1.0000
  C   C60       1.0  0.6096712865632201  0.14516617204060372  0.3764291739590605  1.0000
  C   C61       1.0  0.37508011347212294  0.9576952422052829  0.6666728684062948  1.0000
  C   C62       1.0  0.6249140106768893  0.04230662598247651  0.33332610311337174  1.0000
  C   C63       1.0  0.4032229165298419  0.9917120505225442  0.7573498927554925  1.0000
  C   C64       1.0  0.5967755359775637  0.008289821719948501  0.24264807093847912  1.0000
  C   C65       1.0  0.4446427881775251  0.922483751193717  0.8034432226425994  1.0000
  C   C66       1.0  0.5553541344545964  0.07751656372558104  0.19655916238056656  1.0000
  C   C67       1.0  0.4628175228850537  0.8163677714227051  0.760783777964136  1.0000
  C   C68       1.0  0.5371849638484819  0.18362947072803595  0.2392144807025219  1.0000
  C   C69       1.0  0.5054634110161373  0.743224483016391  0.8063006528819515  1.0000
  C   C70       1.0  0.49454376670549755  0.25677814968246093  0.19370156890966686  1.0000
  C   C71       1.0  0.5256206016714274  0.6409820393718351  0.763373727952761  1.0000
  C   C72       1.0  0.47438353549993917  0.3590182816800295  0.23662718020099058  1.0000
  C   C73       1.0  0.5031401831879095  0.6068970566518176  0.6726844910076653  1.0000
  C   C74       1.0  0.49685085747486113  0.39310172127780163  0.32731541240784173  1.0000
  C   C75       1.0  0.45896322709108267  0.6757586039640202  0.6264620818567651  1.0000
  C   C76       1.0  0.5410278190491554  0.32424016833753916  0.3735396471193369  1.0000
  N   N1        1.0  0.9764987048697337  0.9049824886720759  0.8820989058088459  1.0000
  N   N2        1.0  0.0235041892553127  0.09502091670716341  0.11790268679494184  1.0000
  N   N3        1.0  0.8163908435631415  0.9144566139844346  0.025552427837737895  1.0000
  N   N4        1.0  0.1836095717725429  0.08555295254547704  0.9744529677469134  1.0000
  N   N5        1.0  0.007674283885144506  0.5238716410204988  0.12496421835268737  1.0000
  N   N6        1.0  0.9923269598020714  0.47612868545762416  0.8750347247640138  1.0000
  N   N7        1.0  0.8019523293000078  0.596815049187697  0.004950935262350235  1.0000
  N   N8        1.0  0.19804612138157301  0.4031868249308205  0.9950464199114253  1.0000
  N   N9        1.0  0.8111245852475761  0.3932281288009278  0.9815541152162769  1.0000
  N   N10       1.0  0.1888739229765477  0.6067745089205802  0.018445862585352316  1.0000
  N   N11       1.0  0.20325262974576935  0.919616754515886  0.02936654224531317  1.0000
  N   N12       1.0  0.7967502123142013  0.08038588163230292  0.9706342532912091  1.0000
