data_image0
_chemical_formula_structural       Cu2H36C56N8O10
_chemical_formula_sum              "Cu2 H36 C56 N8 O10"
_cell_length_a       8.785611991677122
_cell_length_b       10.924033852078953
_cell_length_c       12.592829634515663
_cell_angle_alpha    93.15790751787576
_cell_angle_beta     101.45890675365911
_cell_angle_gamma    103.74077107242317

_space_group_name_H-M_alt    "P 1"
_space_group_IT_number       1

loop_
  _space_group_symop_operation_xyz
  'x, y, z'

loop_
  _atom_site_type_symbol
  _atom_site_label
  _atom_site_symmetry_multiplicity
  _atom_site_fract_x
  _atom_site_fract_y
  _atom_site_fract_z
  _atom_site_occupancy
  Cu  Cu1       1.0  0.5201395814553679  0.43444392723134234  0.22985371194138085  1.0000
  Cu  Cu2       1.0  0.47986843599412765  0.5655583708697237  0.7701467960986222  1.0000
  H   H1        1.0  0.1404214159117529  0.6000248475408654  0.6389592146667769  1.0000
  H   H2        1.0  0.8595799536453016  0.399974523052613  0.3610450177931598  1.0000
  H   H3        1.0  0.4129127568190683  0.2178695132715944  0.36786845901033166  1.0000
  H   H4        1.0  0.5870958282838855  0.7821347125789584  0.6321298558923161  1.0000
  H   H5        1.0  0.2708407369494665  0.20191413070498496  0.5234405062602718  1.0000
  H   H6        1.0  0.729163973227216  0.7980815716963646  0.4765559988663099  1.0000
  H   H7        1.0  0.1799369562113071  0.38883321433816304  0.5878630413630788  1.0000
  H   H8        1.0  0.8200657671653958  0.6111595656865915  0.4121385893880857  1.0000
  H   H9        1.0  0.994664008065726  0.689571817231446  0.7229306382342244  1.0000
  H   H10       1.0  0.005346132348066094  0.3104294445468057  0.2770772318996535  1.0000
  H   H11       1.0  0.8915359829889127  0.8160269968940026  0.8484851033054285  1.0000
  H   H12       1.0  0.10845603170687919  0.18397239558615294  0.1515139417782692  1.0000
  H   H13       1.0  0.9196707577170925  0.21904321470140786  0.9417993830095598  1.0000
  H   H14       1.0  0.08031683615740805  0.7809533546407934  0.058196534701067996  1.0000
  H   H15       1.0  0.9462501262410755  0.23372709501017394  0.8055414963584654  1.0000
  H   H16       1.0  0.05374480299256849  0.7662742117106235  0.19445724867367892  1.0000
  H   H17       1.0  0.111708711773062  0.222029369949162  0.9123900107442253  1.0000
  H   H18       1.0  0.8882782981227206  0.7779614629713048  0.08760945797644831  1.0000
  H   H19       1.0  0.09547415775308819  0.1563697051036783  0.713708657110388  1.0000
  H   H20       1.0  0.9045076505883645  0.8436306423855271  0.28628593994695006  1.0000
  H   H21       1.0  0.19176868703198832  0.027197900947839995  0.5851957044662512  1.0000
  H   H22       1.0  0.8082239497778262  0.9728033657006705  0.4148051224250082  1.0000
  H   H23       1.0  0.3580900122134593  0.9173660689632609  0.30593174122724776  1.0000
  H   H24       1.0  0.6419084373467855  0.08263521749427839  0.6940698434335816  1.0000
  H   H25       1.0  0.5040496400187067  0.8912173454028363  0.1574977359920879  1.0000
  H   H26       1.0  0.4959362181933002  0.10878112233278606  0.842497275451315  1.0000
  H   H27       1.0  0.5707654303138626  0.6835648563758667  0.12055997558756813  1.0000
  H   H28       1.0  0.4292271030337745  0.3164326873301917  0.8794358492645318  1.0000
  H   H29       1.0  0.7316577520881823  0.15054712843302548  0.1250647205172655  1.0000
  H   H30       1.0  0.26833563275253164  0.8494494821506603  0.8749303649849695  1.0000
  H   H31       1.0  0.2255562309563217  0.0323313429848682  0.9838394259208628  1.0000
  H   H32       1.0  0.7744409416995454  0.9676662272846382  0.016156210157902293  1.0000
  H   H33       1.0  0.7263166118597085  0.5358669173916084  0.9576811389276332  1.0000
  H   H34       1.0  0.2736913075607744  0.4641354771554872  0.042312214211520385  1.0000
  H   H35       1.0  0.11649554157661159  0.4627993058720676  0.18794979942054374  1.0000
  H   H36       1.0  0.88351617655114  0.5372040376446278  0.812044899284132  1.0000
  C   C1        1.0  0.37027996577216976  0.2962537568868342  0.3977169947149478  1.0000
  C   C2        1.0  0.6297242965385125  0.7037475493797415  0.6022853477154584  1.0000
  C   C3        1.0  0.29118276982913466  0.2892003051820424  0.4847037462496787  1.0000
  C   C4        1.0  0.7088188454322477  0.710800066792963  0.5152966071801401  1.0000
  C   C5        1.0  0.2398727456900502  0.3918287178070797  0.5196128382314242  1.0000
  C   C6        1.0  0.7601300375545818  0.6081754775182162  0.4803855138906243  1.0000
  C   C7        1.0  0.2678642199360938  0.503056582578914  0.4663837516017183  1.0000
  C   C8        1.0  0.7321354357426912  0.49694466497553674  0.533621164568963  1.0000
  C   C9        1.0  0.22984695290743665  0.6188943980409931  0.49310846832135274  1.0000
  C   C10       1.0  0.7701588483630176  0.38110778497421194  0.5068996865006454  1.0000
  C   C11       1.0  0.16127551210995966  0.7794217506727606  0.5690438479522442  1.0000
  C   C12       1.0  0.8387311297614629  0.22057950993630016  0.4309627725309114  1.0000
  C   C13       1.0  0.10125516993126385  0.8506968882172431  0.6450223999174087  1.0000
  C   C14       1.0  0.8987488357829747  0.14930342738402663  0.3549830265541374  1.0000
  C   C15       1.0  0.016352348504547403  0.791725289484134  0.7201538124806747  1.0000
  C   C16       1.0  0.9836499433314216  0.20827690307810098  0.27985229770161624  1.0000
  C   C17       1.0  0.9591703760272022  0.8616478998539134  0.7912161839989197  1.0000
  C   C18       1.0  0.040824564098556886  0.13835339615066283  0.20878335602220233  1.0000
  C   C19       1.0  0.9882102881003264  0.9938434939639793  0.7901727032390158  1.0000
  C   C20       1.0  0.011777627723297697  0.006154001746175199  0.2098249003643673  1.0000
  C   C21       1.0  0.9810560254329629  0.1907184985869108  0.8806060474514084  1.0000
  C   C22       1.0  0.018931890390661052  0.8092789971232436  0.11939155615197453  1.0000
  C   C23       1.0  0.0730573105894265  0.05432841410377879  0.7160543046186163  1.0000
  C   C24       1.0  0.9269288205700973  0.9456672034762192  0.28394136562329203  1.0000
  C   C25       1.0  0.12712365203033466  0.9824382849693122  0.6440503618544184  1.0000
  C   C26       1.0  0.8728721504806102  0.0175620671966641  0.3559492338058234  1.0000
  C   C27       1.0  0.26575809143991336  0.7273811338395217  0.43778972936591753  1.0000
  C   C28       1.0  0.7342500349307101  0.2726210570992933  0.5622187285639129  1.0000
  C   C29       1.0  0.34423399340751365  0.726180354875062  0.3485488777136255  1.0000
  C   C30       1.0  0.6557735489585923  0.27382374913520374  0.6514580305139078  1.0000
  C   C31       1.0  0.3882834103011206  0.8284451148389635  0.2877650494660173  1.0000
  C   C32       1.0  0.6117173316829608  0.17155621169087  0.7122344533356967  1.0000
  C   C33       1.0  0.4685401207058462  0.8140510882881317  0.20560821810258292  1.0000
  C   C34       1.0  0.5314530837574125  0.18595210610985902  0.7943904156513216  1.0000
  C   C35       1.0  0.5073719660388321  0.6987772884752202  0.1844224204182296  1.0000
  C   C36       1.0  0.49262297952008544  0.301227826917831  0.8155749667412169  1.0000
  C   C37       1.0  0.38640356292037126  0.6125918966715815  0.3216703692479399  1.0000
  C   C38       1.0  0.6135966930882049  0.3874112464836728  0.6783347387523336  1.0000
  C   C39       1.0  0.3484206873582423  0.5027872394117026  0.37905640789139033  1.0000
  C   C40       1.0  0.6515809823637043  0.4972130789821848  0.6209479204833458  1.0000
  C   C41       1.0  0.45239642714100375  0.2167419356505036  0.11890269488131373  1.0000
  C   C42       1.0  0.5475966793190352  0.7832537057003324  0.8810938846840912  1.0000
  C   C43       1.0  0.4761812713052862  0.10253210926486389  0.0602334793709218  1.0000
  C   C44       1.0  0.5238095046214255  0.8974597047738795  0.9397649499483267  1.0000
  C   C45       1.0  0.6309541462397519  0.0842910351122939  0.07002477963401788  1.0000
  C   C46       1.0  0.3690383925668356  0.9157026784890546  0.9299739930687352  1.0000
  C   C47       1.0  0.34515728582174177  0.017698392671832194  0.9899998781004129  1.0000
  C   C48       1.0  0.65483349010497  0.982293421366904  0.00999855121883538  1.0000
  C   C49       1.0  0.8176542830695724  0.49418127264686956  0.1684205115080744  1.0000
  C   C50       1.0  0.18236332405340508  0.5058220156652807  0.8315805098890509  1.0000
  C   C51       1.0  0.9115867307467977  0.4975324236413383  0.08110231438282503  1.0000
  C   C52       1.0  0.08842705042572867  0.5024737672383708  0.918892823620155  1.0000
  C   C53       1.0  0.8450598074138752  0.5182987701904194  0.9750294885701651  1.0000
  C   C54       1.0  0.15495163776636642  0.4817074234819004  0.024964551335998002  1.0000
  C   C55       1.0  0.0667246206837575  0.479239919446286  0.10533159594825751  1.0000
  C   C56       1.0  0.9332888385396528  0.5207653450654703  0.8946618561619601  1.0000
  N   N1        1.0  0.39800155890232963  0.40072247546488887  0.3472035978706316  1.0000
  N   N2        1.0  0.6019998269799913  0.5992807038008436  0.6527992767166  1.0000
  N   N3        1.0  0.4677883777588363  0.6017487123499022  0.24194385336869573  1.0000
  N   N4        1.0  0.5322104100758054  0.3982573091478443  0.7580580593122052  1.0000
  N   N5        1.0  0.1623663923744374  0.6540129090974816  0.5751285759203882  1.0000
  N   N6        1.0  0.8376385029423689  0.3459902606212211  0.4248763433065649  1.0000
  N   N7        1.0  0.2220698818078262  0.8256846224744336  0.4853526274965391  1.0000
  N   N8        1.0  0.7779431949280422  0.1743185321120109  0.5146565325637411  1.0000
  O   O1        1.0  0.34380314498128683  0.2676674127789838  0.07732799288031342  1.0000
  O   O2        1.0  0.6561902126420448  0.7323253998486761  0.9226676555056275  1.0000
  O   O3        1.0  0.5528717814912697  0.2619967009460638  0.21104882441063924  1.0000
  O   O4        1.0  0.4471242068302884  0.7380008867940901  0.7889450701362507  1.0000
  O   O5        1.0  0.6674125577854468  0.4884428869587937  0.1346183224429964  1.0000
  O   O6        1.0  0.3326024785072335  0.5115670415413973  0.8653811741640781  1.0000
  O   O7        1.0  0.888248958062171  0.49731732190321754  0.26665696816075274  1.0000
  O   O8        1.0  0.11176763967078779  0.5026755806767867  0.7333409163145035  1.0000
  O   O9        1.0  0.9292634068046937  0.054783300778247196  0.8636342080970395  1.0000
  O   O10       1.0  0.07071687892805292  0.9452123291413981  0.13635831940834459  1.0000
