data_image0
_chemical_formula_structural       Bi4H52C24S8N4Cl4
_chemical_formula_sum              "Bi4 H52 C24 S8 N4 Cl4"
_cell_length_a       7.923432840005448
_cell_length_b       9.910078120803316
_cell_length_c       14.451544972854808
_cell_angle_alpha    104.45857072217437
_cell_angle_beta     89.99988206869864
_cell_angle_gamma    90.00009244659718

_space_group_name_H-M_alt    "P 1"
_space_group_IT_number       1

loop_
  _space_group_symop_operation_xyz
  'x, y, z'

loop_
  _atom_site_type_symbol
  _atom_site_label
  _atom_site_symmetry_multiplicity
  _atom_site_fract_x
  _atom_site_fract_y
  _atom_site_fract_z
  _atom_site_occupancy
  Bi  Bi1       1.0  0.9442178795668636  0.9335524209776839  0.7050870429839547  1.0000
  Bi  Bi2       1.0  0.44423026560233575  0.06645852281103264  0.7949140881469107  1.0000
  Bi  Bi3       1.0  0.05578341380898878  0.0664420932986829  0.29491157409137264  1.0000
  Bi  Bi4       1.0  0.555783648580025  0.9335568328567522  0.20508815403677264  1.0000
  H   H1        1.0  0.18039394848735668  0.9808023564898178  0.5708474160688013  1.0000
  H   H2        1.0  0.6803978027256788  0.019198940029703203  0.9291557944392252  1.0000
  H   H3        1.0  0.8196073448940734  0.019198414473052608  0.42915159731037283  1.0000
  H   H4        1.0  0.3196072768829906  0.9808017967681335  0.07084874878201217  1.0000
  H   H5        1.0  0.15843147023672796  0.13442376354511515  0.6678576460498604  1.0000
  H   H6        1.0  0.6584323513796871  0.8655775294705426  0.8321428207257925  1.0000
  H   H7        1.0  0.8415685610633401  0.8655738812093364  0.33214082356276015  1.0000
  H   H8        1.0  0.34156894199794147  0.13442530854747053  0.1678593200867695  1.0000
  H   H9        1.0  0.0024941452420534993  0.09670924814498963  0.575338039177268  1.0000
  H   H10       1.0  0.5024934921665788  0.9032950334562889  0.9246617393446641  1.0000
  H   H11       1.0  0.9975046239748689  0.9032883837963158  0.42466250412741874  1.0000
  H   H12       1.0  0.4975052770606607  0.09671198992104732  0.0753383615700614  1.0000
  H   H13       1.0  0.5147088026824774  0.703889151506438  0.3354597315073846  1.0000
  H   H14       1.0  0.014710784852198299  0.2961128623575817  0.16454058001350086  1.0000
  H   H15       1.0  0.4852924906961034  0.2961074511793314  0.6645385568489104  1.0000
  H   H16       1.0  0.985293032684481  0.7038889378631908  0.8354606883116347  1.0000
  H   H17       1.0  0.5148185651374457  0.8508952143058508  0.43476223934344915  1.0000
  H   H18       1.0  0.014816837941729893  0.14910366918063292  0.0652382195366457  1.0000
  H   H19       1.0  0.4851814661632118  0.1491013926501736  0.5652353577829601  1.0000
  H   H20       1.0  0.9851831933525187  0.8508949962888369  0.9347638874841238  1.0000
  H   H21       1.0  0.34483388416551697  0.5691105479945195  0.4312831214401385  1.0000
  H   H22       1.0  0.8448361409794315  0.430889686893096  0.06871720031401199  1.0000
  H   H23       1.0  0.655166147129925  0.4308860418781038  0.5687172406082154  1.0000
  H   H24       1.0  0.15516515239808365  0.5691110712572257  0.9312838867566171  1.0000
  H   H25       1.0  0.2405711701225569  0.7228560715064632  0.4207584931875985  1.0000
  H   H26       1.0  0.7405718146143981  0.27714510772214146  0.0792421104097087  1.0000
  H   H27       1.0  0.7594275990949552  0.27714052263642236  0.5792411776308768  1.0000
  H   H28       1.0  0.2594269546033486  0.7228556461561485  0.9207596678926322  1.0000
  H   H29       1.0  0.34403874126185474  0.7199097341533474  0.5297272095547712  1.0000
  H   H30       1.0  0.8440391815407435  0.28009277490480156  0.9702732594136236  1.0000
  H   H31       1.0  0.6559650762773185  0.2800899947414237  0.4702716225674664  1.0000
  H   H32       1.0  0.15596211183606093  0.7199069411762408  0.029727646401283878  1.0000
  H   H33       1.0  0.6189386047567991  0.48505157909411895  0.36306509981443474  1.0000
  H   H34       1.0  0.11893608466904479  0.5149463684582332  0.13693369490034973  1.0000
  H   H35       1.0  0.38106395069507915  0.5149439644395671  0.6369357722074653  1.0000
  H   H36       1.0  0.8810626845558286  0.4850533689758835  0.8630637547633526  1.0000
  H   H37       1.0  0.7996253146962925  0.49824536777996553  0.4364304094894536  1.0000
  H   H38       1.0  0.2996217820956701  0.5017548247300355  0.0635699558821088  1.0000
  H   H39       1.0  0.20037850283564035  0.5017532976912805  0.5635716975294898  1.0000
  H   H40       1.0  0.7003757250473652  0.4982449041617871  0.9364288762431698  1.0000
  H   H41       1.0  0.7726273713544882  0.6189927707066972  0.259261538768591  1.0000
  H   H42       1.0  0.2726279760739629  0.3810063587011073  0.24073798016082998  1.0000
  H   H43       1.0  0.2273701357803616  0.3810006929569241  0.7407382795138132  1.0000
  H   H44       1.0  0.727370793150548  0.6189985762668258  0.7592624494729421  1.0000
  H   H45       1.0  0.8759952767445538  0.4628759758426926  0.2655816987425652  1.0000
  H   H46       1.0  0.37599622066909416  0.5371242925233589  0.23441790171902  1.0000
  H   H47       1.0  0.12400349246964026  0.5371195676892173  0.7344191732811609  1.0000
  H   H48       1.0  0.6240000243988602  0.46287960891582  0.7655809641992732  1.0000
  H   H49       1.0  0.9550317642429247  0.6262801540912551  0.33311215132449956  1.0000
  H   H50       1.0  0.4550301081329094  0.3737191505576406  0.1668865004022848  1.0000
  H   H51       1.0  0.04496952913495278  0.3737154065252356  0.666885955776067  1.0000
  H   H52       1.0  0.5449686610895909  0.6262847380701688  0.8331144392062485  1.0000
  C   C1        1.0  0.09155264197125489  0.05138063345429342  0.6168722690687432  1.0000
  C   C2        1.0  0.5915547610054189  0.9486226724719276  0.8831300071995685  1.0000
  C   C3        1.0  0.9084473893261983  0.9486170027584606  0.38312758300484967  1.0000
  C   C4        1.0  0.4084477944535718  0.051383291754504526  0.11687267737955412  1.0000
  C   C5        1.0  0.7444775882665693  0.7543143566034448  0.5273543019588658  1.0000
  C   C6        1.0  0.24448209476894783  0.24568597499739306  0.9726459005469792  1.0000
  C   C7        1.0  0.2555186567945071  0.2456832838783853  0.4726448588860634  1.0000
  C   C8        1.0  0.7555191986105781  0.7543158294930451  0.027354676548888807  1.0000
  C   C9        1.0  0.5107432349520734  0.7364963136450059  0.4139373429726518  1.0000
  C   C10       1.0  0.010742922556701697  0.26350361663323707  0.08606191863315618  1.0000
  C   C11       1.0  0.48925805842912223  0.26350029758246774  0.5860595629226638  1.0000
  C   C12       1.0  0.989257108742883  0.7364971457873397  0.9139384772075944  1.0000
  C   C13       1.0  0.35106737080279515  0.6835084717150866  0.4515909425743345  1.0000
  C   C14       1.0  0.8510669487963438  0.3164928110833146  0.048409554423116716  1.0000
  C   C15       1.0  0.6489339225765032  0.3164891730399547  0.5484075270376749  1.0000
  C   C16       1.0  0.14893434457986388  0.6835079427961476  0.9515922238780021  1.0000
  C   C17       1.0  0.7291635715028162  0.5503465580831278  0.3899702822472761  1.0000
  C   C18       1.0  0.22916102079791753  0.4496535769238293  0.11002876864027661  1.0000
  C   C19       1.0  0.27083772187327065  0.4496521159286362  0.6100304423119169  1.0000
  C   C20       1.0  0.7708339621899893  0.5503472025777826  0.8899688622809805  1.0000
  C   C21       1.0  0.8399907073068529  0.5672215816208708  0.3073526149948407  1.0000
  C   C22       1.0  0.3399890735278532  0.43277761092689093  0.1926468389473897  1.0000
  C   C23       1.0  0.16001058607042745  0.43277501679404656  0.69264636459193  1.0000
  C   C24       1.0  0.6600096956946471  0.567226277700918  0.8073541006611364  1.0000
  S   S1        1.0  0.6683830852359733  0.9140533851801964  0.591902926531553  1.0000
  S   S2        1.0  0.1683950845205615  0.08594585438422801  0.9080937119741178  1.0000
  S   S3        1.0  0.33161063566866733  0.0859453016405709  0.4080957243398302  1.0000
  S   S4        1.0  0.8316125192581935  0.9140528409847521  0.09190355642959963  1.0000
  S   S5        1.0  0.9294780778556058  0.6932700541587737  0.5646817070191688  1.0000
  S   S6        1.0  0.4294828482225126  0.3067345934988596  0.9353231894145465  1.0000
  S   S7        1.0  0.07051690512233219  0.30672757350991026  0.4353195275178265  1.0000
  S   S8        1.0  0.5705184451553506  0.6932724042545574  0.0646810588818738  1.0000
  N   N1        1.0  0.6652531657891315  0.6837022263619447  0.4486206104438892  1.0000
  N   N2        1.0  0.165255614798177  0.31629784874284894  0.0513785020983164  1.0000
  N   N3        1.0  0.33474560343099563  0.3162943763226452  0.5513776779136137  1.0000
  N   N4        1.0  0.8347456785826636  0.6837039600184412  0.9486213837670687  1.0000
  Cl  Cl1       1.0  0.7690833166903058  0.19378585729284484  0.7738604124687711  1.0000
  Cl  Cl2       1.0  0.26907978712484487  0.8062228339218722  0.7261412163485447  1.0000
  Cl  Cl3       1.0  0.23091545253349463  0.8062180356058166  0.22613983590927947  1.0000
  Cl  Cl4       1.0  0.7309151958592605  0.19378001263488903  0.2738595420060932  1.0000
