data_image0
_chemical_formula_structural       K4H32C36S4N4O20
_chemical_formula_sum              "K4 H32 C36 S4 N4 O20"
_cell_length_a       9.967477053565913
_cell_length_b       9.914052948010061
_cell_length_c       11.229558959597467
_cell_angle_alpha    90.00014454870781
_cell_angle_beta     102.85250680244728
_cell_angle_gamma    90.00004017510152

_space_group_name_H-M_alt    "P 1"
_space_group_IT_number       1

loop_
  _space_group_symop_operation_xyz
  'x, y, z'

loop_
  _atom_site_type_symbol
  _atom_site_label
  _atom_site_symmetry_multiplicity
  _atom_site_fract_x
  _atom_site_fract_y
  _atom_site_fract_z
  _atom_site_occupancy
  K   K1        1.0  0.8447936151159469  0.9963397480254486  0.8524422719016018  1.0000
  K   K2        1.0  0.8447953985911026  0.503653554638092  0.3524424641938354  1.0000
  K   K3        1.0  0.1552074665371137  0.0036627434015557  0.14756738155767124  1.0000
  K   K4        1.0  0.155203408829756  0.4963418760866177  0.6475551939647489  1.0000
  H   H1        1.0  0.9068594497670476  0.9335578110516136  0.5904017678773956  1.0000
  H   H2        1.0  0.9068612981104991  0.5664438741893817  0.09040122390441509  1.0000
  H   H3        1.0  0.09313837868792521  0.0664436716915446  0.4095983825758864  1.0000
  H   H4        1.0  0.0931406126911014  0.4335576085538194  0.9095978941720377  1.0000
  H   H5        1.0  0.47384586545521756  0.6472068082808351  0.7737296014043836  1.0000
  H   H6        1.0  0.47384604439538697  0.8527970953915656  0.27373029153700673  1.0000
  H   H7        1.0  0.5261550663745993  0.352791648457888  0.22627200895538385  1.0000
  H   H8        1.0  0.5261549040837892  0.14720539602527788  0.7262722125049806  1.0000
  H   H9        1.0  0.9585577360018434  0.8060238355085971  0.6778753286278844  1.0000
  H   H10       1.0  0.9585597665691664  0.6939781349450059  0.17787599807454776  1.0000
  H   H11       1.0  0.04144314589038339  0.193978655903166  0.32212360070546003  1.0000
  H   H12       1.0  0.041442160878517605  0.30602233913025145  0.8221240136778079  1.0000
  H   H13       1.0  0.731357002187714  0.6364252925466831  0.8127472574240999  1.0000
  H   H14       1.0  0.7313571951256818  0.8635789101259663  0.31274797458757325  1.0000
  H   H15       1.0  0.2686438963479744  0.36357215552028777  0.1872525655800885  1.0000
  H   H16       1.0  0.2686437700008852  0.136424589961365  0.6872554231328394  1.0000
  H   H17       1.0  0.840424313501785  0.4511427525977539  0.7194591529677228  1.0000
  H   H18       1.0  0.8404220067289786  0.04886055489733819  0.21945691625467853  1.0000
  H   H19       1.0  0.1595755561238832  0.5488546954685701  0.28054048129208553  1.0000
  H   H20       1.0  0.15957685063732902  0.9511429451848983  0.7805434229455059  1.0000
  H   H21       1.0  0.2152346440075164  0.23911685755016523  0.4569620070781184  1.0000
  H   H22       1.0  0.2152356415671619  0.26088565474466924  0.9569617906973634  1.0000
  H   H23       1.0  0.7847651923266454  0.7608836165212622  0.5430358398311627  1.0000
  H   H24       1.0  0.7847632324445754  0.7391158280004078  0.043039442177452314  1.0000
  H   H25       1.0  0.6477350236930803  0.08831489706349772  0.4432798985602346  1.0000
  H   H26       1.0  0.6477382748580068  0.41168688476970783  0.9432804377449103  1.0000
  H   H27       1.0  0.3522637670836631  0.911684568336803  0.5567168659262478  1.0000
  H   H28       1.0  0.3522595036547926  0.5883115719620021  0.05671703167309523  1.0000
  H   H29       1.0  0.3945668222847445  0.11923651760491791  0.40780562093269174  1.0000
  H   H30       1.0  0.3945700666001386  0.3807690131083207  0.9078078699523857  1.0000
  H   H31       1.0  0.6054319518472226  0.8807659738017577  0.5921902498804243  1.0000
  H   H32       1.0  0.6054287907648613  0.6192324696354845  0.09219246924526914  1.0000
  C   C1        1.0  0.5239584726659315  0.567327227677609  0.7328068395278252  1.0000
  C   C2        1.0  0.5239577264034239  0.9326765970026759  0.23280754118313501  1.0000
  C   C3        1.0  0.476042425869764  0.43267022038936176  0.26719298347635606  1.0000
  C   C4        1.0  0.47604220981180834  0.0673248857455846  0.7671956677903753  1.0000
  C   C5        1.0  0.6687850316418462  0.5612188112476488  0.7549297629105782  1.0000
  C   C6        1.0  0.6687852889265428  0.9387851820973906  0.2549288812706436  1.0000
  C   C7        1.0  0.3312189869186994  0.43878065416221573  0.24507241368358026  1.0000
  C   C8        1.0  0.33121564290654965  0.06121831798739662  0.7450727290954476  1.0000
  C   C9        1.0  0.729003098740968  0.4584999216951858  0.70295381641035  1.0000
  C   C10       1.0  0.729002890177199  0.04150426616729419  0.20295461977337945  1.0000
  C   C11       1.0  0.27099877876520395  0.5414985350378316  0.2970435143079869  1.0000
  C   C12       1.0  0.270997029391296  0.9584972165796944  0.7970476955229701  1.0000
  C   C13       1.0  0.6966605336228681  0.25360470496809745  0.5666841188734111  1.0000
  C   C14       1.0  0.6966625823067503  0.24639907389132532  0.06668223871155733  1.0000
  C   C15       1.0  0.3033362659207697  0.7463947604359903  0.4333158428329682  1.0000
  C   C16       1.0  0.303336241764775  0.7536024088499431  0.9333163131317763  1.0000
  C   C17       1.0  0.6062508278624676  0.16966411908957474  0.4893069924486043  1.0000
  C   C18       1.0  0.6062539900581071  0.3303367538216762  0.9893082213575823  1.0000
  C   C19       1.0  0.3937479629142758  0.8303353463107257  0.5106897720378785  1.0000
  C   C20       1.0  0.39374380510208346  0.6696627115805215  0.010690141738848523  1.0000
  C   C21       1.0  0.4630706572536597  0.18701920094731864  0.46936442198499156  1.0000
  C   C22       1.0  0.46307172245298023  0.3129855453427837  0.9693643362217657  1.0000
  C   C23       1.0  0.5369302079905226  0.8129812731247553  0.5306336136686696  1.0000
  C   C24       1.0  0.5369271182652824  0.6870159373997496  0.030635109298728504  1.0000
  C   C25       1.0  0.40779493936314276  0.2885236655455047  0.5290994539608677  1.0000
  C   C26       1.0  0.40779491818440755  0.21147878672407217  0.029098896117133715  1.0000
  C   C27       1.0  0.5922059425271229  0.7114757998586257  0.47089947536868954  1.0000
  C   C28       1.0  0.5922039724734135  0.788521687353054  0.9709032304335782  1.0000
  C   C29       1.0  0.6452160637496221  0.3628446552821174  0.6264940783827982  1.0000
  C   C30       1.0  0.6452169916339656  0.13715320298427267  0.12649441662370012  1.0000
  C   C31       1.0  0.3547848181399901  0.6371538014527899  0.3735048509454871  1.0000
  C   C32       1.0  0.35478291128583095  0.8628452537538042  0.8735070049917016  1.0000
  C   C33       1.0  0.4990456573443325  0.37946441889674537  0.608468220732128  1.0000
  C   C34       1.0  0.49904654700837625  0.12053933331679194  0.1084676236356259  1.0000
  C   C35       1.0  0.5009541956352592  0.6205340378375227  0.3915305198517842  1.0000
  C   C36       1.0  0.5009523270040147  0.8794631580975009  0.8915336092404547  1.0000
  S   S1        1.0  0.8765782099314022  0.22176817691269693  0.5896376910614194  1.0000
  S   S2        1.0  0.8765793209709969  0.2782236946459022  0.08963838298953429  1.0000
  S   S3        1.0  0.12342164304818226  0.7782302798215712  0.4103610495224928  1.0000
  S   S4        1.0  0.1234184741891937  0.7217757707562883  0.9103599801068968  1.0000
  N   N1        1.0  0.44131909894810645  0.47956077382514206  0.6635712984709273  1.0000
  N   N2        1.0  0.4413188297467627  0.0204420832260794  0.16357026167602845  1.0000
  N   N3        1.0  0.558682878438475  0.5204376829154926  0.3364313943103738  1.0000
  N   N4        1.0  0.5586810898217323  0.9795593995209089  0.836432053620321  1.0000
  O   O1        1.0  0.9264573663462482  0.20031802422953152  0.7230134955890078  1.0000
  O   O2        1.0  0.9264605131178953  0.2996793043393282  0.22301193775918904  1.0000
  O   O3        1.0  0.0735414577233087  0.7996804325040969  0.2769850562505312  1.0000
  O   O4        1.0  0.07353933986169642  0.7003191523949398  0.7769868028247233  1.0000
  O   O5        1.0  0.8763627721652015  0.8581124330486671  0.6359611879519776  1.0000
  O   O6        1.0  0.8763647351033299  0.6418853239915452  0.13596172680134092  1.0000
  O   O7        1.0  0.12363709746243497  0.1418880410252967  0.364038446311632  1.0000
  O   O8        1.0  0.12363719234370048  0.3581141414144966  0.8640382849497499  1.0000
  O   O9        1.0  0.937732151360528  0.3434439080937253  0.5482067684366214  1.0000
  O   O10       1.0  0.9377309800277589  0.15655696914228653  0.04820320312379077  1.0000
  O   O11       1.0  0.06226668935576641  0.656554548641168  0.4517926770800785  1.0000
  O   O12       1.0  0.06226887295247959  0.8434424962611969  0.9517955374613933  1.0000
  O   O13       1.0  0.8913385328041982  0.10117663350357023  0.5182871909128863  1.0000
  O   O14       1.0  0.8913417916482516  0.3988271511534975  0.018284987972705887  1.0000
  O   O15       1.0  0.10866029126601259  0.8988228318992668  0.4817113609279176  1.0000
  O   O16       1.0  0.10865701577588278  0.6011733229172834  0.9817126701922023  1.0000
  O   O17       1.0  0.2718245388565421  0.30631047285935153  0.5179215017278694  1.0000
  O   O18       1.0  0.2718255401425793  0.1936928568504612  0.01792198171322923  1.0000
  O   O19       1.0  0.7281753141243569  0.6936900012133478  0.4820772388585723  1.0000
  O   O20       1.0  0.7281733671626257  0.8063086258971525  0.9820810385159008  1.0000
