data_image0
_chemical_formula_structural       Mn2H44C32I8N4O16
_chemical_formula_sum              "Mn2 H44 C32 I8 N4 O16"
_cell_length_a       8.441840611
_cell_length_b       11.48607975586991
_cell_length_c       13.801
_cell_angle_alpha    90.0
_cell_angle_beta     90.0
_cell_angle_gamma    101.60920173665048

_space_group_name_H-M_alt    "P 1"
_space_group_IT_number       1

loop_
  _space_group_symop_operation_xyz
  'x, y, z'

loop_
  _atom_site_type_symbol
  _atom_site_label
  _atom_site_symmetry_multiplicity
  _atom_site_fract_x
  _atom_site_fract_y
  _atom_site_fract_z
  _atom_site_occupancy
  Mn  Mn1       1.0  0.500008531406472  5.3328079304e-06  2.1737555258e-06  1.0000
  Mn  Mn2       1.0  0.9999927120451985  0.499998738968685  0.500003622925874  1.0000
  H   H1        1.0  0.4619389000343688  0.8670896834315583  0.8014926454604704  1.0000
  H   H2        1.0  0.03805533545192218  0.6329127550837512  0.3014940946308258  1.0000
  H   H3        1.0  0.5380643328624544  0.1329033504991983  0.1985022824433003  1.0000
  H   H4        1.0  0.9619375118275428  0.36708561165494297  0.6985051807840037  1.0000
  H   H5        1.0  0.6261978230826557  0.1355981961078925  0.6252988913846806  1.0000
  H   H6        1.0  0.8738166618514569  0.3644023204634337  0.1253032388957322  1.0000
  H   H7        1.0  0.37381543754995045  0.8644055034387321  0.3747040069560157  1.0000
  H   H8        1.0  0.12618708996685504  0.6355969350765776  0.8747018332004898  1.0000
  H   H9        1.0  0.7794809403131211  0.0515158134318909  0.6057191507861717  1.0000
  H   H10       1.0  0.7205258860367749  0.4484740375235744  0.10571987537134928  1.0000
  H   H11       1.0  0.22052350936746729  0.9484816645054792  0.3942837475545247  1.0000
  H   H12       1.0  0.279474490994957  0.5515172188045412  0.8942822983841765  1.0000
  H   H13       1.0  0.7623857568499943  0.1189402817285625  0.7213854068545728  1.0000
  H   H14       1.0  0.7376227407891988  0.38105134682954395  0.2213897543656245  1.0000
  H   H15       1.0  0.23762339892576276  0.8810527522021941  0.2786182160713011  1.0000
  H   H16       1.0  0.2623766950234979  0.6189407982998887  0.7786174914861235  1.0000
  H   H17       1.0  0.4342213113373247  0.8068849482745364  0.6539156582856336  1.0000
  H   H18       1.0  0.06576867255931516  0.6931192678434144  0.1539163828708041  1.0000
  H   H19       1.0  0.5657845984837948  0.19311786247076407  0.3460770958626185  1.0000
  H   H20       1.0  0.9342208643495338  0.306879987696604  0.8460821679588406  1.0000
  H   H21       1.0  0.6132177939520246  0.8442777086978095  0.5827693645387981  1.0000
  H   H22       1.0  0.8867711119320276  0.6557185082082455  0.08277226287950157  1.0000
  H   H23       1.0  0.3867852600040038  0.15572332444484968  0.4172241141946244  1.0000
  H   H24       1.0  0.1132188794823463  0.3442780809278005  0.9172306354612019  1.0000
  H   H25       1.0  0.4497174472525955  0.9216878598485891  0.565711180349247  1.0000
  H   H26       1.0  0.050275392509135444  0.5783181338720026  0.0657126295196022  1.0000
  H   H27       1.0  0.550282539689583  0.0783149508967114  0.434285196724872  1.0000
  H   H28       1.0  0.9497155723322591  0.4216820104693325  0.9342866458952273  1.0000
  H   H29       1.0  0.1612753167677923  0.8045545112079182  0.99448518223317  1.0000
  H   H30       1.0  0.3387350482740103  0.6954505937113566  0.49448300847764404  1.0000
  H   H31       1.0  0.8387400374516503  0.19544385553076887  0.0055133685964819  1.0000
  H   H32       1.0  0.6612690113170245  0.3045584386431983  0.505518440692704  1.0000
  H   H33       1.0  0.012406857940710777  0.8794813514646761  0.9457647996521956  1.0000
  H   H34       1.0  0.48759518286259146  0.6205193094479853  0.4457619013114993  1.0000
  H   H35       1.0  0.9876027845485638  0.1205134600687288  0.0542352003478044  1.0000
  H   H36       1.0  0.5123991245573974  0.3794843900986322  0.5542352003478044  1.0000
  H   H37       1.0  0.10491956869071115  0.923081500321686  0.0608158829070362  1.0000
  H   H38       1.0  0.3950879404860074  0.5769218269949405  0.5608166074922138  1.0000
  H   H39       1.0  0.8950929296636472  0.0769150888143599  0.9391826679226154  1.0000
  H   H40       1.0  0.6049065780827546  0.4230783173463948  0.439181943337438  1.0000
  H   H41       1.0  0.2363281720250967  0.0533938506255467  0.9370067386421255  1.0000
  H   H42       1.0  0.2636686488577452  0.44661110995239267  0.4370081878124807  1.0000
  H   H43       1.0  0.7636753364364637  0.9466045161131404  0.0629881892616453  1.0000
  H   H44       1.0  0.7363081654901507  0.5533979224021621  0.5629867400912971  1.0000
  C   C1        1.0  0.39968830174908726  0.24168641071847216  0.9794580102891075  1.0000
  C   C2        1.0  0.1003110994341085  0.2583149946541781  0.4794551119484112  1.0000
  C   C3        1.0  0.600312869768878  0.7583164000268283  0.020536917614663294  1.0000
  C   C4        1.0  0.8996640114165046  0.7416878160911223  0.5205456126367665  1.0000
  C   C5        1.0  0.4474349563534901  0.37603317456481017  0.9891870154336644  1.0000
  C   C6        1.0  0.05256635947575459  0.12397089721180518  0.4891855662633162  1.0000
  C   C7        1.0  0.5525671563835033  0.6239687473791662  0.010812259981158  1.0000
  C   C8        1.0  0.9474303170958152  0.8760328023348194  0.5108151583218614  1.0000
  C   C9        1.0  0.5392575298567905  0.4436594007616037  0.9164067821172353  1.0000
  C   C10       1.0  0.960741798948824  0.0563420046110465  0.4164060575320647  1.0000
  C   C11       1.0  0.4607438850179264  0.5563442987850209  0.0835932178827647  1.0000
  C   C12       1.0  0.03925654891204288  0.9436634725382191  0.5835961162234611  1.0000
  C   C13       1.0  0.593031068888692  0.5667610502803697  0.9271016593000496  1.0000
  C   C14       1.0  0.9069798894298272  0.9332378330296507  0.4270987609593533  1.0000
  C   C15       1.0  0.4069769667272566  0.43324087166361375  0.07289906528512087  1.0000
  C   C16       1.0  0.09302034086910277  0.0667658665169739  0.5729019636258244  1.0000
  C   C17       1.0  0.5460134314083901  0.9515551394773993  0.7857155278602972  1.0000
  C   C18       1.0  0.9539921229526768  0.5484499654418755  0.2857177016158232  1.0000
  C   C19       1.0  0.4539965188536001  0.04844944887054939  0.21428737048039884  1.0000
  C   C20       1.0  0.04600713391923956  0.45155017889945975  0.7142859213100508  1.0000
  C   C21       1.0  0.6951486870076948  0.0746362022244185  0.6592855590174621  1.0000
  C   C22       1.0  0.8048610274152779  0.4253598703403014  0.15928700818781036  1.0000
  C   C23       1.0  0.3048609876895654  0.9253630533155928  0.3407187884935894  1.0000
  C   C24       1.0  0.195140323043475  0.5746349411931035  0.8407173393232341  1.0000
  C   C25       1.0  0.5178737354373126  0.8803772631973814  0.6192725164843154  1.0000
  C   C26       1.0  0.9821173284495542  0.6196225089139631  0.1192775885805375  1.0000
  C   C27       1.0  0.4821295618754746  0.11962465874660208  0.38072023766393664  1.0000
  C   C28       1.0  0.017871235032281194  0.380373191420766  0.8807253097601588  1.0000
  C   C29       1.0  0.12519855453489  0.8907513522292659  0.9877436417650927  1.0000
  C   C30       1.0  0.3748063421334961  0.6092510862860436  0.487742917179915  1.0000
  C   C31       1.0  0.8748130026004333  0.1092461257081041  0.0122556336497368  1.0000
  C   C32       1.0  0.6251882086432445  0.3907535020619051  0.5122556336497368  1.0000
  I   I1        1.0  0.5842942909298756  0.3575096662103263  0.7874842402724411  1.0000
  I   I2        1.0  0.9157218652935343  0.1424926279636409  0.2874813419317448  1.0000
  I   I3        1.0  0.4156976473385399  0.6424940333362912  0.21251431055720355  1.0000
  I   I4        1.0  0.0842925799148587  0.8575110715829763  0.7125157597275589  1.0000
  I   I5        1.0  0.7362765129649842  0.6698824460776862  0.819975364104053  1.0000
  I   I6        1.0  0.7637131551973226  0.8301208812389476  0.3199818853706233  1.0000
  I   I7        1.0  0.2637386301056921  0.33011947586629725  0.18002608506630213  1.0000
  I   I8        1.0  0.23627690063302254  0.1698845959103252  0.680021012970073  1.0000
  N   N1        1.0  0.5866327999858072  0.9672824788724625  0.6922744728642839  1.0000
  N   N2        1.0  0.9133646412855256  0.5327146268349096  0.1922817187160319  1.0000
  N   N3        1.0  0.41337565792767356  0.0327123326609424  0.3077211796246644  1.0000
  N   N4        1.0  0.0866274759236703  0.46728107349981224  0.807725527135716  1.0000
  O   O1        1.0  0.5055837570730759  0.18612388486693018  0.010707195130784398  1.0000
  O   O2        1.0  0.9944167563083255  0.31387752050572  0.5107013984493847  1.0000
  O   O3        1.0  0.49441574315559217  0.8138771482757221  0.9892935294543861  1.0000
  O   O4        1.0  0.005561113783421871  0.6861137358223957  0.48930584740236327  1.0000
  O   O5        1.0  0.2642710861518722  0.19833157102636526  0.9421556408955851  1.0000
  O   O6        1.0  0.23573590919956186  0.301671611948926  0.44216071299181436  1.0000
  O   O7        1.0  0.7357364627505589  0.80166857331497  0.0578342149119635  1.0000
  O   O8        1.0  0.7642394772157886  0.6983365316043049  0.5578305919860895  1.0000
  O   O9        1.0  0.25477266487256134  0.9689436485435221  0.9390210854285925  1.0000
  O   O10       1.0  0.24523177729030005  0.5310614563757525  0.4390225345989407  1.0000
  O   O11       1.0  0.7452396223330309  0.031056495797813  0.060978189986229794  1.0000
  O   O12       1.0  0.7547587974615341  0.4689502423827675  0.5609767408158817  1.0000
  O   O13       1.0  0.5981862207802635  0.0246269070335359  0.8515259763785252  1.0000
  O   O14       1.0  0.9018185119827962  0.4753682767298599  0.351535395985799  1.0000
  O   O15       1.0  0.40181816448436075  0.9753616828906075  0.1484667777697268  1.0000
  O   O16       1.0  0.09817928474858917  0.524626534803545  0.6484732990363042  1.0000
