data_image0
_chemical_formula_structural       V2Cu2P2H16C20N4O12
_chemical_formula_sum              "V2 Cu2 P2 H16 C20 N4 O12"
_cell_length_a       5.524542148354171
_cell_length_b       10.182213212948838
_cell_length_c       11.633029501713285
_cell_angle_alpha    72.9653960401591
_cell_angle_beta     80.01305811634576
_cell_angle_gamma    87.49559029633384

_space_group_name_H-M_alt    "P 1"
_space_group_IT_number       1

loop_
  _space_group_symop_operation_xyz
  'x, y, z'

loop_
  _atom_site_type_symbol
  _atom_site_label
  _atom_site_symmetry_multiplicity
  _atom_site_fract_x
  _atom_site_fract_y
  _atom_site_fract_z
  _atom_site_occupancy
  V   V1        1.0  0.37329108237005226  0.7044374348400383  0.7486155158708315  1.0000
  V   V2        1.0  0.6266921544861574  0.29556864611704736  0.2513950138390726  1.0000
  Cu  Cu1       1.0  0.8303174967416139  0.6190180112502193  0.16510849055907065  1.0000
  Cu  Cu2       1.0  0.16968602762378282  0.3809823620794006  0.8348854232088601  1.0000
  P   P1        1.0  0.8351798247349363  0.6123162146479473  0.8874582729895195  1.0000
  P   P2        1.0  0.16481458224703258  0.3876808388779835  0.11254666699813498  1.0000
  H   H1        1.0  0.11642331761976268  0.05965911109426968  0.15870421435587906  1.0000
  H   H2        1.0  0.8835894264658605  0.9403402265584406  0.8412952072433557  1.0000
  H   H3        1.0  0.6651815624541655  0.9309416338845511  0.4292646897368755  1.0000
  H   H4        1.0  0.3348128595427013  0.06905351707323602  0.5707312588221854  1.0000
  H   H5        1.0  0.11585967210051247  0.9135969142335442  0.014395608232078378  1.0000
  H   H6        1.0  0.8841457220993193  0.0864023395887514  0.9856053026804333  1.0000
  H   H7        1.0  0.42296493816892416  0.725670081153034  0.020423105985045695  1.0000
  H   H8        1.0  0.5770495144617415  0.2743365177469528  0.9795709548016449  1.0000
  H   H9        1.0  0.979586447167044  0.8328275523903343  0.5614793664247841  1.0000
  H   H10       1.0  0.0204060881728125  0.167170634401522  0.4385177134955853  1.0000
  H   H11       1.0  0.4148098324470766  0.0038837777560161014  0.3032499566811921  1.0000
  H   H12       1.0  0.5852157157147603  0.996118832184635  0.6967433030392627  1.0000
  H   H13       1.0  0.24433511685496967  0.6405723122674944  0.5210009568246364  1.0000
  H   H14       1.0  0.7556611924259825  0.359420692226557  0.4790022392395843  1.0000
  H   H15       1.0  0.18534135922943312  0.552755714814822  0.3450118293368121  1.0000
  H   H16       1.0  0.8146476783756571  0.44723213985978555  0.6549897932300867  1.0000
  C   C1        1.0  0.2441887049367892  0.974964306595169  0.15818936164421873  1.0000
  C   C2        1.0  0.7558074785811825  0.0250359141109939  0.8418103560505161  1.0000
  C   C3        1.0  0.7801704980012475  0.8460624265407192  0.414325543487479  1.0000
  C   C4        1.0  0.21982565784810498  0.15393979304383984  0.5856771251769076  1.0000
  C   C5        1.0  0.5762957815707422  0.8369164797616123  0.23741846278026207  1.0000
  C   C6        1.0  0.4237133197597914  0.1630807827009733  0.7625809098127193  1.0000
  C   C7        1.0  0.24438906812704891  0.8961225254690106  0.0783244951057398  1.0000
  C   C8        1.0  0.7556201132210916  0.10386965724593719  0.9216726775993396  1.0000
  C   C9        1.0  0.4145778503485217  0.7910259545535965  0.0799040552631922  1.0000
  C   C10       1.0  0.5854274108576192  0.2089805705152301  0.9200899255890037  1.0000
  C   C11       1.0  0.7559535079648256  0.7906896805602914  0.32048105109586805  1.0000
  C   C12       1.0  0.2440537482116412  0.2093076194187731  0.6795150264039407  1.0000
  C   C13       1.0  0.9562113075066065  0.7915638383379788  0.48758829763847455  1.0000
  C   C14       1.0  0.04379413000382469  0.2084324034081106  0.5124090497422601  1.0000
  C   C15       1.0  0.4109369856246374  0.944404378352566  0.23950844169372235  1.0000
  C   C16       1.0  0.5890703981224874  0.055585691655778605  0.7604919770982761  1.0000
  C   C17       1.0  0.10523509022494441  0.6848761296976492  0.46495534949414014  1.0000
  C   C18       1.0  0.8947592030206833  0.3151271543598  0.5350437737164881  1.0000
  C   C19       1.0  0.07263076379754102  0.6345160349635749  0.369159156084379  1.0000
  C   C20       1.0  0.9273783633939415  0.36547924237921603  0.6308364026162395  1.0000
  N   N1        1.0  0.5777829976086294  0.7641721477705659  0.15636883731841075  1.0000
  N   N2        1.0  0.4222223959641127  0.2358262166813887  0.8436236947276329  1.0000
  N   N3        1.0  0.9010485703832103  0.6859404692810217  0.30007872518901024  1.0000
  N   N4        1.0  0.09896040337666533  0.31406402315227677  0.6999163061117742  1.0000
  O   O1        1.0  0.0737577808148089  0.7061042839049492  0.850369183917856  1.0000
  O   O2        1.0  0.9262236427983978  0.29390069754333586  0.14964520444110016  1.0000
  O   O3        1.0  0.7489581714185221  0.573049839214562  0.0247539898376843  1.0000
  O   O4        1.0  0.2510291383841974  0.4269317949277891  0.9752518802584619  1.0000
  O   O5        1.0  0.6364687087030206  0.7110988274127481  0.8248934693375889  1.0000
  O   O6        1.0  0.36352752236800256  0.28889924307033255  0.17511278953725204  1.0000
  O   O7        1.0  0.8707167078602468  0.4907562067703213  0.8345679072460614  1.0000
  O   O8        1.0  0.1292904069112524  0.5092493226186579  0.1654253044463729  1.0000
  O   O9        1.0  0.3879765203028783  0.5694665210898152  0.6974899684068634  1.0000
  O   O10       1.0  0.6119772345577771  0.4305434286815101  0.3025194766548935  1.0000
  O   O11       1.0  0.385262449805836  0.8430660985251992  0.6331961543796825  1.0000
  O   O12       1.0  0.6147334677983736  0.1569513465436643  0.36681397687112854  1.0000
