data_image0
_chemical_formula_structural       Cd6H52C84N16O24
_chemical_formula_sum              "Cd6 H52 C84 N16 O24"
_cell_length_a       10.36506270425613
_cell_length_b       15.955023248052541
_cell_length_c       17.052766525288035
_cell_angle_alpha    84.97865667505317
_cell_angle_beta     76.99857130615572
_cell_angle_gamma    85.6896592982135

_space_group_name_H-M_alt    "P 1"
_space_group_IT_number       1

loop_
  _space_group_symop_operation_xyz
  'x, y, z'

loop_
  _atom_site_type_symbol
  _atom_site_label
  _atom_site_symmetry_multiplicity
  _atom_site_fract_x
  _atom_site_fract_y
  _atom_site_fract_z
  _atom_site_occupancy
  Cd  Cd1       1.0  0.879137003867683  0.6782922928085285  0.1586696900930349  1.0000
  Cd  Cd2       1.0  0.1208627357115404  0.321707782456123  0.841329878968288  1.0000
  Cd  Cd3       1.0  0.0909723634942097  0.6797574157906467  0.31772349274131517  1.0000
  Cd  Cd4       1.0  0.9090283633751923  0.3202426572864212  0.6822765297157927  1.0000
  Cd  Cd5       1.0  0.4959803751421957  0.5494716361983907  0.24559544001758832  1.0000
  Cd  Cd6       1.0  0.504018212154662  0.450530331867327  0.7544035465062959  1.0000
  H   H1        1.0  0.3842810359684279  0.7027129218898552  0.15680659733411054  1.0000
  H   H2        1.0  0.6157187556452612  0.2972865220547262  0.843193601682351  1.0000
  H   H3        1.0  0.6635594295514693  0.596657875890692  0.9576009555164542  1.0000
  H   H4        1.0  0.3364402029958882  0.403343460898526  0.04239794054252138  1.0000
  H   H5        1.0  0.2487705631586792  0.6183680294660904  0.9573081193891677  1.0000
  H   H6        1.0  0.7512292314179446  0.38163141559405744  0.04269149271938489  1.0000
  H   H7        1.0  0.7319650183826241  0.6181473959022483  0.5291497864166173  1.0000
  H   H8        1.0  0.26803270050766054  0.38185331728876554  0.4708470720821865  1.0000
  H   H9        1.0  0.3211808925816158  0.5969003627133562  0.530912834553625  1.0000
  H   H10       1.0  0.6788168085310531  0.4031003437842315  0.4690875453926464  1.0000
  H   H11       1.0  0.5841840060930608  0.6973888310824989  0.31574831752245547  1.0000
  H   H12       1.0  0.4158157334861626  0.3026112441821455  0.6842512515388747  1.0000
  H   H13       1.0  0.7926558583595308  0.5106505442628163  0.27141280031371195  1.0000
  H   H14       1.0  0.2073449175813948  0.48934889637861534  0.7285884390064435  1.0000
  H   H15       1.0  0.8061182543465718  0.3557437352573417  0.2635487195534622  1.0000
  H   H16       1.0  0.1938825706658847  0.6442550729484539  0.736453736629741  1.0000
  H   H17       1.0  0.0985245496772365  0.3894114939153255  0.0395672890909538  1.0000
  H   H18       1.0  0.9014713418472764  0.6105873263439179  0.9604323132054089  1.0000
  H   H19       1.0  0.0682361616839557  0.5451360689293808  0.05497468414440477  1.0000
  H   H20       1.0  0.9317587395874443  0.4548627524018726  0.9450250516640818  1.0000
  H   H21       1.0  0.0320470380080664  0.2493717462346012  0.08266766570834247  1.0000
  H   H22       1.0  0.9679526897194181  0.7506283245677638  0.9173342509846306  1.0000
  H   H23       1.0  0.7627288666563388  0.1067934530266186  0.26186308762763827  1.0000
  H   H24       1.0  0.23727290250063499  0.8932059876583766  0.7381374312724843  1.0000
  H   H25       1.0  0.687442923090572  0.9638799177026272  0.29969649384120334  1.0000
  H   H26       1.0  0.3125567064938579  0.036121417971017415  0.7003029891256813  1.0000
  H   H27       1.0  0.7013641361541118  0.8113862768116391  0.2729707817434884  1.0000
  H   H28       1.0  0.2986315874152723  0.18861443294552777  0.7270292783191221  1.0000
  H   H29       1.0  0.9950479563008371  0.8469412473409079  0.0663402676080125  1.0000
  H   H30       1.0  0.004951939381776102  0.1530569339635335  0.9336611913187125  1.0000
  H   H31       1.0  0.9949535027560826  0.0024332514220830994  0.08433012408858079  1.0000
  H   H32       1.0  0.0050483763956848  0.9975649288539188  0.91567048090598  1.0000
  H   H33       1.0  0.935890910674992  0.5435732944796072  0.4412280324264086  1.0000
  H   H34       1.0  0.06410888390162481  0.4564261505805476  0.5587715796821369  1.0000
  H   H35       1.0  0.9257252370511821  0.38679412840394883  0.4696994115993787  1.0000
  H   H36       1.0  0.07427647414545656  0.6132059413699764  0.5303016511614299  1.0000
  H   H37       1.0  0.21254571801950561  0.36066755983808463  0.2441232213366716  1.0000
  H   H38       1.0  0.7874551129188203  0.6393312505988505  0.7558780610307065  1.0000
  H   H39       1.0  0.2082516298884514  0.5165331216000482  0.2245040741653099  1.0000
  H   H40       1.0  0.7917472814669252  0.48346506300754305  0.7754963444577141  1.0000
  H   H41       1.0  0.9969789415154723  0.24516270947627558  0.42969519355496993  1.0000
  H   H42       1.0  0.003024811110655914  0.75483673018028  0.5703044714129815  1.0000
  H   H43       1.0  0.20605690099800705  0.11797896508696938  0.224970211548758  1.0000
  H   H44       1.0  0.7939389296032429  0.8820204831456311  0.7750305215162071  1.0000
  H   H45       1.0  0.013265861146670912  0.99412886418353  0.4123563930831649  1.0000
  H   H46       1.0  0.9867339275040835  0.005870578645477999  0.5876443928412056  1.0000
  H   H47       1.0  0.9912179726214063  0.8371875484355087  0.41612742629840915  1.0000
  H   H48       1.0  0.0087828612798546  0.16281126311699984  0.58387326916106  1.0000
  H   H49       1.0  0.22535007752637168  0.8234573728280309  0.1865030600662152  1.0000
  H   H50       1.0  0.7746475715518385  0.17654396498962643  0.8134966899249247  1.0000
  H   H51       1.0  0.2576411270684744  0.9791233086862335  0.1721841975187672  1.0000
  H   H52       1.0  0.7423534932900678  0.020878661436363206  0.8278164968694381  1.0000
  C   C1        1.0  0.3017778380242079  0.6666283463819271  0.05973641967491259  1.0000
  C   C2        1.0  0.6982230018029227  0.3333704674017213  0.9402631019687316  1.0000
  C   C3        1.0  0.4055969851018091  0.6775628258306341  0.09747711419104378  1.0000
  C   C4        1.0  0.5944037447305205  0.3224372483620074  0.9025223213581551  1.0000
  C   C5        1.0  0.5365632864809697  0.6551270891456512  0.059506120729423614  1.0000
  C   C6        1.0  0.4634374403884322  0.3448729839314169  0.9404939017276912  1.0000
  C   C7        1.0  0.5627130702449463  0.6175475509400101  0.9859368882176651  1.0000
  C   C8        1.0  0.43728672136874275  0.3824518930045714  0.014063310798789481  1.0000
  C   C9        1.0  0.4585123295608255  0.6019711848103455  0.9506126377887154  1.0000
  C   C10       1.0  0.5414873579839394  0.39802952177437584  0.049386301317476  1.0000
  C   C11       1.0  0.329015167532475  0.6293195704174864  0.9861471443478462  1.0000
  C   C12       1.0  0.67098358475657  0.37068050703474137  0.013851971317691905  1.0000
  C   C13       1.0  0.1601342136313448  0.6867055548073894  0.09939543630204638  1.0000
  C   C14       1.0  0.8398655779823372  0.3132938891371921  0.900604762714408  1.0000
  C   C15       1.0  0.6489320196904912  0.6653635501364051  0.09879928970396173  1.0000
  C   C16       1.0  0.3510676128568662  0.334637786652813  0.901199606355021  1.0000
  C   C17       1.0  0.48188618940182687  0.5502012967779564  0.8790608439112116  1.0000
  C   C18       1.0  0.5181134431455376  0.44980004001126156  0.12093805214776403  1.0000
  C   C19       1.0  0.6721275665935735  0.6638501101971176  0.4187829792225272  1.0000
  C   C20       1.0  0.3278731721275675  0.33614996734223723  0.5812146956029379  1.0000
  C   C21       1.0  0.6502740357039158  0.6284525713235001  0.4982840813784575  1.0000
  C   C22       1.0  0.3497275223522678  0.37154939352620175  0.5017145046090474  1.0000
  C   C23       1.0  0.5251596311410226  0.6019338175810489  0.5376060963228395  1.0000
  C   C24       1.0  0.4748430791975267  0.39806625446758653  0.46239307220211134  1.0000
  C   C25       1.0  0.41874629620703974  0.6169285789589621  0.49959211104943063  1.0000
  C   C26       1.0  0.5812546045433534  0.38306960685133623  0.5004062798256114  1.0000
  C   C27       1.0  0.43922994335696325  0.6530433425566002  0.4202723387854163  1.0000
  C   C28       1.0  0.560772824941921  0.34695610040311214  0.5797262858788415  1.0000
  C   C29       1.0  0.5668735411257657  0.6739926628061426  0.37907066450286186  1.0000
  C   C30       1.0  0.43312829784327506  0.3260061532522158  0.6209269629049173  1.0000
  C   C31       1.0  0.8110005711555954  0.6827499632799744  0.37691830411310423  1.0000
  C   C32       1.0  0.18900219714329583  0.317249479679738  0.6230803205511535  1.0000
  C   C33       1.0  0.5097522432764306  0.5513488023373653  0.6169535354853507  1.0000
  C   C34       1.0  0.49024930589094856  0.4486531591656231  0.38304681122588835  1.0000
  C   C35       1.0  0.32505097168733943  0.6635325852418109  0.3794762936176282  1.0000
  C   C36       1.0  0.6749495872269264  0.33646937733318066  0.6205241866057347  1.0000
  C   C37       1.0  0.8591751095721065  0.48186461574213985  0.2208678252939079  1.0000
  C   C38       1.0  0.14082368882553453  0.5181348281588711  0.7791330941425938  1.0000
  C   C39       1.0  0.8677960686316265  0.3950454261830886  0.2166576550388228  1.0000
  C   C40       1.0  0.13220371113032306  0.6049540132992066  0.7833448916092818  1.0000
  C   C41       1.0  0.9536507140661427  0.35991348416103364  0.15030590920698467  1.0000
  C   C42       1.0  0.04634813636595678  0.6400853284199146  0.8496956401846486  1.0000
  C   C43       1.0  0.029589762844494803  0.41441811960953595  0.09162042781832005  1.0000
  C   C44       1.0  0.970405135463977  0.5855807006061439  0.9083798948980826  1.0000
  C   C45       1.0  0.013643589774098103  0.5005592399883056  0.10005624589749827  1.0000
  C   C46       1.0  0.9863521917556213  0.499440840679938  0.899943270304426  1.0000
  C   C47       1.0  0.9651437389636044  0.2701711643388265  0.13797819152087948  1.0000
  C   C48       1.0  0.034854017146464904  0.7298289119542644  0.8620222314726147  1.0000
  C   C49       1.0  0.8371207710609523  0.08419261196395672  0.21013540653836316  1.0000
  C   C50       1.0  0.16287903240446863  0.9158068364429115  0.7898624448464555  1.0000
  C   C51       1.0  0.8416829083139135  0.9956348871678246  0.1940694190363033  1.0000
  C   C52       1.0  0.1583178735528818  0.004364555704746901  0.8059306464680274  1.0000
  C   C53       1.0  0.7570033377769008  0.9408054122532762  0.24699900926832893  1.0000
  C   C54       1.0  0.24299535358888133  0.0591952931723014  0.7530012371658186  1.0000
  C   C55       1.0  0.7638160264163643  0.856054177434487  0.23242776715325417  1.0000
  C   C56       1.0  0.23618365223958904  0.1439465258035142  0.7675729326766783  1.0000
  C   C57       1.0  0.9284271452208585  0.876394054131538  0.11680625037207183  1.0000
  C   C58       1.0  0.07157165613971729  0.1236053908850536  0.8831940821565138  1.0000
  C   C59       1.0  0.9282674883434011  0.9617597346709204  0.1269573484291796  1.0000
  C   C60       1.0  0.0717343878454315  0.038238444489508104  0.8730438434732972  1.0000
  C   C61       1.0  0.9948551094628542  0.5003693415159063  0.39928701679716727  1.0000
  C   C62       1.0  0.005146604696719207  0.4996307293735854  0.6007134590557327  1.0000
  C   C63       1.0  0.9898536513623525  0.4136207750998934  0.4148534479828354  1.0000
  C   C64       1.0  0.010148056871351193  0.5863792935584586  0.5851482016858823  1.0000
  C   C65       1.0  0.06886261130737381  0.3611309316825242  0.35876095574845107  1.0000
  C   C66       1.0  0.9311400321820427  0.6388697661083215  0.6412405173609271  1.0000
  C   C67       1.0  0.1491461192123467  0.3987198062416225  0.2890736964462305  1.0000
  C   C68       1.0  0.8508576304508465  0.6012796322993592  0.7109265554296299  1.0000
  C   C69       1.0  0.14723451563433088  0.48590233108602393  0.2781084101942709  1.0000
  C   C70       1.0  0.8527662082721365  0.514097740875478  0.7218921991707531  1.0000
  C   C71       1.0  0.06206768172209821  0.27009904029079473  0.3737383497003889  1.0000
  C   C72       1.0  0.9379330912558926  0.7299003992350707  0.6262634765276757  1.0000
  C   C73       1.0  0.1538151186161159  0.08961843477663929  0.28353922944049964  1.0000
  C   C74       1.0  0.8461825186103554  0.9103828985787319  0.7164628681822902  1.0000
  C   C75       1.0  0.13820679707345107  0.9990811189283237  0.29186755905323025  1.0000
  C   C76       1.0  0.8617899137861115  0.0009195886412741002  0.7081329544051653  1.0000
  C   C77       1.0  0.06238843545915531  0.9580518750893887  0.3615504490785567  1.0000
  C   C78       1.0  0.9376123375188355  0.0419475644364695  0.6384513771495077  1.0000
  C   C79       1.0  0.05002047960046952  0.8718324395304647  0.36385179130695616  1.0000
  C   C80       1.0  0.9499793670106127  0.12816637420962002  0.636148450756721  1.0000
  C   C81       1.0  0.181362149481771  0.863936561112574  0.23499825167388616  1.0000
  C   C82       1.0  0.8186354995964321  0.1360647767050835  0.7650014983172537  1.0000
  C   C83       1.0  0.19859279055138052  0.950055128202763  0.2276619484888087  1.0000
  C   C84       1.0  0.8014059558118021  0.049944947018317996  0.7723383409925615  1.0000
  N   N1        1.0  0.9289276104640292  0.5340715216939529  0.1630588153461261  1.0000
  N   N2        1.0  0.07107119385948124  0.4659279244382049  0.8369409302745506  1.0000
  N   N3        1.0  0.8958662545424615  0.2169882429809746  0.18921461899697076  1.0000
  N   N4        1.0  0.1041345763958645  0.7830105674559604  0.8107866633704075  1.0000
  N   N5        1.0  0.9179387482194555  0.1355684648308397  0.16471258092787616  1.0000
  N   N6        1.0  0.08206307889785337  0.8644303467652321  0.835287394111553  1.0000
  N   N7        1.0  0.8485858404247182  0.8240588312157302  0.1690381695410465  1.0000
  N   N8        1.0  0.15141301297032325  0.17593998248078443  0.8309627929426779  1.0000
  N   N9        1.0  0.0720114413309858  0.5360259052387445  0.33223616134732475  1.0000
  N   N10       1.0  0.9279893925702751  0.4639729063137566  0.6677645341121374  1.0000
  N   N11       1.0  0.12839788115005749  0.22050474349418892  0.32088291587594137  1.0000
  N   N12       1.0  0.8716038270836534  0.7794953251641629  0.6791187337927835  1.0000
  N   N13       1.0  0.10576683518425511  0.13640077959856714  0.3427350317101484  1.0000
  N   N14       1.0  0.8942318502556574  0.8635999235958778  0.6572663885398169  1.0000
  N   N15       1.0  0.10801963950309806  0.8254950186874553  0.3015731376033911  1.0000
  N   N16       1.0  0.8919789968652838  0.17450631694262603  0.6984270657835336  1.0000
  O   O1        1.0  0.07448878546674112  0.6940265468708234  0.055595844548967883  1.0000
  O   O2        1.0  0.925511064107276  0.3059722679848349  0.9444038106068005  1.0000
  O   O3        1.0  0.1278049403495203  0.6928459787640193  0.17562591199049382  1.0000
  O   O4        1.0  0.8721957315224813  0.3071547245175524  0.8243740674193982  1.0000
  O   O5        1.0  0.6298605501717203  0.6570968261101414  0.1765258933716964  1.0000
  O   O6        1.0  0.3701411178792569  0.34290387833056707  0.8234727787102468  1.0000
  O   O7        1.0  0.7613467885500709  0.6814214685070682  0.054596056558608594  1.0000
  O   O8        1.0  0.2386539442452005  0.31857860680114664  0.9454027920826813  1.0000
  O   O9        1.0  0.5988440379682628  0.5215437506504373  0.8489880091236016  1.0000
  O   O10       1.0  0.4011565327977421  0.47845821638684083  0.15101012346811868  1.0000
  O   O11       1.0  0.3807015037083233  0.5338193132480599  0.8530660087123959  1.0000
  O   O12       1.0  0.6192981838364346  0.4661813933366545  0.14693293039379535  1.0000
  O   O13       1.0  0.8463369459684174  0.6810912910658262  0.3001144031596325  1.0000
  O   O14       1.0  0.15366702961024  0.31890562888831653  0.6998848470892935  1.0000
  O   O15       1.0  0.8922805018413059  0.6959394537363651  0.4198848621211225  1.0000
  O   O16       1.0  0.10771989800664271  0.3040644016832701  0.5801143151447616  1.0000
  O   O17       1.0  0.6133957121654489  0.5349692171776113  0.6456706427205247  1.0000
  O   O18       1.0  0.38660810730981854  0.4650295967367341  0.35432671766300666  1.0000
  O   O19       1.0  0.3974649680853587  0.5232150059056268  0.6510191892953896  1.0000
  O   O20       1.0  0.6025351999212559  0.4767913658697083  0.3489821634132466  1.0000
  O   O21       1.0  0.20983159734475268  0.6789958170139485  0.42178348980375785  1.0000
  O   O22       1.0  0.7901708870783394  0.3210067736215336  0.5782166803481272  1.0000
  O   O23       1.0  0.3457200497260544  0.6566295327313227  0.3026586464280213  1.0000
  O   O24       1.0  0.6542785866423274  0.3433718028987586  0.6973415569589034  1.0000
