data_image0
_chemical_formula_structural       Zn4H40C60N4O18
_chemical_formula_sum              "Zn4 H40 C60 N4 O18"
_cell_length_a       11.289072869947272
_cell_length_b       11.646172449827949
_cell_length_c       12.133171104960239
_cell_angle_alpha    93.10013860615193
_cell_angle_beta     107.55836499134442
_cell_angle_gamma    94.1467867239078

_space_group_name_H-M_alt    "P 1"
_space_group_IT_number       1

loop_
  _space_group_symop_operation_xyz
  'x, y, z'

loop_
  _atom_site_type_symbol
  _atom_site_label
  _atom_site_symmetry_multiplicity
  _atom_site_fract_x
  _atom_site_fract_y
  _atom_site_fract_z
  _atom_site_occupancy
  Zn  Zn1       1.0  0.2263828475864429  0.05157847188694121  0.5539326202892099  1.0000
  Zn  Zn2       1.0  0.7736188376635483  0.9484216489828514  0.4460657240368562  1.0000
  Zn  Zn3       1.0  0.9674271717993078  0.3281011609475328  0.4356203132146205  1.0000
  Zn  Zn4       1.0  0.03256817945536032  0.6719006929033571  0.5643779716972617  1.0000
  H   H1        1.0  0.7949284592832059  0.6889700651608592  0.08353687086292183  1.0000
  H   H2        1.0  0.20507252122629896  0.3110231581270497  0.9164592252112981  1.0000
  H   H3        1.0  0.9421439746691717  0.56222624145731  0.027236663162575746  1.0000
  H   H4        1.0  0.0578630719142126  0.43776342942653923  0.9727724981656678  1.0000
  H   H5        1.0  0.1578794792145786  0.5604180354125461  0.1632469789899247  1.0000
  H   H6        1.0  0.842126101514765  0.4395759009879043  0.8367702526177326  1.0000
  H   H7        1.0  0.44726284925859255  0.2756188070942045  0.41586226269311055  1.0000
  H   H8        1.0  0.5527334641891315  0.7243830788514882  0.5841313534249082  1.0000
  H   H9        1.0  0.5553689846453905  0.42629608904822197  0.3337368353860198  1.0000
  H   H10       1.0  0.4446266739752289  0.5737083960299998  0.6662559198174733  1.0000
  H   H11       1.0  0.4727459360248787  0.6201568436121079  0.306427016862159  1.0000
  H   H12       1.0  0.5272536619026268  0.37985017646224867  0.6935736030459552  1.0000
  H   H13       1.0  0.8568333029207336  0.39140445897493953  0.18941829380501926  1.0000
  H   H14       1.0  0.1431647620339476  0.6085965411342046  0.810578243725182  1.0000
  H   H15       1.0  0.7864187609533319  0.2858082534139896  0.9915884788943146  1.0000
  H   H16       1.0  0.21358621446083256  0.7141875624624704  0.008407258913131037  1.0000
  H   H17       1.0  0.9423749086658759  0.9862321075102471  0.15336188169567322  1.0000
  H   H18       1.0  0.05762757701756271  0.013767106946666302  0.846642408242154  1.0000
  H   H19       1.0  0.9983363707088061  0.0991756559886028  0.34128435125582257  1.0000
  H   H20       1.0  0.0016664840242058487  0.9008270245369803  0.6587185959165041  1.0000
  H   H21       1.0  0.8833080866691105  0.07680431643425581  0.890964865377505  1.0000
  H   H22       1.0  0.1166933918169875  0.9231940483642377  0.10903743951986662  1.0000
  H   H23       1.0  0.7289947484196232  0.0926436638015815  0.8856877997430814  1.0000
  H   H24       1.0  0.2710094270871579  0.9073538299774387  0.11431522466402554  1.0000
  H   H25       1.0  0.7316634588158453  0.9106481865042754  0.9977142807965863  1.0000
  H   H26       1.0  0.26834082285277105  0.0893501881900107  0.0022863521762985844  1.0000
  H   H27       1.0  0.8806672714116458  0.8917150652728624  0.9852115413539763  1.0000
  H   H28       1.0  0.1193350686654497  0.1082824564644014  0.014787663886622207  1.0000
  H   H29       1.0  0.7236627792949478  0.7683337500116992  0.835308709455127  1.0000
  H   H30       1.0  0.2763359182477317  0.2316646279279553  0.1646919781781619  1.0000
  H   H31       1.0  0.7980536676744094  0.872746463012881  0.7709892231324531  1.0000
  H   H32       1.0  0.20194848231812304  0.1272493199308116  0.2290114757880275  1.0000
  H   H33       1.0  0.6889513243383263  0.027981293678010406  0.6695614275652487  1.0000
  H   H34       1.0  0.3110485760460406  0.9720196784728824  0.3304389291314749  1.0000
  H   H35       1.0  0.48473771753111805  0.10057709293951687  0.5740476842224496  1.0000
  H   H36       1.0  0.5152630222051471  0.8994230131131857  0.4259528620060565  1.0000
  H   H37       1.0  0.2967443809998258  0.8611428244948415  0.7167998699406368  1.0000
  H   H38       1.0  0.7032580429999982  0.1388555551207347  0.28320023305429487  1.0000
  H   H39       1.0  0.49599710956147897  0.7847967148236423  0.8280041950273827  1.0000
  H   H40       1.0  0.5040063494345759  0.21520254324656207  0.17199378152230338  1.0000
  C   C1        1.0  0.1381028375966409  0.6970962892144215  0.280956795126869  1.0000
  C   C2        1.0  0.8618962684401268  0.3029063665982719  0.7190500258723844  1.0000
  C   C3        1.0  0.0573827666535465  0.774212216277526  0.30738725895106  1.0000
  C   C4        1.0  0.942613301111848  0.2257878732821794  0.6926160738182504  1.0000
  C   C5        1.0  0.9326135640271573  0.767424151977444  0.2359212987461561  1.0000
  C   C6        1.0  0.0673849601102887  0.23257250444635966  0.7640784156756055  1.0000
  C   C7        1.0  0.8926166874539946  0.6913633788663348  0.1356047005034213  1.0000
  C   C8        1.0  0.10738442198253041  0.30863151986348925  0.8643989471594437  1.0000
  C   C9        1.0  0.9738687911757042  0.6200426280525235  0.10621004459704862  1.0000
  C   C10       1.0  0.026134069767778094  0.3799513848407442  0.8937965244779988  1.0000
  C   C11       1.0  0.0948107926781887  0.6204676667876825  0.18095339063920327  1.0000
  C   C12       1.0  0.905191469562027  0.37952977432020424  0.8190573267613459  1.0000
  C   C13       1.0  0.26915285133372174  0.6910625929555323  0.3570546896295497  1.0000
  C   C14       1.0  0.730849840988995  0.30894782245391644  0.642954427748542  1.0000
  C   C15       1.0  0.3159608241823264  0.5731196523785087  0.3664732006464533  1.0000
  C   C16       1.0  0.6840367987949917  0.4268864801833773  0.6335309253122006  1.0000
  C   C17       1.0  0.2536269699800542  0.48677382938424785  0.41113801105502285  1.0000
  C   C18       1.0  0.7463724323031117  0.5132314461372971  0.5888649248301192  1.0000
  C   C19       1.0  0.30071713675445727  0.3784251399986048  0.42785867436810326  1.0000
  C   C20       1.0  0.699281196647739  0.6215784510231757  0.5721380895336878  1.0000
  C   C21       1.0  0.4090592977121049  0.3582509828028152  0.39853360176519464  1.0000
  C   C22       1.0  0.590938218577307  0.6417534973541166  0.6014596834162589  1.0000
  C   C23       1.0  0.4696940197529427  0.44317036565803386  0.3531068246166242  1.0000
  C   C24       1.0  0.5303037371850932  0.5568366766153333  0.6468907984221134  1.0000
  C   C25       1.0  0.4239442510464998  0.5513357475607279  0.3381247286707706  1.0000
  C   C26       1.0  0.5760544124868332  0.4486712692150263  0.6618764485455061  1.0000
  C   C27       1.0  0.10369298450890341  0.8574293326372598  0.4146835521564327  1.0000
  C   C28       1.0  0.8963024339891562  0.14257336181420752  0.5853180974011991  1.0000
  C   C29       1.0  0.8357711256386722  0.8335965430922345  0.26814276994424807  1.0000
  C   C30       1.0  0.1642238954848665  0.16640188500467454  0.7318511016531488  1.0000
  C   C31       1.0  0.14437066102281187  0.5224786395279964  0.44725335955345713  1.0000
  C   C32       1.0  0.8556277563021129  0.4775258093720893  0.5527443021026671  1.0000
  C   C33       1.0  0.2415921808416428  0.28560298116248367  0.4810814768522391  1.0000
  C   C34       1.0  0.758405067000254  0.7143989080818115  0.5189115819576244  1.0000
  C   C35       1.0  0.8725530701527761  0.3010611631933031  0.17610226356922712  1.0000
  C   C36       1.0  0.12744648898090113  0.6989363716851287  0.8238953244072887  1.0000
  C   C37       1.0  0.8351826918289265  0.24196524348381127  0.06701536342268359  1.0000
  C   C38       1.0  0.16482124858900696  0.75802969393802  0.9329825008300004  1.0000
  C   C39       1.0  0.8584574607852176  0.12579441636397354  0.054381274087447244  1.0000
  C   C40       1.0  0.14154572420354578  0.874202245034354  0.9456172983877947  1.0000
  C   C41       1.0  0.9213273564825073  0.0757900695388187  0.15526531089505366  1.0000
  C   C42       1.0  0.07867422816542564  0.9242091761749409  0.8447346025680957  1.0000
  C   C43       1.0  0.9542142730411881  0.13909863616822804  0.261995507793891  1.0000
  C   C44       1.0  0.04578637165278822  0.8609006004876961  0.7380057852745524  1.0000
  C   C45       1.0  0.8147923072273714  0.0583756276628336  0.9377599232051922  1.0000
  C   C46       1.0  0.1852108666418388  0.9416210222170064  0.06224029386432053  1.0000
  C   C47       1.0  0.7922112333943759  0.9277430376652661  0.9430742983456141  1.0000
  C   C48       1.0  0.20779230396463083  0.0722570725239962  0.05692539825555092  1.0000
  C   C49       1.0  0.7343223329520541  0.8610081973657272  0.8233173406963843  1.0000
  C   C50       1.0  0.26567915665359715  0.13899017895124635  0.17668331960670258  1.0000
  C   C51       1.0  0.6104875042944329  0.9005725513420659  0.7586909253001437  1.0000
  C   C52       1.0  0.38951399643076473  0.0994258364933955  0.24130809040866555  1.0000
  C   C53       1.0  0.6050759737656364  0.9896942219088416  0.6850449008832982  1.0000
  C   C54       1.0  0.3949257898473064  0.0103067510800088  0.3149551634942398  1.0000
  C   C55       1.0  0.4910780142349225  0.029482858529888707  0.6295211904711024  1.0000
  C   C56       1.0  0.5089217127442112  0.9705163921051537  0.37047819301408685  1.0000
  C   C57       1.0  0.38648454439864116  0.8966211989366785  0.7111596578722867  1.0000
  C   C58       1.0  0.613515926890109  0.10337631620338783  0.2888406619846293  1.0000
  C   C59       1.0  0.49770813002272973  0.8544733054267015  0.7718292350633149  1.0000
  C   C60       1.0  0.5022934601849798  0.1455259460462983  0.22816985610269563  1.0000
  N   N1        1.0  0.9295447829028306  0.24970426004195906  0.27260509843983993  1.0000
  N   N2        1.0  0.07045511748153638  0.7502967121089338  0.7273952582568839  1.0000
  N   N3        1.0  0.38325747462022963  0.9831292911287197  0.6412805178326481  1.0000
  N   N4        1.0  0.6167432595562586  0.016870809164750304  0.35872085069299686  1.0000
  O   O1        1.0  0.1050520172210554  0.8241858020218445  0.5125086724886927  1.0000
  O   O2        1.0  0.8949416386505007  0.1758177667476915  0.48749170025104155  1.0000
  O   O3        1.0  0.14774531566011723  0.958334238691407  0.4015051596461987  1.0000
  O   O4        1.0  0.8522463986199182  0.0416684771211138  0.5984937853612421  1.0000
  O   O5        1.0  0.8826923809202044  0.9098456093898265  0.3561177677653689  1.0000
  O   O6        1.0  0.1172970616371742  0.09015282771169102  0.6438753361953005  1.0000
  O   O7        1.0  0.7233686953273306  0.8115945630292675  0.21328589796823405  1.0000
  O   O8        1.0  0.27662857475367986  0.18840734925199604  0.7867038716530672  1.0000
  O   O9        1.0  0.3368640271684384  0.7769008304474809  0.4093513417434593  1.0000
  O   O10       1.0  0.6631343623575958  0.22310358965639668  0.5906504313983731  1.0000
  O   O11       1.0  0.03357711409554302  0.48856351147654925  0.387041396655718  1.0000
  O   O12       1.0  0.9664226968063261  0.5114365970367984  0.6129588845838114  1.0000
  O   O13       1.0  0.1749402878886954  0.5964243213849798  0.5351735807285465  1.0000
  O   O14       1.0  0.8250567309502088  0.4035757887510485  0.4648267278411851  1.0000
  O   O15       1.0  0.14793393613716432  0.3043904565318485  0.5147840782147597  1.0000
  O   O16       1.0  0.8520632894656329  0.695611409675479  0.4852122697836592  1.0000
  O   O17       1.0  0.292316452774493  0.19044307204056574  0.49132082890425727  1.0000
  O   O18       1.0  0.7076701693949659  0.8095545663977504  0.5086631816608715  1.0000
