data_image0
_chemical_formula_structural       Cu2H30C26N4O8
_chemical_formula_sum              "Cu2 H30 C26 N4 O8"
_cell_length_a       7.581506077124479
_cell_length_b       8.12321138709428
_cell_length_c       11.089154588723321
_cell_angle_alpha    97.38303765311215
_cell_angle_beta     90.57960285393881
_cell_angle_gamma    104.73074050684514

_space_group_name_H-M_alt    "P 1"
_space_group_IT_number       1

loop_
  _space_group_symop_operation_xyz
  'x, y, z'

loop_
  _atom_site_type_symbol
  _atom_site_label
  _atom_site_symmetry_multiplicity
  _atom_site_fract_x
  _atom_site_fract_y
  _atom_site_fract_z
  _atom_site_occupancy
  Cu  Cu1       1.0  0.40311771846732813  0.44232609400918926  0.08871804790597082  1.0000
  Cu  Cu2       1.0  0.5968842908851  0.5576828809268761  0.9112829506893689  1.0000
  H   H1        1.0  0.7395811916393952  0.4420660579327631  0.2982595066626672  1.0000
  H   H2        1.0  0.2604232052913957  0.5579417284211274  0.7017531167282415  1.0000
  H   H3        1.0  0.017966843388087732  0.46092627886098825  0.18182079727318276  1.0000
  H   H4        1.0  0.982020877806988  0.5390738396977853  0.8181874646532138  1.0000
  H   H5        1.0  0.9339696496850249  0.19868951404161084  0.5016698504872039  1.0000
  H   H6        1.0  0.066025050793634  0.801288604806416  0.49832652774303926  1.0000
  H   H7        1.0  0.227020369834058  0.11958067065486228  0.4613082874799802  1.0000
  H   H8        1.0  0.7729729273775161  0.8803973706414893  0.5386790604976569  1.0000
  H   H9        1.0  0.40146073025798756  0.21568169446155136  0.28060231636348487  1.0000
  H   H10       1.0  0.5985327131537019  0.7843156777853795  0.7193903873301863  1.0000
  H   H11       1.0  0.5793283812995111  0.4235199180480222  0.4663127027609022  1.0000
  H   H12       1.0  0.42066765923369337  0.5764673436246427  0.5336998378694845  1.0000
  H   H13       1.0  0.7742217663515375  0.4141130319336809  0.5500178150338257  1.0000
  H   H14       1.0  0.22577830033187507  0.5858793128852184  0.4499906908638778  1.0000
  H   H15       1.0  0.5600331609956655  0.23182759903133388  0.6764731929264942  1.0000
  H   H16       1.0  0.4399700968160402  0.7681621140775406  0.3235305776002022  1.0000
  H   H17       1.0  0.6074515523315753  0.0652892811877663  0.29646664907036074  1.0000
  H   H18       1.0  0.3925498229344129  0.934703048471654  0.7035409584225719  1.0000
  H   H19       1.0  0.7337780156997195  0.0547134321397138  0.08238289638151741  1.0000
  H   H20       1.0  0.2661965681540224  0.9452675997743967  0.9176389225339465  1.0000
  H   H21       1.0  0.9085552514028946  0.1718164379306657  0.994306703835399  1.0000
  H   H22       1.0  0.09141402925909152  0.8281645871950616  0.005711487857432528  1.0000
  H   H23       1.0  0.7130058052799838  0.0196016941156856  0.9212457570432309  1.0000
  H   H24       1.0  0.28695630961910723  0.9803961178132641  0.07877663181194096  1.0000
  H   H25       1.0  0.9290698469351637  0.9343722559860838  0.22508472564171467  1.0000
  H   H26       1.0  0.0709849331531771  0.06565665235442002  0.7748776865049294  1.0000
  H   H27       1.0  0.0204476059103485  0.7574562540345086  0.23695314398380427  1.0000
  H   H28       1.0  0.9795797687229351  0.24255479153936224  0.7630084547367062  1.0000
  H   H29       1.0  0.8516194633079406  0.8001477382799321  0.34028503832691837  1.0000
  H   H30       1.0  0.1484172778572557  0.1998825911261832  0.6596819455127233  1.0000
  C   C1        1.0  0.057886533588302286  0.3839943471126971  0.2459620748121339  1.0000
  C   C2        1.0  0.9421047460447839  0.6160044328518454  0.7540424718215919  1.0000
  C   C3        1.0  0.9466818717457457  0.3339467212843985  0.3436762728254977  1.0000
  C   C4        1.0  0.05330807348171622  0.6660520485547677  0.6563264643973526  1.0000
  C   C5        1.0  0.012226287700002619  0.2391118163971058  0.42411611279928263  1.0000
  C   C6        1.0  0.9877663637281983  0.7608778831349953  0.5758804032821345  1.0000
  C   C7        1.0  0.17539156859903218  0.1950923068911621  0.4017213276028073  1.0000
  C   C8        1.0  0.8246029567672083  0.8048947676621128  0.5982704489071653  1.0000
  C   C9        1.0  0.27417388205275006  0.24854488702587219  0.30236822243522  1.0000
  C   C10       1.0  0.7258201525374586  0.7514499006865663  0.697623347907424  1.0000
  C   C11       1.0  0.6851020463464437  0.3530159274109367  0.4686881042932571  1.0000
  C   C12       1.0  0.3148976702426225  0.6469751411487367  0.5313211867365342  1.0000
  C   C13       1.0  0.5944915510862074  0.16839204961816992  0.4840807218160422  1.0000
  C   C14       1.0  0.40551472563109314  0.8315989600006902  0.5159258824003176  1.0000
  C   C15       1.0  0.5346071198142396  0.13033605507195742  0.5988162481684897  1.0000
  C   C16       1.0  0.4653931535226192  0.8696523952400668  0.4011882990894052  1.0000
  C   C17       1.0  0.5604246519493967  0.03621832534552281  0.3859135301514698  1.0000
  C   C18       1.0  0.4395776645894571  0.9637726960386247  0.6140921588583412  1.0000
  C   C19       1.0  0.6615780564858652  0.2565235464727706  2.5405100721799673e-05  1.0000
  C   C20       1.0  0.33839934837948965  0.7434711118697024  2.1200252789076835e-06  1.0000
  C   C21       1.0  0.7612443020347115  0.11763099345442642  0.0005730007983331045  1.0000
  C   C22       1.0  0.2387262239973111  0.8823590817847916  0.9994514246372505  1.0000
  C   C23       1.0  0.7481187673493392  0.6890323616311564  0.15799535848105256  1.0000
  C   C24       1.0  0.25190953114190506  0.3110006432663183  0.8419781491382637  1.0000
  C   C25       1.0  0.8955139273770029  0.8023638514437722  0.24683021226709914  1.0000
  C   C26       1.0  0.10452375506105231  0.1976651696870704  0.7531348530894277  1.0000
  N   N1        1.0  0.21655299661441768  0.3436750062933385  0.22734118191295494  1.0000
  N   N2        1.0  0.7834413162499131  0.6563301145230013  0.7726558328399167  1.0000
  N   N3        1.0  0.7852535763699179  0.377463482784826  0.3596119430890212  1.0000
  N   N4        1.0  0.21473978950358236  0.6225379103932696  0.6403982583227048  1.0000
  O   O1        1.0  0.5425231380503774  0.26297510517804307  0.0799871334697642  1.0000
  O   O2        1.0  0.4574325775762916  0.737004668858937  0.920027288324633  1.0000
  O   O3        1.0  0.7033973820678766  0.3568556457839093  0.9191232622719527  1.0000
  O   O4        1.0  0.29660608212869016  0.643157554059279  0.08091780337229443  1.0000
  O   O5        1.0  0.6126303291655759  0.589097468040464  0.20219886397097045  1.0000
  O   O6        1.0  0.3874147829838464  0.4109200550492602  0.7977778142039613  1.0000
  O   O7        1.0  0.7710922551065309  0.7007331467315084  0.045909370287198235  1.0000
  O   O8        1.0  0.22891867021952092  0.2993037980368811  0.9540635283400791  1.0000
