data_image0
_chemical_formula_structural       Zn6P4H24C28N4O20
_chemical_formula_sum              "Zn6 P4 H24 C28 N4 O20"
_cell_length_a       5.642812978774955
_cell_length_b       11.320332975986748
_cell_length_c       16.26839983014417
_cell_angle_alpha    72.19922157169783
_cell_angle_beta     80.01134825155629
_cell_angle_gamma    75.56069155587143

_space_group_name_H-M_alt    "P 1"
_space_group_IT_number       1

loop_
  _space_group_symop_operation_xyz
  'x, y, z'

loop_
  _atom_site_type_symbol
  _atom_site_label
  _atom_site_symmetry_multiplicity
  _atom_site_fract_x
  _atom_site_fract_y
  _atom_site_fract_z
  _atom_site_occupancy
  Zn  Zn1       1.0  0.13219158512676202  0.5125005183120948  0.5229316846285528  1.0000
  Zn  Zn2       1.0  0.8323322831050676  0.012664378095422497  0.0229003731816917  1.0000
  Zn  Zn3       1.0  0.8150470986810773  0.8963801665279261  0.6480590490334777  1.0000
  Zn  Zn4       1.0  0.6401347737992326  0.3962753026346773  0.1480935504923124  1.0000
  Zn  Zn5       1.0  0.29818034750686456  0.12773166963351906  0.3887930074278145  1.0000
  Zn  Zn6       1.0  0.18518146237583002  0.627617593833186  0.8888276696428576  1.0000
  P   P1        1.0  0.3118433447126848  0.9432413816863413  0.5733986081120435  1.0000
  P   P2        1.0  0.1711199078248312  0.4431013253087882  0.07342243742711932  1.0000
  P   P3        1.0  0.7681543744867197  0.2127335396027945  0.32893646888799566  1.0000
  P   P4        1.0  0.6901684141740032  0.7128315832979765  0.8289489736548602  1.0000
  H   H1        1.0  0.8407014331029999  0.5502862344068477  0.6912116170068856  1.0000
  H   H2        1.0  0.9178007287678654  0.050166295202338104  0.19121532248926343  1.0000
  H   H3        1.0  0.5386129666996949  0.44986525473380806  0.799181115190926  1.0000
  H   H4        1.0  0.21260312111387222  0.9498162239917108  0.2991085332295071  1.0000
  H   H5        1.0  0.6824727871612093  0.15663962290317096  0.6653429241655927  1.0000
  H   H6        1.0  0.49644998064518114  0.6568330245215462  0.1650454705344728  1.0000
  H   H7        1.0  0.994158312139511  0.2640817532494069  0.5674412008814258  1.0000
  H   H8        1.0  0.17498727748764512  0.7642110933409609  0.06722355268351517  1.0000
  H   H9        1.0  0.18569277642510681  0.39819856277312476  0.8465799025687771  1.0000
  H   H10       1.0  0.5695924269260074  0.8982049507926887  0.34657428733768103  1.0000
  H   H11       1.0  0.8980532203882773  0.28352284600281047  0.9536551619486389  1.0000
  H   H12       1.0  0.8639682121447122  0.7833262649691546  0.45392769418808143  1.0000
  H   H13       1.0  0.19470165219597418  0.9516238578435574  0.8804251820053394  1.0000
  H   H14       1.0  0.9737216697722745  0.45161624549688645  0.3802981435537021  1.0000
  H   H15       1.0  0.5108484459374054  0.0461785143258737  0.77664378407637  1.0000
  H   H16       1.0  0.6670298584639412  0.54629298652997  0.27643942937898197  1.0000
  H   H17       1.0  0.5696008375583971  0.7336398558878726  0.5910599639628131  1.0000
  H   H18       1.0  0.10508842155503118  0.23348266696176984  0.09118311310324148  1.0000
  H   H19       1.0  0.36736158674873587  0.7462715776866202  0.685935272562766  1.0000
  H   H20       1.0  0.20020740612069687  0.24610397356556032  0.18596405400418092  1.0000
  H   H21       1.0  0.7170337026086814  0.13170216956804376  0.4842800313020064  1.0000
  H   H22       1.0  0.6672276005620928  0.631873891465595  0.9843140625791803  1.0000
  H   H23       1.0  0.8390726242214728  0.27230584767163885  0.4516904163691748  1.0000
  H   H24       1.0  0.43705788625283754  0.7724604387658327  0.9516058882063234  1.0000
  C   C1        1.0  0.7993799412617478  0.46319781605142646  0.6875442100124616  1.0000
  C   C2        1.0  0.04996958431278385  0.9631024981885544  0.1875055511009265  1.0000
  C   C3        1.0  0.6269780550340723  0.40569218832838755  0.7478318325454154  1.0000
  C   C4        1.0  0.21971866373867482  0.905661214797753  0.24774833294358697  1.0000
  C   C5        1.0  0.5732709299910467  0.29440360502922397  0.7413067171779346  1.0000
  C   C6        1.0  0.39144239779914586  0.7944257224549672  0.2411935487287806  1.0000
  C   C7        1.0  0.7101876434174629  0.24289446525483527  0.6750476575045781  1.0000
  C   C8        1.0  0.3725909501394328  0.7429964913752016  0.17485980527439443  1.0000
  C   C9        1.0  0.8836317785705887  0.3038474048148814  0.6182884530857464  1.0000
  C   C10       1.0  0.19477769299573564  0.8039141028514932  0.11811232668392792  1.0000
  C   C11       1.0  0.3836789682513525  0.2327913472857972  0.8021230072396578  1.0000
  C   C12       1.0  0.5817866687277303  0.7327998992074923  0.3020611077281998  1.0000
  C   C13       1.0  0.20215489264567302  0.2982874987302892  0.8525631554618514  1.0000
  C   C14       1.0  0.6470246319631696  0.7982867297484688  0.352594281999984  1.0000
  C   C15       1.0  0.03605408266589901  0.23529005212106568  0.9123162702288636  1.0000
  C   C16       1.0  0.8159484767856636  0.735140080804129  0.4124898413925493  1.0000
  C   C17       1.0  0.20355902851358834  0.049730595792347294  0.8719297774419841  1.0000
  C   C18       1.0  0.8750316281532875  0.5496960931583031  0.3718883496274045  1.0000
  C   C19       1.0  0.37830436843218973  0.10576549714822647  0.8121386976067128  1.0000
  C   C20       1.0  0.7043076451214529  0.6058088735189671  0.3120294428364545  1.0000
  C   C21       1.0  0.3800249426080598  0.7706350017338719  0.6144737920483934  1.0000
  C   C22       1.0  0.23433734775819903  0.27049888008155415  0.1145006583053672  1.0000
  C   C23       1.0  0.20977125260486673  0.7075150761594526  0.5895749781660058  1.0000
  C   C24       1.0  0.4926174190627606  0.20748905543632648  0.0895067313095055  1.0000
  C   C25       1.0  0.7018819951071721  0.2280493943640138  0.4396157184506889  1.0000
  C   C26       1.0  0.6306153784197123  0.7282013432621142  0.9396116137346835  1.0000
  C   C27       1.0  0.4479290226831264  0.3033635379893552  0.4573873101725354  1.0000
  C   C28       1.0  0.7913710867768133  0.8036291918925612  0.95725479241937  1.0000
  N   N1        1.0  0.9244964792433592  0.4143104140842623  0.6225941640723107  1.0000
  N   N2        1.0  0.038830659013313916  0.9142876279866242  0.12248921426486699  1.0000
  N   N3        1.0  0.03747100456195804  0.11200658732727216  0.9230108618372199  1.0000
  N   N4        1.0  0.9273710111595153  0.6118609842057693  0.423115292828804  1.0000
  O   O1        1.0  0.07067315779908526  0.9943799609169939  0.624356301914375  1.0000
  O   O2        1.0  0.31015425313912465  0.4942370987571749  0.12439057638528081  1.0000
  O   O3        1.0  0.5286827101637286  0.9923810391407953  0.5872656803693488  1.0000
  O   O4        1.0  0.8912503326525893  0.49227698038602336  0.08724983276805891  1.0000
  O   O5        1.0  0.28459323170682227  0.9695419073348784  0.4763898155759705  1.0000
  O   O6        1.0  0.2690911790414252  0.46934451876155237  0.9764166778349831  1.0000
  O   O7        1.0  0.9759512200797218  0.7439538277078057  0.6018461531606007  1.0000
  O   O8        1.0  0.6777446727303486  0.24395002046635736  0.10174951920512142  1.0000
  O   O9        1.0  0.31046595929801424  0.615841574985559  0.5565323565614833  1.0000
  O   O10       1.0  0.5168104023938581  0.1158660775479845  0.056403767361509004  1.0000
  O   O11       1.0  0.4313558131542124  0.3971637156190937  0.48709479911097014  1.0000
  O   O12       1.0  0.6844023939127621  0.8976818919847174  0.9867098573868133  1.0000
  O   O13       1.0  0.25955368750530294  0.27164398164548226  0.4429134948373843  1.0000
  O   O14       1.0  0.025947177462093074  0.7717552971024306  0.9428889580454937  1.0000
  O   O15       1.0  0.6887029230515863  0.3477292336587324  0.270003731977269  1.0000
  O   O16       1.0  0.693833237136829  0.8477913667777695  0.7700026219572537  1.0000
  O   O17       1.0  0.6212191324316194  0.11941378795862789  0.3209370019732346  1.0000
  O   O18       1.0  0.9382770293802241  0.6193532987250805  0.8209434614593434  1.0000
  O   O19       1.0  0.04607277247649224  0.16022377188995307  0.3135246880845841  1.0000
  O   O20       1.0  0.4798392034556188  0.6605378663281628  0.813566173476886  1.0000
