data_image0
_chemical_formula_structural       Zn4H36C32N8O16
_chemical_formula_sum              "Zn4 H36 C32 N8 O16"
_cell_length_a       9.725384798384528
_cell_length_b       15.728124228553392
_cell_length_c       15.871730593424015
_cell_angle_alpha    89.92479687618145
_cell_angle_beta     88.24495826433925
_cell_angle_gamma    87.36720640170645

_space_group_name_H-M_alt    "P 1"
_space_group_IT_number       1

loop_
  _space_group_symop_operation_xyz
  'x, y, z'

loop_
  _atom_site_type_symbol
  _atom_site_label
  _atom_site_symmetry_multiplicity
  _atom_site_fract_x
  _atom_site_fract_y
  _atom_site_fract_z
  _atom_site_occupancy
  Zn  Zn1       1.0  0.644370856685427  0.5026887772267089  0.9979587405586656  1.0000
  Zn  Zn2       1.0  0.6372676071745927  0.0005791331984638998  0.5006718932024797  1.0000
  Zn  Zn3       1.0  0.36711400170541003  0.5080435791973984  0.0004297488499034002  1.0000
  Zn  Zn4       1.0  0.360471408953039  0.010883210000209002  0.5016058583620122  1.0000
  H   H1        1.0  0.31534094419467357  0.35133469777695586  0.2250583752727948  1.0000
  H   H2        1.0  0.5975356088297802  0.7136568508629538  0.19412872328464917  1.0000
  H   H3        1.0  0.6080647567950309  0.22582894403342377  0.31673331344205746  1.0000
  H   H4        1.0  0.5719613956767803  0.18169924997231848  0.7308154880170221  1.0000
  H   H5        1.0  0.8903095498229092  0.37489204096954865  0.028977879572615  1.0000
  H   H6        1.0  0.8881461172912354  0.8733932540704287  0.5203673264483158  1.0000
  H   H7        1.0  0.09433986062236238  0.5575803231291873  0.021229880040060305  1.0000
  H   H8        1.0  0.08803985963169941  0.056642345302236684  0.5341800913411063  1.0000
  H   H9        1.0  0.2684834257220814  0.6766131146089124  0.8743400183735874  1.0000
  H   H10       1.0  0.0522902189704268  0.7337626946886572  0.8401915587790256  1.0000
  H   H11       1.0  0.12213577282339119  0.7534286601371889  0.7374950507505886  1.0000
  H   H12       1.0  0.2995497089262784  0.34566513697384954  0.7790471310748404  1.0000
  H   H13       1.0  0.12419532547210116  0.8329508841231429  0.8175091840456831  1.0000
  H   H14       1.0  0.25765252292210755  0.6783317267960243  0.1315761895566112  1.0000
  H   H15       1.0  0.04128522506000109  0.7356171601806097  0.17110719352108117  1.0000
  H   H16       1.0  0.11266539312772042  0.8339049682754904  0.19532551267958106  1.0000
  H   H17       1.0  0.10634341931005055  0.751717717869191  0.2729807163213991  1.0000
  H   H18       1.0  0.2638029631765805  0.16547868186457038  0.3582529844633484  1.0000
  H   H19       1.0  0.0506564666868385  0.21624457536438513  0.3122521610454072  1.0000
  H   H20       1.0  0.1361088710044314  0.2344726739882788  0.21353353905718114  1.0000
  H   H21       1.0  0.11612069194593035  0.31732465323388226  0.2902812876889982  1.0000
  H   H22       1.0  0.294468232463089  0.21735355101451856  0.5895793313552744  1.0000
  H   H23       1.0  0.31618011995058753  0.8602108303456999  0.7361946093365364  1.0000
  H   H24       1.0  0.1792606702821899  0.34276833920269223  0.552850793707627  1.0000
  H   H25       1.0  0.2893637657514745  0.3993022500232613  0.6176732995023075  1.0000
  H   H26       1.0  0.1333741974649598  0.3594532608926784  0.6609656671293536  1.0000
  H   H27       1.0  0.901585077113296  0.5505956246642683  0.9685949551762079  1.0000
  H   H28       1.0  0.8922307146457487  0.0539481121006062  0.47535534951726544  1.0000
  H   H29       1.0  0.1491534105418211  0.37612357010401354  0.9892189392297015  1.0000
  H   H30       1.0  0.14493598964936183  0.8822870427415451  0.474929138153506  1.0000
  H   H31       1.0  0.2980723934471428  0.8519337767078027  0.2772602590872992  1.0000
  H   H32       1.0  0.6041513279514135  0.27302283865461163  0.1825957142049575  1.0000
  H   H33       1.0  0.6136917590335428  0.31371894702333947  0.7807355627120103  1.0000
  H   H34       1.0  0.589650992228144  0.7700962766331259  0.6781479085119386  1.0000
  H   H35       1.0  0.5886868046929338  0.7788720595591271  0.3131821765801704  1.0000
  H   H36       1.0  0.6106895105030931  0.7245211166792488  0.809369066690593  1.0000
  C   C1        1.0  0.49592229313282843  0.6251313742433168  0.1160067088776131  1.0000
  C   C2        1.0  0.3987399908023691  0.31600613671285765  0.7583034649890621  1.0000
  C   C3        1.0  0.4009238576001693  0.8123185466963534  0.7388256922782048  1.0000
  C   C4        1.0  0.38821719528981197  0.8086684097370097  0.26761540309330917  1.0000
  C   C5        1.0  0.5125212481260276  0.31547598246519476  0.17960004590329254  1.0000
  C   C6        1.0  0.510293856018407  0.3370513401465658  0.8002773835706449  1.0000
  C   C7        1.0  0.5029792712859518  0.8166636637213713  0.680143187770824  1.0000
  C   C8        1.0  0.49421109488944387  0.8189126439828057  0.31850438126770814  1.0000
  C   C9        1.0  0.3930925691871536  0.7455381167757339  0.8030950685901532  1.0000
  C   C10       1.0  0.380865719951224  0.7428941597684683  0.20276338493074061  1.0000
  C   C11       1.0  0.39235058871902606  0.24029187519907683  0.2969383141045938  1.0000
  C   C12       1.0  0.5128199846523245  0.6311091674631086  0.887930019979102  1.0000
  C   C13       1.0  0.3969280854892006  0.2546697499928214  0.6888971503810171  1.0000
  C   C14       1.0  0.5111550927658469  0.7025687502445378  0.830496595047336  1.0000
  C   C15       1.0  0.49713559654149747  0.6962906780957353  0.17351309011077384  1.0000
  C   C16       1.0  0.5079186923520639  0.20074958204075702  0.331440968333304  1.0000
  C   C17       1.0  0.4927624492315061  0.1868913373730692  0.6840141594605813  1.0000
  C   C18       1.0  0.9368607578935624  0.4338260841059168  0.008063159595536704  1.0000
  C   C19       1.0  0.9320121861140438  0.9346123015805503  0.504459282230002  1.0000
  C   C20       1.0  0.08898541848775211  0.4358556564545282  0.0006808899992023001  1.0000
  C   C21       1.0  0.08363561137812073  0.939065517966597  0.49590810825573334  1.0000
  C   C22       1.0  0.13603607178698957  0.7639903528246632  0.8053138813867451  1.0000
  C   C23       1.0  0.4957451152046915  0.12158472679966077  0.6195045246763372  1.0000
  C   C24       1.0  0.12362962346288241  0.7645942009538799  0.20524412331511854  1.0000
  C   C25       1.0  0.1365999133319491  0.24836108995220482  0.2816240372823274  1.0000
  C   C26       1.0  0.22063401206538202  0.34566393523805766  0.6163205411542949  1.0000
  C   C27       1.0  0.5051893872692048  0.1287531362772043  0.3882257569385459  1.0000
  C   C28       1.0  0.5017995903882523  0.39396728999975755  0.875032356816604  1.0000
  C   C29       1.0  0.5151061788692247  0.38248714969803643  0.11338046320283723  1.0000
  C   C30       1.0  0.4917857736715092  0.8865068940823376  0.3840006266914386  1.0000
  C   C31       1.0  0.5063407521782253  0.884351521762703  0.6149681213509695  1.0000
  C   C32       1.0  0.4039501472831972  0.3071376985577245  0.23299790893405975  1.0000
  N   N1        1.0  0.8554564766804021  0.49715748363986734  0.9909212503113809  1.0000
  N   N2        1.0  0.8481298153770496  0.9982286316489422  0.4930380445767072  1.0000
  N   N3        1.0  0.15515666161639532  0.5038468663590407  0.007692992277142701  1.0000
  N   N4        1.0  0.14866636983430231  0.005946229540377599  0.511522824439588  1.0000
  N   N5        1.0  0.26563289069517276  0.7277396187598484  0.8340051214324335  1.0000
  N   N6        1.0  0.25416839526197077  0.728747407153307  0.1729326348187783  1.0000
  N   N7        1.0  0.2626067439489291  0.21854650081913013  0.3203497260911662  1.0000
  N   N8        1.0  0.2931714420131827  0.2651858335433417  0.633381640827686  1.0000
  O   O1        1.0  0.6114366373651096  0.587185873659749  0.0944324703065362  1.0000
  O   O2        1.0  0.6332926343433911  0.40050746085452726  0.0831077496206021  1.0000
  O   O3        1.0  0.607822409828131  0.914734430944307  0.4022434823753685  1.0000
  O   O4        1.0  0.6229446345659754  0.8942684189529045  0.5779036755491448  1.0000
  O   O5        1.0  0.38305538732016226  0.41665736414903887  0.9063271791291927  1.0000
  O   O6        1.0  0.399685794193772  0.4161561667381831  0.09143548334073162  1.0000
  O   O7        1.0  0.3749623435717311  0.910462545153493  0.417326257078429  1.0000
  O   O8        1.0  0.3944216872441615  0.926579499221816  0.6001570653328372  1.0000
  O   O9        1.0  0.6296354089118238  0.5999609407455253  0.911738113501599  1.0000
  O   O10       1.0  0.6058636337900438  0.07474748325875422  0.6072492042825103  1.0000
  O   O11       1.0  0.6185104652921397  0.10223963254296109  0.42118192779604163  1.0000
  O   O12       1.0  0.3782856179612181  0.6018638009874806  0.08898623114259861  1.0000
  O   O13       1.0  0.3956812694822959  0.6010209067653277  0.9125475895748352  1.0000
  O   O14       1.0  0.3852352418018158  0.11339484049469921  0.576689934830057  1.0000
  O   O15       1.0  0.3886023040813313  0.09331827113076939  0.4030218190162955  1.0000
  O   O16       1.0  0.6169473506603821  0.41574457189460645  0.9026598850617307  1.0000
