data_image0
_chemical_formula_structural       Gd4H48C56N4O32
_chemical_formula_sum              "Gd4 H48 C56 N4 O32"
_cell_length_a       5.970576457387684
_cell_length_b       8.722444450677171
_cell_length_c       31.011008800693862
_cell_angle_alpha    84.6092006438299
_cell_angle_beta     84.72455065377655
_cell_angle_gamma    70.00238490863576

_space_group_name_H-M_alt    "P 1"
_space_group_IT_number       1

loop_
  _space_group_symop_operation_xyz
  'x, y, z'

loop_
  _atom_site_type_symbol
  _atom_site_label
  _atom_site_symmetry_multiplicity
  _atom_site_fract_x
  _atom_site_fract_y
  _atom_site_fract_z
  _atom_site_occupancy
  Gd  Gd1       1.0  0.9142487911591815  0.7603304438837168  0.9591820203597479  1.0000
  Gd  Gd2       1.0  0.6345487641883095  0.7397355320989902  0.5407619107644593  1.0000
  Gd  Gd3       1.0  0.0857493337402957  0.2396691132333615  0.040817354846190305  1.0000
  Gd  Gd4       1.0  0.3654418975896476  0.2602591339863806  0.45923899941990953  1.0000
  H   H1        1.0  0.41474008686272856  0.8927184447702956  0.9299408549222221  1.0000
  H   H2        1.0  0.23894239012027893  0.607576186944982  0.5703013522818097  1.0000
  H   H3        1.0  0.5852579941788817  0.1072798895888525  0.07005918636043872  1.0000
  H   H4        1.0  0.7610465370768085  0.3924172563824584  0.42969854789486567  1.0000
  H   H5        1.0  0.45097623632259587  0.0439789344036896  0.9519082593314323  1.0000
  H   H6        1.0  0.447139128967585  0.4564885490623851  0.5482457909695952  1.0000
  H   H7        1.0  0.5490139126326524  0.9560193999554585  0.04809129701910559  1.0000
  H   H8        1.0  0.5528509761297824  0.5435085625388396  0.45175443145765837  1.0000
  H   H9        1.0  0.724161282802136  0.4786033489518715  0.9612172483240543  1.0000
  H   H10       1.0  0.1647608079737921  0.021509534715022493  0.538698284844024  1.0000
  H   H11       1.0  0.27584685813116044  0.5213925398914228  0.0387807111194007  1.0000
  H   H12       1.0  0.8352294478820426  0.9784839086124107  0.46130197007761353  1.0000
  H   H13       1.0  0.5306615813754971  0.6309846647225044  0.9360523160857357  1.0000
  H   H14       1.0  0.09944437769143358  0.8692916256238519  0.5639538965936951  1.0000
  H   H15       1.0  0.4693413246549981  0.3690112241207899  0.06394751145312232  1.0000
  H   H16       1.0  0.9005483009994609  0.13070426321944234  0.4360460578625762  1.0000
  H   H17       1.0  0.19576862844579737  0.4631440204655987  0.864412454268731  1.0000
  H   H18       1.0  0.5269720965267837  0.03736870504382489  0.6354788571252854  1.0000
  H   H19       1.0  0.804230463048178  0.5368555366514798  0.1355859543427158  1.0000
  H   H20       1.0  0.4730362118544206  0.9626296293153231  0.364521057239962  1.0000
  H   H21       1.0  0.4686363591846001  0.4305501851314091  0.7985033464511204  1.0000
  H   H22       1.0  0.7033934253103735  0.0702902395027749  0.7015187762618852  1.0000
  H   H23       1.0  0.5313713925160215  0.5694505947435999  0.20149588015701167  1.0000
  H   H24       1.0  0.2966104640040685  0.9297117631301643  0.29848200710988954  1.0000
  H   H25       1.0  0.9123463327214621  0.2903719934842428  0.8047984084548859  1.0000
  H   H26       1.0  0.013483982173170022  0.20998911004208046  0.6953295803795784  1.0000
  H   H27       1.0  0.08766149871132703  0.7096287863907662  0.1952041052284841  1.0000
  H   H28       1.0  0.9865209175936372  0.7900141153487823  0.3046695703209821  1.0000
  H   H29       1.0  0.06634522856916891  0.17454869425103675  0.8765372883446503  1.0000
  H   H30       1.0  0.12147555964462937  0.325341647472932  0.6236167579603561  1.0000
  H   H31       1.0  0.9336508754255778  0.8254484173501877  0.12346535220371631  1.0000
  H   H32       1.0  0.8785239816293426  0.6746603551600001  0.37638163983709916  1.0000
  H   H33       1.0  0.009515648913691296  0.7865537104119653  0.7980195285471581  1.0000
  H   H34       1.0  0.5956003625166849  0.7143730871521896  0.7017177693897523  1.0000
  H   H35       1.0  0.990488757215246  0.2134458467051132  0.2019802990441164  1.0000
  H   H36       1.0  0.40440000729097386  0.2856374747862417  0.2982838613605736  1.0000
  H   H37       1.0  0.150082463798256  0.8981205892971005  0.7271206733705853  1.0000
  H   H38       1.0  0.7763063513063172  0.6007788756220975  0.7728298710004537  1.0000
  H   H39       1.0  0.8499254760315226  0.1018899726413309  0.2728801209724097  1.0000
  H   H40       1.0  0.22370948074373584  0.3992316863163339  0.2271697647370559  1.0000
  H   H41       1.0  0.6067395531774694  0.0616159947600963  0.7882188183351531  1.0000
  H   H42       1.0  0.45716170560452707  0.4375896025240705  0.712732987805282  1.0000
  H   H43       1.0  0.3932688117592631  0.9383884533886968  0.211784661995118  1.0000
  H   H44       1.0  0.5428371514070278  0.5624124001088617  0.28726441085088794  1.0000
  H   H45       1.0  0.5047384172794196  0.943311276807641  0.8603043413749916  1.0000
  H   H46       1.0  0.3093966877419305  0.5574907994478406  0.6404785737494976  1.0000
  H   H47       1.0  0.4952716050014062  0.0566809437618687  0.13969697018487182  1.0000
  H   H48       1.0  0.6905960181173969  0.4425001983637387  0.3595187922026426  1.0000
  C   C1        1.0  0.7196767918454584  0.2508243338123606  0.9108174437647634  1.0000
  C   C2        1.0  0.884278495878213  0.24899753346762307  0.5892067163855048  1.0000
  C   C3        1.0  0.2803164873838994  0.7491703322730032  0.08918253237190041  1.0000
  C   C4        1.0  0.11571495479083886  0.751000800891525  0.41079290505861366  1.0000
  C   C5        1.0  0.47408878042548924  0.33478989798415876  0.9074781902927924  1.0000
  C   C6        1.0  0.7193219678435269  0.1650882161605267  0.5924931926536274  1.0000
  C   C7        1.0  0.5259123638557172  0.6652096591329196  0.09252321574251  1.0000
  C   C8        1.0  0.28067699207682756  0.8349076726827673  0.4075072141879801  1.0000
  C   C9        1.0  0.38683683834983634  0.39988341629206287  0.86687950260162  1.0000
  C   C10       1.0  0.6574933852945007  0.1003725300524323  0.6330797154942546  1.0000
  C   C11       1.0  0.6131610082093603  0.6001173635829387  0.1331195287257643  1.0000
  C   C12       1.0  0.3425103996147388  0.8996209132750079  0.36692047760355  1.0000
  C   C13       1.0  0.5426610404854914  0.3820556056988593  0.829814469372934  1.0000
  C   C14       1.0  0.7593587994016744  0.118524371496612  0.6702062083839592  1.0000
  C   C15       1.0  0.45734630130122134  0.6179427286602888  0.1701864115868119  1.0000
  C   C16       1.0  0.24065193181458983  0.881476408378397  0.3297934055159216  1.0000
  C   C17       1.0  0.7876818844699895  0.3019820800125359  0.833337917800236  1.0000
  C   C18       1.0  0.9280099411442962  0.19837902351378736  0.6667479071093254  1.0000
  C   C19       1.0  0.2123210382499609  0.6980199226204034  0.1666638321660372  1.0000
  C   C20       1.0  0.07199446498464095  0.8016205336032911  0.333251920481942  1.0000
  C   C21       1.0  0.8752806771941049  0.236252727581963  0.8736860491440696  1.0000
  C   C22       1.0  0.9892753026699597  0.2636914154908467  0.6264007616505012  1.0000
  C   C23       1.0  0.12471933304469456  0.7637443840192617  0.1263143685639392  1.0000
  C   C24       1.0  0.010723037527100205  0.7363130326579466  0.3735975927861759  1.0000
  C   C25       1.0  0.8206935307088016  0.1794690721541272  0.9538117096789094  1.0000
  C   C26       1.0  0.9551962785416279  0.3204726254028287  0.5462204076937525  1.0000
  C   C27       1.0  0.17930116090324327  0.820526816689167  0.04618959866360941  1.0000
  C   C28       1.0  0.044784757931580384  0.6795354910197489  0.4537782331769478  1.0000
  C   C29       1.0  0.3081858954026374  0.3525871396291578  0.9473096055846  1.0000
  C   C30       1.0  0.6095237486359366  0.1475599812597252  0.5526107230721921  1.0000
  C   C31       1.0  0.6918140517934502  0.6474160857617051  0.0526894474755863  1.0000
  C   C32       1.0  0.39047993186810687  0.8524249027622091  0.4473888797516423  1.0000
  C   C33       1.0  0.2437646126319634  0.8576436335997855  0.834801407461157  1.0000
  C   C34       1.0  0.9375429997303825  0.6431266509495686  0.6654402020620865  1.0000
  C   C35       1.0  0.7562442524298236  0.1423522552435088  0.1651991946612057  1.0000
  C   C36       1.0  0.062452467851621014  0.3568729061675099  0.3345584636539414  1.0000
  C   C37       1.0  0.1443892660603369  0.8452179675333795  0.7966916142864093  1.0000
  C   C38       1.0  0.7875625901243594  0.6552466275339199  0.7033165837756172  1.0000
  C   C39       1.0  0.8556176027697477  0.1547840350995529  0.2033095563771212  1.0000
  C   C40       1.0  0.21243568303819424  0.3447627116465881  0.29668271562757553  1.0000
  C   C41       1.0  0.22161015041387372  0.9088930866445748  0.7575090278087941  1.0000
  C   C42       1.0  0.8889424157817127  0.5905223821203265  0.7426105049713883  1.0000
  C   C43       1.0  0.7783896188553284  0.09111869805178688  0.2424925812611463  1.0000
  C   C44       1.0  0.1110628061832557  0.4094808432705363  0.25738832353101065  1.0000
  C   C45       1.0  0.47706068587541445  0.9973914144562173  0.7911820984559484  1.0000
  C   C46       1.0  0.26639331040021846  0.5020754101416641  0.7094941678210418  1.0000
  C   C47       1.0  0.5229448271275033  0.0026154792084299  0.20882130596675103  1.0000
  C   C48       1.0  0.7336053519950029  0.4979290380071291  0.2905038644174667  1.0000
  C   C49       1.0  0.41794190198738324  0.9328701468587113  0.8318401935653839  1.0000
  C   C50       1.0  0.18374286310561402  0.567562656502453  0.6687566591222592  1.0000
  C   C51       1.0  0.5820657388208588  0.067134301290082  0.16816064408598663  1.0000
  C   C52       1.0  0.8162586512234214  0.4324393461304794  0.3312414490238211  1.0000
  C   C53       1.0  0.151649432628275  0.7995663002839066  0.8774545132735981  1.0000
  C   C54       1.0  0.8301769814817277  0.7013922889863835  0.6226268487085989  1.0000
  C   C55       1.0  0.8483567312581571  0.20042836580145715  0.12254604543556981  1.0000
  C   C56       1.0  0.16981574106704048  0.298604822614834  0.3773724396709498  1.0000
  N   N1        1.0  0.3827946282179512  0.9865479971489107  0.7543476823714315  1.0000
  N   N2        1.0  0.12433320740174021  0.512297666421446  0.7460805800192247  1.0000
  N   N3        1.0  0.6172104788628516  0.0134576737578058  0.24565506678853674  1.0000
  N   N4        1.0  0.875672658959559  0.4877055589694166  0.2539176040868441  1.0000
  O   O1        1.0  0.9111213324650862  0.0260704217872245  0.9587316848722836  1.0000
  O   O2        1.0  0.8962767931422918  0.473938527455779  0.5412846785537154  1.0000
  O   O3        1.0  0.08887063479497216  0.9739303580877843  0.0412698589468334  1.0000
  O   O4        1.0  0.1037139356701715  0.5260512475978771  0.4587152866641376  1.0000
  O   O5        1.0  0.8168939987439429  0.2785246919178803  0.982093189758949  1.0000
  O   O6        1.0  0.07803822805585267  0.2215649593483846  0.5179617194244486  1.0000
  O   O7        1.0  0.18309406626385555  0.7214773107150518  0.01790826728619521  1.0000
  O   O8        1.0  0.9219567730566995  0.7784260384632018  0.4820350346781623  1.0000
  O   O9        1.0  0.319261507042562  0.2236118561201934  0.971784275006101  1.0000
  O   O10       1.0  0.515375100570495  0.2768336177031756  0.5282237063382594  1.0000
  O   O11       1.0  0.6807249111001212  0.7763913692706694  0.028214839877911405  1.0000
  O   O12       1.0  0.4846139980663009  0.7231634938980491  0.4717758391458773  1.0000
  O   O13       1.0  0.16599042736232406  0.4925427893333918  0.9558861183902819  1.0000
  O   O14       1.0  0.6151993432277438  0.007808532129509199  0.5438975154372159  1.0000
  O   O15       1.0  0.8340220384348029  0.5074592132995406  0.04411450551728541  1.0000
  O   O16       1.0  0.38479903284360223  0.9921946932613537  0.4561047921514074  1.0000
  O   O17       1.0  0.2654709757260176  0.7845300460407927  0.9119294074528812  1.0000
  O   O18       1.0  0.9634301366607759  0.7159528903954282  0.5883335409371  1.0000
  O   O19       1.0  0.7345295680167396  0.2154707338342163  0.08807197690202882  1.0000
  O   O20       1.0  0.03656327015040973  0.2840442212057894  0.4116667465837409  1.0000
  O   O21       1.0  0.9562223080013154  0.7714306403559446  0.8798278411292415  1.0000
  O   O22       1.0  0.6089971960589793  0.7298972218086632  0.6199769522070612  1.0000
  O   O23       1.0  0.04378250404974439  0.22857013951905705  0.12017264172476422  1.0000
  O   O24       1.0  0.3909932080599177  0.2701060035821996  0.3800232269118241  1.0000
  O   O25       1.0  0.5345622654361936  0.9351151304148926  0.9398622738379884  1.0000
  O   O26       1.0  0.4103975089040188  0.5653433508627612  0.5602851332328527  1.0000
  O   O27       1.0  0.46543397013216764  0.0648856494601162  0.0601383684802173  1.0000
  O   O28       1.0  0.5895905792804047  0.4346525379805327  0.4397160449224984  1.0000
  O   O29       1.0  0.686850680363456  0.5933750763668257  0.9485886769450573  1.0000
  O   O30       1.0  0.22994712201585124  0.9065246045376438  0.5511952852205653  1.0000
  O   O31       1.0  0.3131679974099484  0.4066159214447538  0.0514046013410763  1.0000
  O   O32       1.0  0.7700422549612327  0.09347128430565017  0.44880460414212564  1.0000
