data_image0
_chemical_formula_structural       Ag4P4H48C24N16O16
_chemical_formula_sum              "Ag4 P4 H48 C24 N16 O16"
_cell_length_a       7.701494044
_cell_length_b       9.991025153
_cell_length_c       13.4998
_cell_angle_alpha    90.0
_cell_angle_beta     90.0
_cell_angle_gamma    90.0

_space_group_name_H-M_alt    "P 1"
_space_group_IT_number       1

loop_
  _space_group_symop_operation_xyz
  'x, y, z'

loop_
  _atom_site_type_symbol
  _atom_site_label
  _atom_site_symmetry_multiplicity
  _atom_site_fract_x
  _atom_site_fract_y
  _atom_site_fract_z
  _atom_site_occupancy
  Ag  Ag1       1.0  0.19288075683928693  0.2587011803512382  0.7851042237662753  1.0000
  Ag  Ag2       1.0  0.6928811435175106  0.24129856176731576  0.2148957762337247  1.0000
  Ag  Ag3       1.0  0.807118718067791  0.7587009224697923  0.7148957762337247  1.0000
  Ag  Ag4       1.0  0.3071183313895745  0.7412983038858698  0.2851042237662753  1.0000
  P   P1        1.0  0.3508708809695448  0.4854406755790918  0.976065571341799  1.0000
  P   P2        1.0  0.8508686707490511  0.014560067437756199  0.023935169409917  1.0000
  P   P3        1.0  0.649129892386888  0.9854424194942267  0.523935169409917  1.0000
  P   P4        1.0  0.1491295057086717  0.5145588086580233  0.476064830590083  1.0000
  H   H1        1.0  0.21427790381603265  0.6792015730200021  0.0495629564882449  1.0000
  H   H2        1.0  0.7142769920448941  0.8207976533356671  0.9504370435117551  1.0000
  H   H3        1.0  0.7857228695404004  0.179202831799735  0.4504370435117551  1.0000
  H   H4        1.0  0.2857224828621837  0.3207969103188191  0.5495629564882449  1.0000
  H   H5        1.0  0.16556787458576133  0.5285583730528742  0.1164113542422882  1.0000
  H   H6        1.0  0.665568261263985  0.9714408533027948  0.8835879050060029  1.0000
  H   H7        1.0  0.8344316003213166  0.0285586309343131  0.3835886457577118  1.0000
  H   H8        1.0  0.3344312136431  0.47144111118424087  0.6164120949939971  1.0000
  H   H9        1.0  0.6142717209118158  0.5324408575232837  0.8812560186076794  1.0000
  H   H10       1.0  0.1142687373348821  0.9675583688323853  0.1187432406406046  1.0000
  H   H11       1.0  0.38572905244461697  0.0324411154047297  0.6187439813923135  1.0000
  H   H12       1.0  0.8857294391228405  0.4675596276121183  0.38125601860768654  1.0000
  H   H13       1.0  0.4916942061326636  0.680784994116209  0.9020563267603948  1.0000
  H   H14       1.0  0.9916945928108802  0.8192142322394602  0.0979436732396053  1.0000
  H   H15       1.0  0.5083052687744214  0.1807862528959419  0.5979436732396053  1.0000
  H   H16       1.0  0.00830618054556  0.3192144901208991  0.4020563267603947  1.0000
  H   H17       1.0  0.3649369828688762  0.2899602348744068  0.08169602512629841  1.0000
  H   H18       1.0  0.8649360710977376  0.2100395072441472  0.9183047156254178  1.0000
  H   H19       1.0  0.6350637904875569  0.7899629796878358  0.4183047156254176  1.0000
  H   H20       1.0  0.1350634038093403  0.7100392493627012  0.5816952843745824  1.0000
  H   H21       1.0  0.5370879957016328  0.2885279494201285  0.9933013822426986  1.0000
  H   H22       1.0  0.037087609023409095  0.2114727935967196  0.0066986177573014  1.0000
  H   H23       1.0  0.4629127776548074  0.7885296933352635  0.5066986177573014  1.0000
  H   H24       1.0  0.9629118658836688  0.7114725357152736  0.4933013822426986  1.0000
  H   H25       1.0  0.807784822588637  0.5282020532613103  0.1289122801819289  1.0000
  H   H26       1.0  0.3077844359104205  0.9717971730943588  0.8710877198180711  1.0000
  H   H27       1.0  0.1922159507677961  0.0282023111427563  0.3710877198180711  1.0000
  H   H28       1.0  0.6922163374460197  0.4717974309757977  0.6289122801819289  1.0000
  H   H29       1.0  0.7835752343016438  0.4363576242915315  0.0155994903628169  1.0000
  H   H30       1.0  0.2835748476234201  0.0636421178270226  0.9844005096371832  1.0000
  H   H31       1.0  0.2164255390547964  0.9363573664100855  0.4844005096371831  1.0000
  H   H32       1.0  0.7164246272836579  0.5636418599455837  0.5155994903628169  1.0000
  H   H33       1.0  0.4908982566759761  0.7836453096756628  0.0649468881020425  1.0000
  H   H34       1.0  0.9908986433541924  0.7163539166800064  0.9350531118979504  1.0000
  H   H35       1.0  0.5091012182311019  0.2836455675571088  0.4350531118979575  1.0000
  H   H36       1.0  0.0091021300022476  0.2163541745614523  0.5649468881020425  1.0000
  H   H37       1.0  0.6420182852510408  0.7250657354040158  0.1567334330879007  1.0000
  H   H38       1.0  0.1420178985728242  0.7749344918499403  0.8432665669120993  1.0000
  H   H39       1.0  0.3579811896560372  0.2250649923871748  0.34326656691209934  1.0000
  H   H40       1.0  0.8579815763342538  0.2749347497313792  0.6567334330879007  1.0000
  H   H41       1.0  0.5768491119539475  0.5252974464211135  0.2502540778381928  1.0000
  H   H42       1.0  0.07684872527572398  0.9747027808328425  0.7497459221618072  1.0000
  H   H43       1.0  0.4231516614024925  0.025297704302559496  0.2497459221618072  1.0000
  H   H44       1.0  0.9231520480807092  0.4747020378160016  0.7502533370864768  1.0000
  H   H45       1.0  0.3798652551421781  0.4351305229868813  0.22551667432109923  1.0000
  H   H46       1.0  0.8798643433710325  0.0648692191316727  0.7744833256789008  1.0000
  H   H47       1.0  0.620135518214262  0.9351302651054425  0.2744833256789008  1.0000
  H   H48       1.0  0.12013513153604548  0.5648689612502267  0.7255166743210992  1.0000
  C   C1        1.0  0.2680453932972  0.5853543465701279  0.07862264626142951  1.0000
  C   C2        1.0  0.7680444815260543  0.9146448797855413  0.9213773537385705  1.0000
  C   C3        1.0  0.73195538005924  0.0853556053498608  0.4213773537385705  1.0000
  C   C4        1.0  0.23195499338102366  0.41464413676869327  0.5786233870131383  1.0000
  C   C5        1.0  0.5356467169138313  0.5866815377038604  0.9362375738899829  1.0000
  C   C6        1.0  0.0356463302356076  0.9133206913466764  0.0637616853583012  1.0000
  C   C7        1.0  0.4643527579932538  0.0866827964836006  0.5637631668617331  1.0000
  C   C8        1.0  0.9643531446714704  0.4133179465332475  0.4362375738899829  1.0000
  C   C9        1.0  0.4620687855718585  0.3524152873284265  0.0438362049808134  1.0000
  C   C10       1.0  0.962069172250082  0.1475844547901346  0.9561637950191866  1.0000
  C   C11       1.0  0.5379319877845743  0.8524180321418484  0.4561630542674706  1.0000
  C   C12       1.0  0.03793160110635799  0.6475841969086886  0.5438362049808134  1.0000
  C   C13       1.0  0.7156520499154198  0.49669677775857923  0.071395872531447  1.0000
  C   C14       1.0  0.2156516632372032  0.0033029643599746996  0.928604127468553  1.0000
  C   C15       1.0  0.2843474249916582  0.9966975207754274  0.42860412746855303  1.0000
  C   C16       1.0  0.7843478116698748  0.5033027064785358  0.571395131779731  1.0000
  C   C17       1.0  0.5492336909999196  0.6947004830546248  0.0993540645046593  1.0000
  C   C18       1.0  0.049233304321695884  0.8052987433010442  0.9006459354953407  1.0000
  C   C19       1.0  0.4507657839071654  0.1947007409360708  0.4006459354953407  1.0000
  C   C20       1.0  0.950766170585382  0.3052990011824832  0.5993540645046593  1.0000
  C   C21       1.0  0.4846488199140921  0.4946789668041163  0.1928050785937572  1.0000
  C   C22       1.0  0.9846479081429536  0.005320775314437799  0.8071941806545269  1.0000
  C   C23       1.0  0.5153519534423481  0.9946797098209643  0.3071941806545269  1.0000
  C   C24       1.0  0.0153515667641315  0.5053205174329918  0.6928050785937572  1.0000
  N   N1        1.0  0.5877366098239634  0.2799112160337458  0.794709551252609  1.0000
  N   N2        1.0  0.08773622314574679  0.22008852608480817  0.205290448747391  1.0000
  N   N3        1.0  0.4122628650831146  0.7799109581523069  0.705290448747391  1.0000
  N   N4        1.0  0.9122632517613383  0.7200892691016563  0.294709551252609  1.0000
  N   N5        1.0  0.408784319252014  0.6182698877647397  0.1499970369931418  1.0000
  N   N6        1.0  0.9087834074808753  0.8817293385909295  0.8500022222551422  1.0000
  N   N7        1.0  0.5912164541044191  0.1182701456461857  0.3500022222551422  1.0000
  N   N8        1.0  0.0912160674262026  0.3817295964723684  0.6499977777448578  1.0000
  N   N9        1.0  0.6425389634437549  0.6164272340111907  0.0249485177558171  1.0000
  N   N10       1.0  0.1425385767655314  0.8835729932427653  0.9750514822441831  1.0000
  N   N11       1.0  0.3574605114633228  0.1164274918926296  0.4750514822441829  1.0000
  N   N12       1.0  0.8574608981415466  0.3835722502259244  0.5249485177558171  1.0000
  N   N13       1.0  0.580705506548334  0.41156237093100856  0.1198158491236896  1.0000
  N   N14       1.0  0.0807051198701174  0.0884373711875526  0.8801841508763105  1.0000
  N   N15       1.0  0.4192952668081062  0.9115631139478494  0.3801841508763104  1.0000
  N   N16       1.0  0.9192943550369603  0.5884371133061066  0.6198158491236896  1.0000
  O   O1        1.0  0.2146440665351008  0.4467869844827348  0.9012452036326479  1.0000
  O   O2        1.0  0.7146457516626723  0.053212757635826294  0.09875479636735213  1.0000
  O   O3        1.0  0.7853554083719843  0.9467867266012888  0.5987547963673521  1.0000
  O   O4        1.0  0.2853550216937606  0.5532114988560863  0.4012466851360728  1.0000
  O   O5        1.0  0.4977488754907853  0.33629181676028  0.7275700380746386  1.0000
  O   O6        1.0  0.9977492621690089  0.1637079253582812  0.2724299619253614  1.0000
  O   O7        1.0  0.5022505994162927  0.836291558878834  0.7724299619253614  1.0000
  O   O8        1.0  0.0022515111874313  0.6637076674768352  0.2275700380746386  1.0000
  O   O9        1.0  0.524509916767002  0.1834756666035986  0.843889539104282  1.0000
  O   O10       1.0  0.024509530088785397  0.3165240755149554  0.156110460895718  1.0000
  O   O11       1.0  0.4754895581400759  0.6834754087221526  0.656110460895718  1.0000
  O   O12       1.0  0.9754899448182994  0.8165248185318035  0.343889539104282  1.0000
  O   O13       1.0  0.7400096614292693  0.3220890700123746  0.8127046326612231  1.0000
  O   O14       1.0  0.2400092747510527  0.1779106721061794  0.1872953673387769  1.0000
  O   O15       1.0  0.2599911119271638  0.8220888121309287  0.6872953673387769  1.0000
  O   O16       1.0  0.7599914986053875  0.6779114151230274  0.31270463266122317  1.0000
