data_image0
_chemical_formula_structural       Zr6H30C52O48
_chemical_formula_sum              "Zr6 H30 C52 O48"
_cell_length_a       14.796683739357267
_cell_length_b       14.765953958937576
_cell_length_c       14.835778153936372
_cell_angle_alpha    59.45315167033042
_cell_angle_beta     59.69246189749508
_cell_angle_gamma    59.95197419060137

_space_group_name_H-M_alt    "P 1"
_space_group_IT_number       1

loop_
  _space_group_symop_operation_xyz
  'x, y, z'

loop_
  _atom_site_type_symbol
  _atom_site_label
  _atom_site_symmetry_multiplicity
  _atom_site_fract_x
  _atom_site_fract_y
  _atom_site_fract_z
  _atom_site_occupancy
  Zr  Zr1       1.0  0.8631842919340752  0.8874534460709002  0.6256497242315503  1.0000
  Zr  Zr2       1.0  0.10405083619212256  0.12486307098259188  0.38870665920743613  1.0000
  Zr  Zr3       1.0  0.10175472100517172  0.8850236753132703  0.6271124618066324  1.0000
  Zr  Zr4       1.0  0.8653203423867452  0.1303891991673609  0.38439087065648186  1.0000
  Zr  Zr5       1.0  0.10108869176344373  0.8891160381829052  0.38764668413723763  1.0000
  Zr  Zr6       1.0  0.8640984008703467  0.125846083865568  0.6254143821521366  1.0000
  H   H1        1.0  0.07091416650104082  0.7217011585282833  0.6031624227153073  1.0000
  H   H2        1.0  0.07415576758466358  0.10624088781048611  0.22218735099418296  1.0000
  H   H3        1.0  0.07835020268769458  0.09848263172448671  0.6016648615595841  1.0000
  H   H4        1.0  0.7003169538371384  0.10370441907371486  0.6005091874386466  1.0000
  H   H5        1.0  0.13590621991164673  0.585831162922034  0.3729484994978804  1.0000
  H   H6        1.0  0.8136934704115716  0.4489972100044498  0.6196367895232696  1.0000
  H   H7        1.0  0.5820954624777244  0.13956115251855294  0.9303656972412355  1.0000
  H   H8        1.0  0.4089110287463738  0.8483032773055541  0.10784223064145952  1.0000
  H   H9        1.0  0.8215997671386005  0.13727750379180764  0.10697570819576907  1.0000
  H   H10       1.0  0.12338373192144302  0.8580281089881369  0.9278525212729604  1.0000
  H   H11       1.0  0.581513193701376  0.43462484735147916  0.3488985918657407  1.0000
  H   H12       1.0  0.410201644031254  0.6059717480307258  0.6369652633897332  1.0000
  H   H13       1.0  0.5694047371051167  0.8607668786453362  0.651987480555306  1.0000
  H   H14       1.0  0.4114760734624028  0.13805633131173065  0.3492803852674697  1.0000
  H   H15       1.0  0.15116387923438887  0.3421717799504975  0.3689536798492909  1.0000
  H   H16       1.0  0.8012841441467201  0.6898682868214154  0.6272680037070231  1.0000
  H   H17       1.0  0.34331281311232703  0.14991841736285483  0.16873715124027905  1.0000
  H   H18       1.0  0.6501233760389697  0.8345474239251801  0.8720261630457528  1.0000
  H   H19       1.0  0.8133827561286181  0.143623827403161  0.8700923146838022  1.0000
  H   H20       1.0  0.13132265140172478  0.8504486845665582  0.1647175489909927  1.0000
  H   H21       1.0  0.34004061929879  0.6704795585446989  0.3424804932904875  1.0000
  H   H22       1.0  0.6504370724520995  0.3693172653701282  0.6448774201601991  1.0000
  H   H23       1.0  0.334416703885978  0.8468072307396425  0.6601853395277858  1.0000
  H   H24       1.0  0.6467938597276798  0.15158456784960356  0.3410741075839354  1.0000
  H   H25       1.0  0.0549754588806266  0.41582616666075006  0.21499140816542447  1.0000
  H   H26       1.0  0.04688328138757914  0.7229499521916198  0.9058643839515168  1.0000
  H   H27       1.0  0.12045232932597119  0.12519563412877943  0.030867446197937902  1.0000
  H   H28       1.0  0.03307822871258291  0.14637815121925976  0.9213306470341606  1.0000
  H   H29       1.0  0.10601467800264432  0.28687626301986324  0.7037875831957122  1.0000
  H   H30       1.0  0.08604559853526456  0.5269245030748949  0.632796372317557  1.0000
  C   C1        1.0  0.9750998364840483  0.7122314096427758  0.4957625740391691  1.0000
  C   C2        1.0  0.29488310549559316  0.9997068830797462  0.20795755756545017  1.0000
  C   C3        1.0  0.9800189391042547  0.3160595641042221  0.5042290486531725  1.0000
  C   C4        1.0  0.6860373873596257  0.9986270045804705  0.819536534027975  1.0000
  C   C5        1.0  0.9883935596693975  0.6942462222995616  0.8058647293074442  1.0000
  C   C6        1.0  0.6796776864597618  0.005385253868588859  0.5051747428757238  1.0000
  C   C7        1.0  0.9966595849524607  0.3071544685761369  0.1958614142301585  1.0000
  C   C8        1.0  0.29371690371135617  0.0013425028179910262  0.5030964383886171  1.0000
  C   C9        1.0  0.293610351930788  0.7073997759029212  0.5012666174604165  1.0000
  C   C10       1.0  0.9776035152511471  0.9982990198640139  0.8195949576966302  1.0000
  C   C11       1.0  0.6876348473013181  0.3222043770081982  0.49561544029658233  1.0000
  C   C12       1.0  0.9743057511458131  0.0035831871179823785  0.20804189855009975  1.0000
  C   C13       1.0  0.9780005947422054  0.41990708743949773  0.4981773738296981  1.0000
  C   C14       1.0  0.9723869764236922  0.6137966356951241  0.4957399523877515  1.0000
  C   C15       1.0  0.07041659776977131  0.45915613170865316  0.4266938464232268  1.0000
  C   C16       1.0  0.879437717236989  0.5754209500182982  0.5662273605427117  1.0000
  C   C17       1.0  0.06546495422545463  0.5557120625324501  0.42691500198602483  1.0000
  C   C18       1.0  0.8842536233555902  0.4789479225111606  0.5657146034551345  1.0000
  C   C19       1.0  0.3992298300622323  0.9965059994674306  0.11280990122492078  1.0000
  C   C20       1.0  0.5905765136640682  0.9927274140283374  0.9236703037281586  1.0000
  C   C21       1.0  0.4502366083603491  0.07858752448389351  0.06402153254568792  1.0000
  C   C22       1.0  0.5427194209823366  0.9074271808796585  0.9757738310731056  1.0000
  C   C23       1.0  0.5445084905660876  0.0754529507308135  0.9695702150343378  1.0000
  C   C24       1.0  0.4471108709504819  0.9118836250570511  0.06894730760401308  1.0000
  C   C25       1.0  0.9723127099471969  0.9974615834287874  0.9225544534119123  1.0000
  C   C26       1.0  0.9733084132296737  0.9977466376907671  0.11179495340702782  1.0000
  C   C27       1.0  0.884498430104557  0.07701999262410211  0.9746734228007199  1.0000
  C   C28       1.0  0.05882940137650668  0.9162987702954624  0.0617114148823177  1.0000
  C   C29       1.0  0.8877010703187408  0.07627029059192852  0.06752557944417241  1.0000
  C   C30       1.0  0.056636273057861966  0.918539230587683  0.9675173723466274  1.0000
  C   C31       1.0  0.3987915495599808  0.6133345872663228  0.49399887606212195  1.0000
  C   C32       1.0  0.5914023415620022  0.425530691237313  0.4936217156419147  1.0000
  C   C33       1.0  0.4490356981618574  0.5660603420430307  0.4095865715074466  1.0000
  C   C34       1.0  0.5438974557220533  0.47579668964292665  0.57507946959349  1.0000
  C   C35       1.0  0.5441734366614597  0.47256292641632297  0.4116164456067111  1.0000
  C   C36       1.0  0.4480739261774788  0.5685248933661173  0.5737653006893951  1.0000
  C   C37       1.0  0.012314302550500101  0.5843557264888447  0.8931699213279956  1.0000
  C   C38       1.0  0.022680199250189135  0.48382747614676447  0.8900400920474496  1.0000
  C   C39       1.0  0.02816561367588828  0.5818362951299533  0.9799805938993416  1.0000
  C   C40       1.0  0.045541024340167394  0.4731271613891366  0.790357234930198  1.0000
  C   C41       1.0  0.060927174256256926  0.37214852887206007  0.790533468187263  1.0000
  C   C42       1.0  0.019080059770757867  0.3933603653337344  0.08478967240350242  1.0000
  C   C43       1.0  0.03121846948073436  0.4848116581852722  0.07760132426511031  1.0000
  C   C44       1.0  0.02632073043202615  0.38594174272890314  0.9886360239578662  1.0000
  C   C45       1.0  0.05294749541801733  0.28242860783881696  0.9823719440202369  1.0000
  C   C46       1.0  0.06293566405238248  0.2775245572650675  0.8866600279623069  1.0000
  C   C47       1.0  0.3958611668006642  0.9975179678050953  0.5018951203652051  1.0000
  C   C48       1.0  0.5838935812781826  0.0024403853344452733  0.5004521904054968  1.0000
  C   C49       1.0  0.442039509836036  0.9165675029808752  0.5879207065143247  1.0000
  C   C50       1.0  0.5398705769170888  0.08110420312571864  0.4124932958792654  1.0000
  C   C51       1.0  0.5350013932558539  0.9212448793795149  0.5855477580297689  1.0000
  C   C52       1.0  0.4462392239906521  0.07721315381614607  0.4154106790131422  1.0000
  O   O1        1.0  0.8952539311082364  0.7558307906261917  0.5700841942601188  1.0000
  O   O2        1.0  0.2531466060714394  0.07811094073107233  0.24780345546439264  1.0000
  O   O3        1.0  0.06160035301829933  0.27149476143934254  0.43059638798725786  1.0000
  O   O4        1.0  0.7270291716103255  0.9214329769090811  0.7782448935669066  1.0000
  O   O5        1.0  0.05137638992126634  0.7500845227439328  0.7734930200053255  1.0000
  O   O6        1.0  0.7200873319397021  0.08456684605072688  0.4281566771892429  1.0000
  O   O7        1.0  0.9165285683617127  0.2729032053972276  0.2341418888858371  1.0000
  O   O8        1.0  0.24996678310164827  0.9252684952700106  0.5829570856592312  1.0000
  O   O9        1.0  0.24981442931500195  0.746275485467912  0.4265643904353311  1.0000
  O   O10       1.0  0.9020014823094228  0.07749351498366519  0.7765189160533267  1.0000
  O   O11       1.0  0.7253299530703006  0.2772854560895084  0.5764689860282103  1.0000
  O   O12       1.0  0.05597918145650748  0.929862170067338  0.24471231208316618  1.0000
  O   O13       1.0  0.055718162688272246  0.9240456055610409  0.7777123527714876  1.0000
  O   O14       1.0  0.7279703552324861  0.2801683430821169  0.42089336744215455  1.0000
  O   O15       1.0  0.8987811576295357  0.07938095416386673  0.2483854471536517  1.0000
  O   O16       1.0  0.24994468115520618  0.7450585048963703  0.5798999190284136  1.0000
  O   O17       1.0  0.9093852871293462  0.7319694072560382  0.7709900536212332  1.0000
  O   O18       1.0  0.25158535165621027  0.07933489039561444  0.42811128608663307  1.0000
  O   O19       1.0  0.05947172231922344  0.2758511696771889  0.2505987127996221  1.0000
  O   O20       1.0  0.716977056640843  0.9319817306563822  0.5847661818593082  1.0000
  O   O21       1.0  0.722558437280547  0.07958955638095233  0.7734634853727868  1.0000
  O   O22       1.0  0.05670608869081663  0.7478650087118625  0.4250726021904754  1.0000
  O   O23       1.0  0.24981111575425538  0.9273480958632946  0.24561986688136983  1.0000
  O   O24       1.0  0.904486847331448  0.27377909060688677  0.5808988959374376  1.0000
  O   O25       1.0  0.7807175062359448  0.07662994792477926  0.5735195318955988  1.0000
  O   O26       1.0  0.0506200963534553  0.07199041247323386  0.575857258658601  1.0000
  O   O27       1.0  0.05144511587291588  0.0759892502113217  0.3034450241450912  1.0000
  O   O28       1.0  0.04863262087761919  0.8030002236389819  0.5742392766180728  1.0000
  O   O29       1.0  0.13198732986657555  0.9561212244446511  0.4579945712928364  1.0000
  O   O30       1.0  0.9322590674727208  0.9604215082280376  0.4568093213644104  1.0000
  O   O31       1.0  0.934916657894881  0.1565039789034657  0.4566494156478029  1.0000
  O   O32       1.0  0.933036631491497  0.9568239684248923  0.6546198203665838  1.0000
  O   O33       1.0  0.16432571687281683  0.40643950437504384  0.3597740423346422  1.0000
  O   O34       1.0  0.7865215792862229  0.6278153555991395  0.6338582389291645  1.0000
  O   O35       1.0  0.4109737383850671  0.16065479602029603  0.10374973961753398  1.0000
  O   O36       1.0  0.5842790161426379  0.8226926709757975  0.9389159849840497  1.0000
  O   O37       1.0  0.7983659618052101  0.15373115861562078  0.9382848359715297  1.0000
  O   O38       1.0  0.14392707736524826  0.8379958309939753  0.09877699930461165  1.0000
  O   O39       1.0  0.40811567645571517  0.606518888323059  0.3279652369225871  1.0000
  O   O40       1.0  0.5865354139096938  0.4374589482644071  0.6548078734757113  1.0000
  O   O41       1.0  0.3994300680380789  0.8359078335286299  0.672995602114959  1.0000
  O   O42       1.0  0.5840516729791572  0.1602054357327064  0.3261971358670762  1.0000
  O   O43       1.0  0.0395815946535479  0.49181916697672523  0.16020408663053592  1.0000
  O   O44       1.0  0.035031946391640714  0.6682442127827741  0.9823478498665565  1.0000
  O   O45       1.0  0.08193369952881821  0.1826046649079629  0.06505590752239242  1.0000
  O   O46       1.0  0.09542920735688659  0.1756502158949545  0.8767564531824091  1.0000
  O   O47       1.0  0.08466303216526692  0.36547834251575034  0.6916170105125374  1.0000
  O   O48       1.0  0.06341372948320155  0.5577084232710234  0.6888852441221475  1.0000
