data_image0
_chemical_formula_structural       Zn4H40C52N4O20
_chemical_formula_sum              "Zn4 H40 C52 N4 O20"
_cell_length_a       9.691472294659585
_cell_length_b       11.65611360597471
_cell_length_c       11.844389640939882
_cell_angle_alpha    112.20079110095276
_cell_angle_beta     90.00071510306306
_cell_angle_gamma    89.99870097459052

_space_group_name_H-M_alt    "P 1"
_space_group_IT_number       1

loop_
  _space_group_symop_operation_xyz
  'x, y, z'

loop_
  _atom_site_type_symbol
  _atom_site_label
  _atom_site_symmetry_multiplicity
  _atom_site_fract_x
  _atom_site_fract_y
  _atom_site_fract_z
  _atom_site_occupancy
  Zn  Zn1       1.0  0.8942967575231506  0.8744982327499286  0.8988965981913709  1.0000
  Zn  Zn2       1.0  0.39429125324106445  0.6255080743965706  0.6011037353391728  1.0000
  Zn  Zn3       1.0  0.10570954104743181  0.12550688623651496  0.10110462143259008  1.0000
  Zn  Zn4       1.0  0.6057098862350898  0.3744896356193975  0.3988949479778938  1.0000
  H   H1        1.0  0.2155932768989075  0.7632196175575244  0.21442746387564435  1.0000
  H   H2        1.0  0.7155667123022199  0.7367836688327499  0.28558002837237234  1.0000
  H   H3        1.0  0.7844109579855854  0.23678639756738556  0.7855732177850074  1.0000
  H   H4        1.0  0.2844313316593485  0.26321789575263926  0.7144241980713703  1.0000
  H   H5        1.0  0.4584668875651871  0.7847060030328665  0.29130566825573123  1.0000
  H   H6        1.0  0.9584397308610731  0.7153009617860632  0.20869530484442578  1.0000
  H   H7        1.0  0.541536315506228  0.2152962175727211  0.7086911802641468  1.0000
  H   H8        1.0  0.04156140861149989  0.28470063277874397  0.7913097766016934  1.0000
  H   H9        1.0  0.6458331233304051  0.8333705969589502  0.16971218045904382  1.0000
  H   H10       1.0  0.1458165872104331  0.6666279766078772  0.3302820397177726  1.0000
  H   H11       1.0  0.3541680161173772  0.16662794916364018  0.8302842549050524  1.0000
  H   H12       1.0  0.8541752658081024  0.3333709896920282  0.6697263655834363  1.0000
  H   H13       1.0  0.34416185925008586  0.862192268636484  0.916117010007163  1.0000
  H   H14       1.0  0.8441606841606557  0.637803841882814  0.583880190884969  1.0000
  H   H15       1.0  0.6558382483164281  0.13780995199648766  0.0838798385070518  1.0000
  H   H16       1.0  0.1558301369740818  0.36219488437183134  0.41612137444059283  1.0000
  H   H17       1.0  0.142788077284429  0.9305363567568177  0.7871413958816477  1.0000
  H   H18       1.0  0.6427989598621408  0.5694680667893975  0.7128600743697291  1.0000
  H   H19       1.0  0.85721409390608  0.06947246677418659  0.21286109188350372  1.0000
  H   H20       1.0  0.35720011603490326  0.4305242365167457  0.2871409817040771  1.0000
  H   H21       1.0  0.20030672353534837  0.9803043336012747  0.6089888653784571  1.0000
  H   H22       1.0  0.7003134032462555  0.5196966241226874  0.8910212688952585  1.0000
  H   H23       1.0  0.7997016387295871  0.0197009053941031  0.3910157742361591  1.0000
  H   H24       1.0  0.2996774179308447  0.4802993837645175  0.10898105531219933  1.0000
  H   H25       1.0  0.7604573923786049  0.9805124663057324  0.537342335118808  1.0000
  H   H26       1.0  0.26046024588768557  0.5194773858893668  0.9626426186566236  1.0000
  H   H27       1.0  0.23955303358173544  0.019485093594106197  0.46265207323163093  1.0000
  H   H28       1.0  0.7395316070392894  0.4805211303085739  0.03735296169378432  1.0000
  H   H29       1.0  0.7228387741822574  0.9277402864104404  0.7179172460526644  1.0000
  H   H30       1.0  0.22284261742689176  0.5722473628794162  0.7820640541614879  1.0000
  H   H31       1.0  0.2771685562046073  0.0722618141314513  0.28207618248787014  1.0000
  H   H32       1.0  0.7771533628316902  0.42775013713460897  0.21792864416912042  1.0000
  H   H33       1.0  0.9473666822610555  0.6671343583224285  0.8807095164884942  1.0000
  H   H34       1.0  0.44735380964409194  0.8328702039378939  0.6192941138999473  1.0000
  H   H35       1.0  0.0526344571652118  0.3328709107436367  0.1192959781096334  1.0000
  H   H36       1.0  0.552644234363413  0.16712475773122287  0.380704473296639  1.0000
  H   H37       1.0  0.9704221140196763  0.6582061174744424  0.7439798138428629  1.0000
  H   H38       1.0  0.47041830545416735  0.841795198441119  0.7560212397035144  1.0000
  H   H39       1.0  0.029575929915686996  0.34179726935817456  0.2560241916785344  1.0000
  H   H40       1.0  0.5295828340743967  0.15819886708040087  0.24397788545826427  1.0000
  C   C1        1.0  0.1201609668837804  0.8012478918875485  0.01612790515965656  1.0000
  C   C2        1.0  0.6201559859231622  0.6987544242356732  0.48388170728598834  1.0000
  C   C3        1.0  0.8798391407459291  0.1987556149540097  0.9838795203523889  1.0000
  C   C4        1.0  0.379838962549286  0.3012433158418588  0.5161178310164872  1.0000
  C   C5        1.0  0.2653805710508124  0.8138538276455447  0.06241493481773821  1.0000
  C   C6        1.0  0.7653690337119272  0.6861446032635427  0.43758377626520684  1.0000
  C   C7        1.0  0.7346246956725934  0.1861512313364315  0.9375845748108989  1.0000
  C   C8        1.0  0.23462901023742697  0.31385690130825583  0.5624187401851017  1.0000
  C   C9        1.0  0.2980795155552229  0.7887423347062777  0.1659728689479891  1.0000
  C   C10       1.0  0.7980615983977443  0.7112620906969339  0.33403074585823594  1.0000
  C   C11       1.0  0.7019216238645711  0.2112599759379563  0.8340265445582703  1.0000
  C   C12       1.0  0.201938509249544  0.2887356493349671  0.6659687924536685  1.0000
  C   C13       1.0  0.4339290195613685  0.7993159585688971  0.2077704820294386  1.0000
  C   C14       1.0  0.9339076551856704  0.7006867796524289  0.29222796123536915  1.0000
  C   C15       1.0  0.566075215361174  0.20068536590735417  0.7922269044518587  1.0000
  C   C16       1.0  0.06609348428690248  0.29931481491237827  0.70777712021075  1.0000
  C   C17       1.0  0.5383085627708795  0.8272123615386774  0.14120673586668883  1.0000
  C   C18       1.0  0.03829126296130169  0.672790952629313  0.35878975251054607  1.0000
  C   C19       1.0  0.4616946403486324  0.17278424229124306  0.8587865004366508  1.0000
  C   C20       1.0  0.9617057492159162  0.327208909745174  0.6412181148405481  1.0000
  C   C21       1.0  0.5075371400206167  0.8461167806062874  0.0337728553501364  1.0000
  C   C22       1.0  0.0075302393069663  0.6538834633543614  0.46622481744633865  1.0000
  C   C23       1.0  0.4924639993729656  0.15388735228518155  0.9662263372337705  1.0000
  C   C24       1.0  0.9924647092121575  0.34611353063694134  0.533779533799283  1.0000
  C   C25       1.0  0.3701618719733871  0.8434969538114031  0.9969705426961043  1.0000
  C   C26       1.0  0.8701538035796688  0.6565004290336488  0.5030239672770023  1.0000
  C   C27       1.0  0.6298423629408845  0.15650335451744005  0.0030239617578473833  1.0000
  C   C28       1.0  0.12984217675216309  0.343497431061948  0.4969789910142382  1.0000
  C   C29       1.0  0.6222313474571664  0.864852894245594  0.9579746525883907  1.0000
  C   C30       1.0  0.1222277798242999  0.6351368350076568  0.5420148299519951  1.0000
  C   C31       1.0  0.3777708238435338  0.13514281347323728  0.04201912167260249  1.0000
  C   C32       1.0  0.8777640731856096  0.36485818672981196  0.4579854672267204  1.0000
  C   C33       1.0  0.0615057094859424  0.9421774505093833  0.7288901171343412  1.0000
  C   C34       1.0  0.5615043783712891  0.5578257527443568  0.7711135249579117  1.0000
  C   C35       1.0  0.9385005890282799  0.05783226910531879  0.2711118326788124  1.0000
  C   C36       1.0  0.4384936656523736  0.4421683128045401  0.2288856001982182  1.0000
  C   C37       1.0  0.09217894829823339  0.9709140181597034  0.6284723882701898  1.0000
  C   C38       1.0  0.5921768240182531  0.5290824296377892  0.8715368416132279  1.0000
  C   C39       1.0  0.9078283821295727  0.029090234704192093  0.3715302243119112  1.0000
  C   C40       1.0  0.40781915630926585  0.47091345817658936  0.12846206261676937  1.0000
  C   C41       1.0  0.9854046999619825  0.9856567454082777  0.5545586836745288  1.0000
  C   C42       1.0  0.48539401587147063  0.5143545829311049  0.9454484770059963  1.0000
  C   C43       1.0  0.014604694139713098  0.014346551303553699  0.44544275687744067  1.0000
  C   C44       1.0  0.5145988688524241  0.4856486239063641  0.054550398525648754  1.0000
  C   C45       1.0  0.8499654604624212  0.9715629723824861  0.588781604019026  1.0000
  C   C46       1.0  0.3499610989356867  0.5284307931520259  0.9112038690423747  1.0000
  C   C47       1.0  0.15004290181182262  0.028435483655826498  0.4112122663681036  1.0000
  C   C48       1.0  0.6500317858445682  0.47156781305717727  0.08879427630007797  1.0000
  C   C49       1.0  0.8265274709903065  0.9415285022725827  0.6898667200939956  1.0000
  C   C50       1.0  0.32652695317602115  0.5584676801536544  0.8101235763881435  1.0000
  C   C51       1.0  0.1734767638837624  0.058475510564313986  0.3101290525086853  1.0000
  C   C52       1.0  0.6734700589602624  0.4415300298988213  0.18987510692139148  1.0000
  N   N1        1.0  0.9301574450380485  0.926565960266771  0.7586045006183469  1.0000
  N   N2        1.0  0.430152382580971  0.5734264766307858  0.7413838304597319  1.0000
  N   N3        1.0  0.06984782165699238  0.07343993482182039  0.24139276105730545  1.0000
  N   N4        1.0  0.5698466933139131  0.4265648405347449  0.2586151985834562  1.0000
  O   O1        1.0  0.07855117327366659  0.8876189860918515  0.97999650954376  1.0000
  O   O2        1.0  0.5785476464354957  0.6123840356599289  0.5200106148168189  1.0000
  O   O3        1.0  0.9214540935509844  0.1123826684500457  0.02001028190334611  1.0000
  O   O4        1.0  0.42145349300655965  0.38761740887088786  0.4799901916457046  1.0000
  O   O5        1.0  0.05001390899480639  0.708764867079438  0.011643873631392446  1.0000
  O   O6        1.0  0.5500023796233364  0.7912310709983855  0.4883569612049357  1.0000
  O   O7        1.0  0.9499851667956276  0.2912366674900325  0.9883594978175199  1.0000
  O   O8        1.0  0.4499936006880318  0.20876571293621282  0.5116414050655254  1.0000
  O   O9        1.0  0.6016547767955628  0.8601235475001658  0.8511366767229305  1.0000
  O   O10       1.0  0.10165477196660787  0.6398684580060063  0.6488550747033699  1.0000
  O   O11       1.0  0.39834636265006645  0.13987401248181897  0.14885773161054064  1.0000
  O   O12       1.0  0.8983401765503558  0.3601275498446909  0.3511472495116195  1.0000
  O   O13       1.0  0.7425409935899266  0.8830278285601664  0.008697714936580747  1.0000
  O   O14       1.0  0.2425406272222972  0.616973364587281  0.4912898938666289  1.0000
  O   O15       1.0  0.2574560183991678  0.11697988884866817  0.9912993258016345  1.0000
  O   O16       1.0  0.75745328956274  0.38301729655804445  0.5087165131004241  1.0000
  O   O17       1.0  0.8996725220615432  0.6784652879175538  0.8108394717892439  1.0000
  O   O18       1.0  0.39966308177062615  0.8215391919351374  0.6891636672900886  1.0000
  O   O19       1.0  0.100326553694785  0.32153998116676513  0.189166022805118  1.0000
  O   O20       1.0  0.6003359940919494  0.17845391747081854  0.3108342858340123  1.0000
