data_image0
_chemical_formula_structural       Ni2H46C38S2N12O12
_chemical_formula_sum              "Ni2 H46 C38 S2 N12 O12"
_cell_length_a       8.592131815323235
_cell_length_b       11.610897096094353
_cell_length_c       12.876999779543688
_cell_angle_alpha    85.7991009555168
_cell_angle_beta     79.00002260478747
_cell_angle_gamma    73.73723855735479

_space_group_name_H-M_alt    "P 1"
_space_group_IT_number       1

loop_
  _space_group_symop_operation_xyz
  'x, y, z'

loop_
  _atom_site_type_symbol
  _atom_site_label
  _atom_site_symmetry_multiplicity
  _atom_site_fract_x
  _atom_site_fract_y
  _atom_site_fract_z
  _atom_site_occupancy
  Ni  Ni1       1.0  0.04827945343629379  0.2630435973196512  0.698634203874896  1.0000
  Ni  Ni2       1.0  0.9517135983602001  0.7369532889413578  0.30136787157042033  1.0000
  H   H1        1.0  0.851734713175162  0.275988314105831  0.556551640270776  1.0000
  H   H2        1.0  0.14827139015908133  0.7240084838591656  0.4434471457828977  1.0000
  H   H3        1.0  0.72641426612622  0.2646507445144906  0.6634829437595685  1.0000
  H   H4        1.0  0.2735857571047261  0.7353496279530348  0.33651403672928387  1.0000
  H   H5        1.0  0.2083798934980479  0.4140525551023729  0.6211991007459119  1.0000
  H   H6        1.0  0.791611249615485  0.5859460063711879  0.37879532797093424  1.0000
  H   H7        1.0  0.3714650460952171  0.9629301959933584  0.2167182451470993  1.0000
  H   H8        1.0  0.6285461751886955  0.0370657567325097  0.7832845854974267  1.0000
  H   H9        1.0  0.3281395596156074  0.24800188020601155  0.9791938706408774  1.0000
  H   H10       1.0  0.6718554318325333  0.751999500054602  0.02080913763083458  1.0000
  H   H11       1.0  0.5265213115497075  0.2762108189111032  0.2560625776661922  1.0000
  H   H12       1.0  0.4734846701087107  0.7237895623017396  0.7439359364003693  1.0000
  H   H13       1.0  0.5552276099937643  0.9635819463411863  0.3420350177274756  1.0000
  H   H14       1.0  0.4447708626735647  0.0364230749318963  0.6579718928552654  1.0000
  H   H15       1.0  0.587705240700295  0.10065397608896381  0.3746359469110416  1.0000
  H   H16       1.0  0.4122891379129143  0.8993592012153114  0.6253755145191207  1.0000
  H   H17       1.0  0.21464710960448494  0.08558101180027929  0.9637458060665196  1.0000
  H   H18       1.0  0.7853607608522354  0.9144176566875544  0.036258030334572325  1.0000
  H   H19       1.0  0.35471509706548693  0.9507687068335924  0.9961030351836158  1.0000
  H   H20       1.0  0.6452888829194449  0.0492308761648417  0.003901247251249628  1.0000
  H   H21       1.0  0.5384274060440006  0.42081644476193253  0.1109950187339734  1.0000
  H   H22       1.0  0.4615711485298207  0.5791849182384041  0.8890075150480002  1.0000
  H   H23       1.0  0.487923339820263  0.3935724622927239  0.9879391716341532  1.0000
  H   H24       1.0  0.5120844842389118  0.6064261186660572  0.012059241181098902  1.0000
  H   H25       1.0  0.2733546183126945  0.9254024555892716  0.4138002697692826  1.0000
  H   H26       1.0  0.7266408464978297  0.07460060088119749  0.5861955502454421  1.0000
  H   H27       1.0  0.033944329377746385  0.0248444051322352  0.5892832894826584  1.0000
  H   H28       1.0  0.9660572598456838  0.9751452368466361  0.41071589840022693  1.0000
  H   H29       1.0  0.3690995532459169  0.2354358350654095  0.5115859903522804  1.0000
  H   H30       1.0  0.6308971478431359  0.764561196489268  0.4884256829770308  1.0000
  H   H31       1.0  0.9254478019964975  0.1493926258947482  0.09231362788067095  1.0000
  H   H32       1.0  0.0745554901551415  0.8506086890835646  0.9076867236523614  1.0000
  H   H33       1.0  0.7604245763161613  0.006592039292371502  0.22856302520756347  1.0000
  H   H34       1.0  0.23956703116368058  0.9934119942094526  0.7714371148308248  1.0000
  H   H35       1.0  0.25713791175683554  0.8121323417270219  0.14215074808658562  1.0000
  H   H36       1.0  0.7428599041303556  0.1878645465285729  0.8578522443017109  1.0000
  H   H37       1.0  0.201261962521464  0.4945404283309642  0.9512507713100646  1.0000
  H   H38       1.0  0.7987451803326311  0.505459897111848  0.048744485401336066  1.0000
  H   H39       1.0  0.9335785443812056  0.6649782805681355  0.06583905794515486  1.0000
  H   H40       1.0  0.06642670304636061  0.3350237450955333  0.9341501016337264  1.0000
  H   H41       1.0  0.29698188969285877  0.5347423447077374  0.2553930925910066  1.0000
  H   H42       1.0  0.7030161562050522  0.4652633862533975  0.7446021675660861  1.0000
  H   H43       1.0  0.06818214966641278  0.3706724614199289  0.4608653537697195  1.0000
  H   H44       1.0  0.9318125698292476  0.6293261078016529  0.5391301500533459  1.0000
  H   H45       1.0  0.18632541597883545  0.47465765259809  0.4598245785560594  1.0000
  H   H46       1.0  0.8136672223046942  0.5253399683592762  0.5401673960595731  1.0000
  C   C1        1.0  0.45045537687794024  0.1149619476051242  0.247615512772704  1.0000
  C   C2        1.0  0.5495519473059717  0.8850349071271991  0.7523869891076133  1.0000
  C   C3        1.0  0.3824538653302553  0.051928191511102305  0.1885029265063238  1.0000
  C   C4        1.0  0.6175482788821399  0.9480732042455458  0.8115022319778261  1.0000
  C   C5        1.0  0.3346160578779375  0.10029020555124653  0.09316762983984721  1.0000
  C   C6        1.0  0.6653868295613776  0.899705749936167  0.9068339835534547  1.0000
  C   C7        1.0  0.3588820014224581  0.21093782434186178  0.05561839657059411  1.0000
  C   C8        1.0  0.6411288792589219  0.7890590006260325  0.9443828560220098  1.0000
  C   C9        1.0  0.42793239793655136  0.27445014177344257  0.11421842562697292  1.0000
  C   C10       1.0  0.5720718563687157  0.7255484439414631  0.885779686880028  1.0000
  C   C11       1.0  0.4728170704852204  0.22647238565066627  0.21036381866102977  1.0000
  C   C12       1.0  0.5271895923782708  0.7735262510781383  0.7896378515093759  1.0000
  C   C13       1.0  0.4989438473695954  0.060588702811479316  0.3506747392898434  1.0000
  C   C14       1.0  0.5010637797354673  0.9394171321720465  0.649328553137039  1.0000
  C   C15       1.0  0.26158183573884497  0.030910660307050412  0.030008980894479  1.0000
  C   C16       1.0  0.7384216112297184  0.9690871339441786  0.969995516615562  1.0000
  C   C17       1.0  0.44813561242011707  0.3954264620139085  0.07404544742810515  1.0000
  C   C18       1.0  0.5518698362219324  0.6045721304517215  0.925953281713632  1.0000
  C   C19       1.0  0.25181348666663445  0.0049574553782321005  0.45972358489806453  1.0000
  C   C20       1.0  0.7481826262078572  0.9950437940874437  0.5402715172306145  1.0000
  C   C21       1.0  0.1363522768687773  0.05525994181022039  0.5454409396757924  1.0000
  C   C22       1.0  0.8636463529833309  0.9447377504132105  0.4545564425074389  1.0000
  C   C23       1.0  0.3063030087334723  0.16685844661802918  0.5083671478109721  1.0000
  C   C24       1.0  0.69368916944412  0.8331375231377863  0.4916335646575973  1.0000
  C   C25       1.0  0.9676673523374933  0.05932631753200471  0.12428844477064153  1.0000
  C   C26       1.0  0.032334212460995146  0.9406732019483782  0.8757115052028369  1.0000
  C   C27       1.0  0.8885126889386967  0.9884535959707105  0.19233496118620513  1.0000
  C   C28       1.0  0.11148519768649828  0.011549536521954498  0.8076659660878819  1.0000
  C   C29       1.0  0.14208352621023573  0.8823075701728058  0.146912915769569  1.0000
  C   C30       1.0  0.8579085568044107  0.11769203284745088  0.8530906239038105  1.0000
  C   C31       1.0  0.1782100656249028  0.5296112290302304  0.0303256547181903  1.0000
  C   C32       1.0  0.8217946885556273  0.47038908291113285  0.9696683687237385  1.0000
  C   C33       1.0  0.049366918229722515  0.613124552433078  0.0871451404731758  1.0000
  C   C34       1.0  0.9506365133099733  0.3868793235012618  0.9128472195489368  1.0000
  C   C35       1.0  0.23164710654042864  0.5473193664964526  0.18951209784878392  1.0000
  C   C36       1.0  0.7683486922444159  0.4526828052278448  0.8104845254198807  1.0000
  C   C37       1.0  0.07689700153429875  0.44822484959345826  0.5019929513026824  1.0000
  C   C38       1.0  0.9230973906152685  0.5517746168784399  0.49800252406441814  1.0000
  S   S1        1.0  0.4073882023662351  0.3043517915518521  0.735879443944647  1.0000
  S   S2        1.0  0.5926071296844456  0.6956487164667422  0.2641251423789868  1.0000
  N   N1        1.0  0.17184584026392713  0.1557064008484588  0.5749252997614108  1.0000
  N   N2        1.0  0.8281529775462175  0.8442878331686288  0.4250801023887191  1.0000
  N   N3        1.0  0.3581925629882292  0.0768431391912685  0.43773272067041097  1.0000
  N   N4        1.0  0.6418047641077109  0.9231581545375819  0.5622653224869367  1.0000
  N   N5        1.0  0.9983010220954257  0.8788203699264231  0.20638197045581558  1.0000
  N   N6        1.0  0.0016903730859283094  0.12118096507371938  0.7936176383157374  1.0000
  N   N7        1.0  0.12789375497604977  0.9903156876921172  0.09556973230681362  1.0000
  N   N8        1.0  0.8721105324703161  0.0096829605435502  0.9044322541900771  1.0000
  N   N9        1.0  0.08441817462685462  0.6230636241644092  0.18579036119131595  1.0000
  N   N10       1.0  0.9155822268035294  0.3769420577774198  0.8142022582453451  1.0000
  N   N11       1.0  0.292637734701195  0.4895862664154293  0.09647376637643389  1.0000
  N   N12       1.0  0.7073663846718006  0.5104158775390246  0.9035225245474977  1.0000
  O   O1        1.0  0.28119312423636694  0.23332384934897735  0.7545372608172087  1.0000
  O   O2        1.0  0.7188052379236324  0.7666748526621275  0.24546706609186944  1.0000
  O   O3        1.0  0.8283241495441444  0.2930777041944381  0.6314692565555121  1.0000
  O   O4        1.0  0.1716782689885861  0.7069226942786884  0.3685297320007806  1.0000
  O   O5        1.0  0.5749967415608027  0.21543659642667018  0.7104712202986578  1.0000
  O   O6        1.0  0.42499823000267156  0.7845647463214932  0.2895294635791146  1.0000
  O   O7        1.0  0.39704150940777794  0.37074832543090963  0.8315307223964653  1.0000
  O   O8        1.0  0.6029573725121508  0.6292521403191033  0.16847183984148023  1.0000
  O   O9        1.0  0.3828843537145446  0.3873187277860809  0.642092564474197  1.0000
  O   O10       1.0  0.6170996541515379  0.6126836640264556  0.3579157128006401  1.0000
  O   O11       1.0  0.09194439926432812  0.41789094179780767  0.6098487623884737  1.0000
  O   O12       1.0  0.908051289013187  0.5821049106645192  0.3901452772065284  1.0000
