data_image0
_chemical_formula_structural       Hg4H40C48Br8N16
_chemical_formula_sum              "Hg4 H40 C48 Br8 N16"
_cell_length_a       4.9493747640758325
_cell_length_b       12.920407996447821
_cell_length_c       23.301727946105153
_cell_angle_alpha    90.00017252484476
_cell_angle_beta     89.99969387187274
_cell_angle_gamma    93.3116834248664

_space_group_name_H-M_alt    "P 1"
_space_group_IT_number       1

loop_
  _space_group_symop_operation_xyz
  'x, y, z'

loop_
  _atom_site_type_symbol
  _atom_site_label
  _atom_site_symmetry_multiplicity
  _atom_site_fract_x
  _atom_site_fract_y
  _atom_site_fract_z
  _atom_site_occupancy
  Hg  Hg1       1.0  0.895715203459595  0.7590277513749939  0.605896826663461  1.0000
  Hg  Hg2       1.0  0.604275496593388  0.7409707808524358  0.10590572967618782  1.0000
  Hg  Hg3       1.0  0.10428470300378478  0.24097539107459912  0.3940949507730524  1.0000
  Hg  Hg4       1.0  0.395715385938054  0.2590261608304942  0.8941019264109829  1.0000
  H   H1        1.0  0.6873366526336896  0.9467227540930099  0.6888845092563403  1.0000
  H   H2        1.0  0.8126567582307729  0.5532808334524475  0.18888685459085516  1.0000
  H   H3        1.0  0.312659801740743  0.053284265347187394  0.3111145637816578  1.0000
  H   H4        1.0  0.18734457972943366  0.4467184323696927  0.8111126475906193  1.0000
  H   H5        1.0  0.35189968448601405  0.982771221504585  0.7666051452952588  1.0000
  H   H6        1.0  0.1480922775649773  0.5172300108172649  0.26660504121636563  1.0000
  H   H7        1.0  0.6480898843065646  0.0172303720707845  0.233395215200254  1.0000
  H   H8        1.0  0.8519110808082928  0.48276925467727955  0.7333940318112369  1.0000
  H   H9        1.0  0.10302826162703128  0.6571747566591881  0.7638730270621893  1.0000
  H   H10       1.0  0.39697173134495495  0.842825685778351  0.2638727578215311  1.0000
  H   H11       1.0  0.8969753322674521  0.3428260593642918  0.2361264751193063  1.0000
  H   H12       1.0  0.6030335296834153  0.15717280412360415  0.7361254568989042  1.0000
  H   H13       1.0  0.4592473726598029  0.6338538583608583  0.6887264479741548  1.0000
  H   H14       1.0  0.040754464536270484  0.8661462178844346  0.18872662007125748  1.0000
  H   H15       1.0  0.5407544363533461  0.3661485085170639  0.31127305420964296  1.0000
  H   H16       1.0  0.9592549550867346  0.1338530466252337  0.8112703071893111  1.0000
  H   H17       1.0  0.9908210729555548  0.91946472310169  0.8332298334703198  1.0000
  H   H18       1.0  0.5091835456085576  0.5805302620497343  0.33322527156867215  1.0000
  H   H19       1.0  0.0091696919285056  0.0805314432942907  0.16676838125636106  1.0000
  H   H20       1.0  0.4908311109373286  0.4194635746243094  0.6667682224626149  1.0000
  H   H21       1.0  0.5075177522997407  0.6432173465136943  0.8713274789940118  1.0000
  H   H22       1.0  0.9924674935946387  0.8567894565255755  0.37132755441939486  1.0000
  H   H23       1.0  0.49247978034501466  0.3567834704946692  0.12867416895451814  1.0000
  H   H24       1.0  0.007522546224556895  0.14321523811079828  0.628674951842058  1.0000
  H   H25       1.0  0.04881902512703821  0.8926886821654848  0.036386004102539005  1.0000
  H   H26       1.0  0.4511800185477455  0.6073075516301716  0.5363819343039467  1.0000
  H   H27       1.0  0.9511879029509699  0.10730748163168613  0.963617789600413  1.0000
  H   H28       1.0  0.5488315392094377  0.39269248782421334  0.463617997025125  1.0000
  H   H29       1.0  0.40376121818287913  0.8900278357622258  0.9596031718433696  1.0000
  H   H30       1.0  0.09623920816039086  0.6099681326410006  0.4595985609016325  1.0000
  H   H31       1.0  0.5962421401324676  0.1099714297438226  0.040400621864193915  1.0000
  H   H32       1.0  0.9037639146442872  0.39002958233401586  0.5404039453465971  1.0000
  H   H33       1.0  0.1345583640850805  0.570949286898653  0.9268968986046179  1.0000
  H   H34       1.0  0.36542562328691014  0.9290527271908573  0.4268985259387892  1.0000
  H   H35       1.0  0.865427634955374  0.4290554083835119  0.07310260359005842  1.0000
  H   H36       1.0  0.634565730365935  0.07094731553425498  0.5731035511653105  1.0000
  H   H37       1.0  0.7950567877979396  0.5865599278464373  0.005605205725956401  1.0000
  H   H38       1.0  0.7049168761811657  0.913442770485517  0.5056066471891825  1.0000
  H   H39       1.0  0.2049313494188212  0.41344554237206665  0.994393867315438  1.0000
  H   H40       1.0  0.2950766156743114  0.086558047170719  0.4943928549980185  1.0000
  C   C1        1.0  0.5551178762820399  0.8848603065993431  0.7074076219701129  1.0000
  C   C2        1.0  0.9448744911927632  0.6151394948872736  0.20740863408165214  1.0000
  C   C3        1.0  0.4448774004494992  0.1151389602034953  0.2925923093675068  1.0000
  C   C4        1.0  0.055126846783238606  0.3848597709317332  0.7925895806416466  1.0000
  C   C5        1.0  0.3669855667867735  0.9045000494562245  0.7498788438808647  1.0000
  C   C6        1.0  0.1330026471817547  0.5955003267459347  0.24987845871700648  1.0000
  C   C7        1.0  0.632999725658472  0.09549999424540799  0.2501219457684912  1.0000
  C   C8        1.0  0.866994767736621  0.4044997149911679  0.7501201851618832  1.0000
  C   C9        1.0  0.1989130389532789  0.8221891128770695  0.7712047561590154  1.0000
  C   C10       1.0  0.3010842826159319  0.6778082645608381  0.2712051772705664  1.0000
  C   C11       1.0  0.8010798640965503  0.17780782845735393  0.2287938877198244  1.0000
  C   C12       1.0  0.6989208606386725  0.3221894500792716  0.7287938957547341  1.0000
  C   C13       1.0  0.23153689669089053  0.7227180803762251  0.7487470924801514  1.0000
  C   C14       1.0  0.2684594266821563  0.7772822890050152  0.2487468586517282  1.0000
  C   C15       1.0  0.7684624208667827  0.2772811857714217  0.2512519805497391  1.0000
  C   C16       1.0  0.7315458343514862  0.2227162008959027  0.7512509269159867  1.0000
  C   C17       1.0  0.42757356861181944  0.7097444960422975  0.7072873846539238  1.0000
  C   C18       1.0  0.07242377224201849  0.790255671306241  0.2072882522441334  1.0000
  C   C19       1.0  0.5724259844723251  0.29025632063324036  0.2927116883771249  1.0000
  C   C20       1.0  0.9275833914309215  0.2097420430052281  0.7927099624745823  1.0000
  C   C21       1.0  0.9994357446725529  0.8408364140107377  0.8155902984164884  1.0000
  C   C22       1.0  0.5005767811457531  0.6591677873765815  0.3155884527903226  1.0000
  C   C23       1.0  0.0005699873982364917  0.15916517694909518  0.18440877461172536  1.0000
  C   C24       1.0  0.4994371503194728  0.34083457754098834  0.6844106202339051  1.0000
  C   C25       1.0  0.4992425203019764  0.7193453208798245  0.8921470334412124  1.0000
  C   C26       1.0  0.0007504015642894028  0.7806565225575568  0.3921453909867482  1.0000
  C   C27       1.0  0.5007589354056704  0.2806547202094052  0.10785375619901322  1.0000
  C   C28       1.0  0.9992410698412613  0.21934429543359357  0.6078575444233751  1.0000
  C   C29       1.0  0.07610566909145433  0.8231638100649195  0.010945327925021802  1.0000
  C   C30       1.0  0.4238866238782392  0.6768369526492749  0.5109422636432228  1.0000
  C   C31       1.0  0.9238964931850758  0.1768408826100654  0.9890563200241476  1.0000
  C   C32       1.0  0.5761147140714372  0.32316231317496164  0.4890580968436994  1.0000
  C   C33       1.0  0.2727030961602921  0.8213736984141989  0.9685252734966951  1.0000
  C   C34       1.0  0.22729140324872787  0.6786246402456371  0.46852363354747706  1.0000
  C   C35       1.0  0.7272985950685609  0.17862789320395928  0.031475945297415805  1.0000
  C   C36       1.0  0.7727157603978797  0.3213730740710616  0.5314767269348551  1.0000
  C   C37       1.0  0.29877131040970534  0.7295549715749488  0.937190166695601  1.0000
  C   C38       1.0  0.2012222908977321  0.770445540506053  0.4371887098971855  1.0000
  C   C39       1.0  0.7012203965381189  0.27044739694095193  0.06281148125751912  1.0000
  C   C40       1.0  0.7987728680442459  0.22955295103807316  0.5628133672034681  1.0000
  C   C41       1.0  0.12300269223639762  0.6436642266393734  0.9502312870045558  1.0000
  C   C42       1.0  0.37698643042499214  0.8563355743838699  0.4502310629449512  1.0000
  C   C43       1.0  0.876989014727222  0.3563381418733942  0.04976907349039551  1.0000
  C   C44       1.0  0.623011102214491  0.1436652426255378  0.5497710141563061  1.0000
  C   C45       1.0  0.9341872124624402  0.651776033005234  0.9939117164991205  1.0000
  C   C46       1.0  0.5657976526549786  0.8482220635732814  0.4939118302998296  1.0000
  C   C47       1.0  0.0658021208142046  0.3482240100401555  0.0060877856897790005  1.0000
  C   C48       1.0  0.43420190041337037  0.15177875310539687  0.5060885301893876  1.0000
  Br  Br1       1.0  0.10785115909170881  0.9423249785297827  0.598001873178376  1.0000
  Br  Br2       1.0  0.3921718130914513  0.5576661244878026  0.0980213021891103  1.0000
  Br  Br3       1.0  0.8921639685545201  0.057671959190621194  0.40198775848073626  1.0000
  Br  Br4       1.0  0.6078428432701202  0.4423277122228341  0.9019872121874786  1.0000
  Br  Br5       1.0  0.9345639141870236  0.5646944958797134  0.6173086712772575  1.0000
  Br  Br6       1.0  0.565436607996901  0.9353040902939752  0.11730463974562613  1.0000
  Br  Br7       1.0  0.0654445447972591  0.4353117463518715  0.38269640989143044  1.0000
  Br  Br8       1.0  0.4345625918238696  0.06469440058450002  0.8826922875200653  1.0000
  N   N1        1.0  0.5857597043360769  0.7894598344130304  0.6867292300073943  1.0000
  N   N2        1.0  0.9142393495966417  0.7105406405935212  0.18673129473087616  1.0000
  N   N3        1.0  0.4142417513979026  0.21054020667096301  0.31326941386920754  1.0000
  N   N4        1.0  0.085766029184434  0.2894586245744719  0.8132677782955897  1.0000
  N   N5        1.0  0.8397762491872031  0.765307836992747  0.8341511806262718  1.0000
  N   N6        1.0  0.6602190690522108  0.7346925811321655  0.3341479936734971  1.0000
  N   N7        1.0  0.1602271091597416  0.23469142850702704  0.16585003816494756  1.0000
  N   N8        1.0  0.33976408523253093  0.2653066876299803  0.6658519376709651  1.0000
  N   N9        1.0  0.665331478347774  0.7954884414112654  0.8768713122102344  1.0000
  N   N10       1.0  0.8346680283428256  0.7045067570643225  0.3768683068692909  1.0000
  N   N11       1.0  0.33467735241692503  0.20450694678704198  0.12312904826920604  1.0000
  N   N12       1.0  0.16532048056483012  0.2954878591386887  0.6231333410791466  1.0000
  N   N13       1.0  0.911810861140381  0.7396439839604413  0.023721091830182704  1.0000
  N   N14       1.0  0.5881700866386268  0.7603564755424088  0.5237181173487003  1.0000
  N   N15       1.0  0.0881785898731664  0.2603568343541198  0.976280556122916  1.0000
  N   N16       1.0  0.4118234052115852  0.2396443421148717  0.47628181399122144  1.0000
