data_image0
_chemical_formula_structural       AlH9C27O6F6
_chemical_formula_sum              "Al1 H9 C27 O6 F6"
_cell_length_a       4.0170309160866715
_cell_length_b       16.065728413286436
_cell_length_c       16.06569623024663
_cell_angle_alpha    119.87989832958918
_cell_angle_beta     90.814947872422
_cell_angle_gamma    90.81281717396045

_space_group_name_H-M_alt    "P 1"
_space_group_IT_number       1

loop_
  _space_group_symop_operation_xyz
  'x, y, z'

loop_
  _atom_site_type_symbol
  _atom_site_label
  _atom_site_symmetry_multiplicity
  _atom_site_fract_x
  _atom_site_fract_y
  _atom_site_fract_z
  _atom_site_occupancy
  Al  Al1       1.0  0.9999953004419737  0.4997540611270495  0.5001728283405029  1.0000
  H   H1        1.0  0.500024270892105  0.9224835144581647  0.07740356143835928  1.0000
  H   H2        1.0  0.4784306154999811  0.6551354479781182  0.07736207522260939  1.0000
  H   H3        1.0  0.5215065797515948  0.9225270517381432  0.3447264191503052  1.0000
  H   H4        1.0  0.7600915647445204  0.0593221637453283  0.1621999725147845  1.0000
  H   H5        1.0  0.23054308704881518  0.05257081818472639  0.3929208723505085  1.0000
  H   H6        1.0  0.24000632722044202  0.8377335652780856  0.9405878684526601  1.0000
  H   H7        1.0  0.769190048738871  0.6069488714399115  0.9473392255577268  1.0000
  H   H8        1.0  0.7514443907774151  0.6040356115530798  0.16044461877792315  1.0000
  H   H9        1.0  0.24854479427813206  0.8394706783584809  0.3958662965169141  1.0000
  C   C1        1.0  0.5122258361316199  0.573137669040463  0.6473155703390034  1.0000
  C   C2        1.0  0.5000047852545962  0.5731313413832524  0.4268166331528392  1.0000
  C   C3        1.0  0.4877949643298792  0.35259680425597395  0.4267719386459277  1.0000
  C   C4        1.0  0.499835904871837  0.782723720955289  0.06520761443098873  1.0000
  C   C5        1.0  0.4999691140707014  0.883302633757438  0.1165728178063929  1.0000
  C   C6        1.0  0.5000970279195157  0.9346732812769004  0.21715027401137382  1.0000
  C   C7        1.0  0.50466129395857  0.8832827255196776  0.26652590068934506  1.0000
  C   C8        1.0  0.49998393785206474  0.7826339229400715  0.21723529074179732  1.0000
  C   C9        1.0  0.4952527289545188  0.7333412634507964  0.11659042568698655  1.0000
  C   C10       1.0  0.6246849728134833  0.19329344638321538  0.2813385617400073  1.0000
  C   C11       1.0  0.6346703221150561  0.0938513796510207  0.23056005711576694  1.0000
  C   C12       1.0  0.49669862143395  0.040780547708550295  0.2700638797865835  1.0000
  C   C13       1.0  0.35197283805634066  0.0902584201163279  0.3606399774556763  1.0000
  C   C14       1.0  0.35155412197997293  0.18980515971376372  0.40915386710661755  1.0000
  C   C15       1.0  0.4861300393047614  0.24462545935105598  0.37188803236759327  1.0000
  C   C16       1.0  0.36542251249575497  0.7693637553638479  0.9060501872030216  1.0000
  C   C17       1.0  0.37536592618241127  0.718573203105052  0.80659867855735  1.0000
  C   C18       1.0  0.5137842733082466  0.6280106348814983  0.7552823827705454  1.0000
  C   C19       1.0  0.6483358733551228  0.5907322667148945  0.8100879567559363  1.0000
  C   C20       1.0  0.6479231427764347  0.6392386385902568  0.9096348522724185  1.0000
  C   C21       1.0  0.5032844273083157  0.7298273498637897  0.9591105892669561  1.0000
  C   C22       1.0  0.6357258718403287  0.6378582861721964  0.23030613437037312  1.0000
  C   C23       1.0  0.6347148802423775  0.5892740890799287  0.2813579467269419  1.0000
  C   C24       1.0  0.5000122710231807  0.6266462198200885  0.37328266851653796  1.0000
  C   C25       1.0  0.3652858775075814  0.71857263522044  0.41064089352811106  1.0000
  C   C26       1.0  0.3642483337761108  0.7696091277123571  0.3620458579198741  1.0000
  C   C27       1.0  0.49997959866986724  0.7295376760521745  0.2703644546001768  1.0000
  O   O1        1.0  0.25001977816440757  0.39300797520420616  0.4091889778034101  1.0000
  O   O2        1.0  0.2718479250221222  0.5138101473876515  0.6057717681460629  1.0000
  O   O3        1.0  0.2686068657278042  0.5901699770287223  0.48615461268950366  1.0000
  O   O4        1.0  0.728231355530994  0.39410888846192177  0.4860875821100309  1.0000
  O   O5        1.0  0.7313981140449786  0.5137834912374685  0.4097826248248211  1.0000
  O   O6        1.0  0.7500469591711153  0.5907428338485304  0.606936686341257  1.0000
  F   F1        1.0  0.2104343123326018  0.23649858427937434  0.49662581084715646  1.0000
  F   F2        1.0  0.7598101994683688  0.24341013921229396  0.2421015126225328  1.0000
  F   F3        1.0  0.2403826425780764  0.7578045788005808  0.7564622331852249  1.0000
  F   F4        1.0  0.7893076230241931  0.5032351710423058  0.7633795762978793  1.0000
  F   F5        1.0  0.7670278895153475  0.5009172639125052  0.2383184286037832  1.0000
  F   F6        1.0  0.232996897319552  0.7616148982555727  0.49900610829586595  1.0000
