data_image0
_chemical_formula_structural       Mg5H14C20O22
_chemical_formula_sum              "Mg5 H14 C20 O22"
_cell_length_a       7.338474878734772
_cell_length_b       11.464742723048822
_cell_length_c       11.682221443194893
_cell_angle_alpha    93.4571308933253
_cell_angle_beta     76.67268587285766
_cell_angle_gamma    74.48309707133004

_space_group_name_H-M_alt    "P 1"
_space_group_IT_number       1

loop_
  _space_group_symop_operation_xyz
  'x, y, z'

loop_
  _atom_site_type_symbol
  _atom_site_label
  _atom_site_symmetry_multiplicity
  _atom_site_fract_x
  _atom_site_fract_y
  _atom_site_fract_z
  _atom_site_occupancy
  Mg  Mg1       1.0  0.5272025716452688  0.1499547813267341  0.6891745391135302  1.0000
  Mg  Mg2       1.0  0.6833442636868909  0.11711382925162889  0.3729435981929328  1.0000
  Mg  Mg3       1.0  0.47279661513029225  0.8500478250585601  0.3108310179806609  1.0000
  Mg  Mg4       1.0  0.316657631037607  0.8828858373501803  0.6270563494868425  1.0000
  Mg  Mg5       1.0  0.9999973017133497  2.139962077796674e-06  0.5000058809238439  1.0000
  H   H1        1.0  0.6716478840354937  0.969008110085916  0.5338758214376256  1.0000
  H   H2        1.0  0.5809888504338545  0.3617343143586211  0.671295492836272  1.0000
  H   H3        1.0  0.7810497655258786  0.2772496431413245  0.6817940693337334  1.0000
  H   H4        1.0  0.5478880093038114  0.24894715437689993  0.21081199754958385  1.0000
  H   H5        1.0  0.7134458001497208  0.29026051541637793  0.24968691250888492  1.0000
  H   H6        1.0  0.3059140820561551  0.5098275758583456  0.5492488397880138  1.0000
  H   H7        1.0  0.2860944372212373  0.05642441498112298  0.03552942515973708  1.0000
  H   H8        1.0  0.3283422976337462  0.0309990277396892  0.4661285898517917  1.0000
  H   H9        1.0  0.4190021839833307  0.6382709038577445  0.3287061742179559  1.0000
  H   H10       1.0  0.21895014109720998  0.7227513865558562  0.3181933546335642  1.0000
  H   H11       1.0  0.4520775628697749  0.7510554773020599  0.7891907137715108  1.0000
  H   H12       1.0  0.2865347492476572  0.7097431345430891  0.7502956728274128  1.0000
  H   H13       1.0  0.694098164787725  0.49017400192148136  0.4507548007179807  1.0000
  H   H14       1.0  0.7138867966595015  0.9435681407590548  0.9644724643124148  1.0000
  C   C1        1.0  0.3005112110913045  0.2802005937764989  0.516984769190543  1.0000
  C   C2        1.0  0.13908070853474191  0.3908748499128406  0.5096853128303138  1.0000
  C   C3        1.0  0.1710207162680603  0.5044865490533681  0.5279297468846025  1.0000
  C   C4        1.0  0.9639611103942368  0.386747642314063  0.48191991619973606  1.0000
  C   C5        1.0  0.9095448652288524  0.27010505652963696  0.4715691860087928  1.0000
  C   C6        1.0  0.10963533529579927  0.9780705434919948  0.22330281499598922  1.0000
  C   C7        1.0  0.04410650711241002  0.9896500338493652  0.11081131272931796  1.0000
  C   C8        1.0  0.15963783125228295  0.0318871824231692  0.019742402230726003  1.0000
  C   C9        1.0  0.11887559667016488  0.0430311993134893  0.9092331405771645  1.0000
  C   C10       1.0  0.25790720944052475  0.0900336164537094  0.8219006827498986  1.0000
  C   C11       1.0  0.699486046027772  0.7198000555635459  0.4830167320970346  1.0000
  C   C12       1.0  0.8609333161727762  0.609103743487708  0.49031060365389567  1.0000
  C   C13       1.0  0.8289716499457711  0.4955156790264468  0.47206479543056173  1.0000
  C   C14       1.0  0.036045080257558516  0.6132644853516992  0.5180737477634949  1.0000
  C   C15       1.0  0.09046429980038087  0.7298908457256913  0.5284278963434801  1.0000
  C   C16       1.0  0.8903729920354095  0.021927246737533296  0.7766961520525301  1.0000
  C   C17       1.0  0.9559017041230788  0.010351261266656303  0.8891594998269313  1.0000
  C   C18       1.0  0.8403927703642465  0.96811087565937  0.9802661978503051  1.0000
  C   C19       1.0  0.881114549468428  0.9569569565910142  0.09079817667555547  1.0000
  C   C20       1.0  0.7420910952813886  0.9099678374161825  0.1780981189768197  1.0000
  O   O1        1.0  0.3474913117265572  0.27603378784017707  0.6146276355605949  1.0000
  O   O2        1.0  0.3868162091941016  0.20501359706080538  0.4228762117493616  1.0000
  O   O3        1.0  0.9895909643466609  0.1843395955592868  0.5244042063316385  1.0000
  O   O4        1.0  0.7782608099616867  0.26691579597145676  0.41765337869624364  1.0000
  O   O5        1.0  0.9813647143846466  0.016324535473913195  0.3232563578673577  1.0000
  O   O6        1.0  0.2895711582629232  0.9323994310161011  0.21243616099376783  1.0000
  O   O7        1.0  0.29279562986683055  0.18746140826458194  0.8509172782650579  1.0000
  O   O8        1.0  0.3540205329793196  0.025686852090416292  0.7198505997672129  1.0000
  O   O9        1.0  0.6984517302336924  0.0481158779371285  0.5308227481968686  1.0000
  O   O10       1.0  0.6393347192501934  0.29953935676336835  0.7159890497124266  1.0000
  O   O11       1.0  0.680327380831372  0.2191706214819931  0.21997869908981466  1.0000
  O   O12       1.0  0.6525029982330608  0.7239640366546636  0.38537079040333566  1.0000
  O   O13       1.0  0.6131757825263549  0.794992615495708  0.5771279129776373  1.0000
  O   O14       1.0  0.010408684672917445  0.8156587783333363  0.47560973585923694  1.0000
  O   O15       1.0  0.22175842458139539  0.7330795413387745  0.582329384299392  1.0000
  O   O16       1.0  0.018626018073390996  0.9836749864482924  0.6767631873467295  1.0000
  O   O17       1.0  0.710447445938044  0.0676004285666991  0.7875707965756648  1.0000
  O   O18       1.0  0.7072039767183612  0.8125465831287925  0.14908664909991387  1.0000
  O   O19       1.0  0.6459947208907619  0.9742984952145406  0.28013161530778763  1.0000
  O   O20       1.0  0.30154219114324826  0.9518922916646347  0.4691854323367508  1.0000
  O   O21       1.0  0.3606670116798938  0.7004638514244234  0.2840084468340578  1.0000
  O   O22       1.0  0.31965102821056485  0.7808315143229334  0.7800118639850098  1.0000
