data_image0
_chemical_formula_structural       Zn2H10C26Br4N2O10
_chemical_formula_sum              "Zn2 H10 C26 Br4 N2 O10"
_cell_length_a       10.59901265170439
_cell_length_b       11.896816284324434
_cell_length_c       17.397136081898616
_cell_angle_alpha    86.33154578406804
_cell_angle_beta     98.54961100032851
_cell_angle_gamma    89.90728015834245

_space_group_name_H-M_alt    "P 1"
_space_group_IT_number       1

loop_
  _space_group_symop_operation_xyz
  'x, y, z'

loop_
  _atom_site_type_symbol
  _atom_site_label
  _atom_site_symmetry_multiplicity
  _atom_site_fract_x
  _atom_site_fract_y
  _atom_site_fract_z
  _atom_site_occupancy
  Zn  Zn1       1.0  0.6314000500162962  0.49969221958605187  0.5027592750999405  1.0000
  Zn  Zn2       1.0  0.36837290537351924  0.500223568375219  0.4974099549861108  1.0000
  H   H1        1.0  0.3852591853935082  0.3631315787295932  0.734628595979814  1.0000
  H   H2        1.0  0.735018875203089  0.2625960639166536  0.06496563282158263  1.0000
  H   H3        1.0  0.6164244195994187  0.6376093526209914  0.267188600412574  1.0000
  H   H4        1.0  0.6942903755194437  0.5837447304203421  0.9054079239217148  1.0000
  H   H5        1.0  0.30452672227966815  0.42429442503028275  0.0931505101410934  1.0000
  H   H6        1.0  0.37529756444984497  0.7544506418504966  0.026067673427945706  1.0000
  H   H7        1.0  0.24280272867970612  0.6595042723583687  0.019666118001978795  1.0000
  H   H8        1.0  0.2696004282043631  0.7469237414878479  0.9358354134568715  1.0000
  H   H9        1.0  0.7618369528200758  0.3532374303857964  0.9826177747277216  1.0000
  H   H10       1.0  0.6332595271455191  0.25421782197236104  0.9733655526318473  1.0000
  C   C1        1.0  0.49971014975757566  0.28090398578092396  0.5004581641929136  1.0000
  C   C2        1.0  0.4742099222439366  0.5126627514880083  0.3489155346366176  1.0000
  C   C3        1.0  0.5398526706260968  0.4801022833785283  0.7387299120256401  1.0000
  C   C4        1.0  0.46001481222679536  0.5224543191053995  0.2614238194544285  1.0000
  C   C5        1.0  0.4552138493235561  0.4088531877179378  0.7727027542608411  1.0000
  C   C6        1.0  0.5459716968047986  0.5934472726517299  0.22841028508701566  1.0000
  C   C7        1.0  0.45878072419098  0.39882754456776587  0.8529720539793075  1.0000
  C   C8        1.0  0.5429944222840675  0.6052071519517028  0.14822919671152593  1.0000
  C   C9        1.0  0.543677235158775  0.4624540734862562  0.9021817283285999  1.0000
  C   C10       1.0  0.4572677486447391  0.5436431128479312  0.09809638587444172  1.0000
  C   C11       1.0  0.6289908501157626  0.5326304554727911  0.8681476393143869  1.0000
  C   C12       1.0  0.5002091543653648  0.7190580868863564  0.49972846755070316  1.0000
  C   C13       1.0  0.37047739161632626  0.4738790451322004  0.1311460453468527  1.0000
  C   C14       1.0  0.6287274072797545  0.5404640913035195  0.7877236249238209  1.0000
  C   C15       1.0  0.3702444147363195  0.46426323176897444  0.21150912738007582  1.0000
  C   C16       1.0  0.5380144621596941  0.4649239120594473  0.98664299954212  1.0000
  C   C17       1.0  0.4635456398347132  0.5421232854517513  0.013651210027525522  1.0000
  C   C18       1.0  0.3158933038539047  0.6984063060070865  0.9880780875112268  1.0000
  C   C19       1.0  0.6888616913093061  0.3110288643613686  0.012657240983287505  1.0000
  C   C20       1.0  0.4997069359263193  0.15956824762647404  0.5000240596515725  1.0000
  C   C21       1.0  0.5001018241739388  0.840396361821675  0.5001174686125012  1.0000
  C   C22       1.0  0.4997289266461351  0.05673011588494599  0.5000462711994018  1.0000
  C   C23       1.0  0.4999744695940365  0.9432349283956541  0.5000816188410369  1.0000
  C   C24       1.0  0.0634169628294785  0.500471279583003  0.49789805214818034  1.0000
  C   C25       1.0  0.9363163643325407  0.4998808780049443  0.5021440797119823  1.0000
  C   C26       1.0  0.5253832706105542  0.48812013131644255  0.6512306364408289  1.0000
  Br  Br1       1.0  0.2519018651247152  0.36219351241861375  0.24904749689265065  1.0000
  Br  Br2       1.0  0.7449051283119277  0.6432047832874518  0.7486011127103114  1.0000
  Br  Br3       1.0  0.6607952383485838  0.7040315846240901  0.10659977517174472  1.0000
  Br  Br4       1.0  0.3426971852285945  0.2998647146626538  0.8960993805347641  1.0000
  N   N1        1.0  0.1723303304314356  0.5009257484997464  0.4940809190881481  1.0000
  N   N2        1.0  0.8274195269232366  0.49927233162976137  0.506026854032072  1.0000
  O   O1        1.0  0.6076437351560529  0.3282380027415072  0.5016056747697276  1.0000
  O   O2        1.0  0.6078669869262471  0.39081131416732967  0.04051604924241301  1.0000
  O   O3        1.0  0.3923475937675606  0.6716470516474972  0.49875737353863053  1.0000
  O   O4        1.0  0.39169864720295783  0.32850184678654404  0.49980898079060415  1.0000
  O   O5        1.0  0.6082108074600114  0.6715295335685099  0.5002207674298021  1.0000
  O   O6        1.0  0.6261347742073582  0.48977923354717484  0.619844885502836  1.0000
  O   O7        1.0  0.3734149662944546  0.5106464002770749  0.3802564511469271  1.0000
  O   O8        1.0  0.4109207518716432  0.4904184568118453  0.6162722502708746  1.0000
  O   O9        1.0  0.5886458565329208  0.5095087410985711  0.3839547376683541  1.0000
  O   O10       1.0  0.39189598679487864  0.6150150970443774  0.959781262005734  1.0000
