data_image0
_chemical_formula_structural       Zn4H54C83N20
_chemical_formula_sum              "Zn4 H54 C83 N20"
_cell_length_a       18.72993177074427
_cell_length_b       19.189379442288466
_cell_length_c       21.378415458864932
_cell_angle_alpha    106.49721518229049
_cell_angle_beta     105.38841037521654
_cell_angle_gamma    110.94217426648835

_space_group_name_H-M_alt    "P 1"
_space_group_IT_number       1

loop_
  _space_group_symop_operation_xyz
  'x, y, z'

loop_
  _atom_site_type_symbol
  _atom_site_label
  _atom_site_symmetry_multiplicity
  _atom_site_fract_x
  _atom_site_fract_y
  _atom_site_fract_z
  _atom_site_occupancy
  Zn  Zn1       1.0  0.8672811864581295  0.892532518487343  0.4655897354797817  1.0000
  Zn  Zn2       1.0  0.10054248494472522  0.09940651818515533  0.4955775525508272  1.0000
  Zn  Zn3       1.0  0.07989562041991861  0.030191951863301418  0.6288487192612636  1.0000
  Zn  Zn4       1.0  0.8951515174103336  0.007462039004906378  0.37811195670494163  1.0000
  H   H1        1.0  0.8705507078853144  0.9161343796688824  0.7080242304647868  1.0000
  H   H2        1.0  0.21686195893953913  0.03081121283015882  0.4607893131063463  1.0000
  H   H3        1.0  0.09812061733184414  0.8826119308293698  0.6217531506904166  1.0000
  H   H4        1.0  0.9115523556227245  0.8763410156903219  0.2630017679760074  1.0000
  H   H5        1.0  0.1729403063975141  0.057166352115849896  0.3620024767066852  1.0000
  H   H6        1.0  0.7566583600045435  0.8509947633780753  0.20888295710400231  1.0000
  H   H7        1.0  0.27490061585777437  0.04839287394880648  0.6762237869420815  1.0000
  H   H8        1.0  0.36933051541745243  0.1336343685696876  0.5137639389973572  1.0000
  H   H9        1.0  0.39213228765063246  0.015807427140529767  0.6568626289772582  1.0000
  H   H10       1.0  0.5250514706807722  0.01106855005837562  0.7092153799269029  1.0000
  H   H11       1.0  0.0866943703425136  0.2538277493055078  0.5796990048352981  1.0000
  H   H12       1.0  0.6579656783999611  0.020685332028065866  0.7033520446941922  1.0000
  H   H13       1.0  0.7504987838935336  0.03834468391084301  0.6384980531586706  1.0000
  H   H14       1.0  0.7283789586047433  0.1577071143888135  0.49616855463372644  1.0000
  H   H15       1.0  0.621620977966657  0.20595238306461996  0.4768111743718678  1.0000
  H   H16       1.0  0.48770891163052  0.1946707372901244  0.4813638816504238  1.0000
  H   H17       1.0  0.10251444427670722  0.7534385988991306  0.581507882153801  1.0000
  H   H18       1.0  0.8558837189896951  0.6473182702672774  0.5792178113450603  1.0000
  H   H19       1.0  0.7940195833867209  0.5074334972835929  0.57585787676868  1.0000
  H   H20       1.0  0.7965462615126597  0.37501994758281393  0.5543235795186945  1.0000
  H   H21       1.0  0.8639837175167245  0.2868204925239868  0.5205712065356283  1.0000
  H   H22       1.0  0.1862080344501749  0.1898298176564595  0.7568259318889546  1.0000
  H   H23       1.0  0.11593092345329128  0.3988881821850541  0.5357380091520555  1.0000
  H   H24       1.0  0.1926108065332599  0.5495427158478138  0.5728691052391213  1.0000
  H   H25       1.0  0.1878923566839887  0.6806363549460601  0.5902991321843913  1.0000
  H   H26       1.0  0.3196286857120469  0.26926298227177636  0.848405488880772  1.0000
  H   H27       1.0  0.46075611035481506  0.3603253851415218  0.9474770321366038  1.0000
  H   H28       1.0  0.671892507658761  0.47412898386174623  0.1256553377573937  1.0000
  H   H29       1.0  0.741255561251613  0.6025580372979533  0.2368138448414072  1.0000
  H   H30       1.0  0.4212584230774042  0.3256201775050443  0.6993298968013023  1.0000
  H   H31       1.0  0.668400476229323  0.6124836771013452  0.9993022315939514  1.0000
  H   H32       1.0  0.5610620777146879  0.41914038184225433  0.7995175544514979  1.0000
  H   H33       1.0  0.7907568605484343  0.09735713926144027  0.43964066319479406  1.0000
  H   H34       1.0  0.7373130685583363  0.7418022344941521  0.10973585385472977  1.0000
  H   H35       1.0  0.9226989233201621  0.8166692201203815  0.16364115482116398  1.0000
  H   H36       1.0  0.9270356223537422  0.7700912198225609  0.04503797192400331  1.0000
  H   H37       1.0  0.8667390620056779  0.7715321897229759  0.855628727194862  1.0000
  H   H38       1.0  0.8659988931353343  0.8266459681527679  0.7633202005219533  1.0000
  H   H39       1.0  0.1884012092236063  0.9827448272209978  0.25896599685677296  1.0000
  H   H40       1.0  0.13536938455462183  0.8814278876423813  0.9408443752099701  1.0000
  H   H41       1.0  0.19142900403124946  0.9333756652380033  0.1392161856563305  1.0000
  H   H42       1.0  0.13580855486655  0.9366094761722297  0.8492510607333801  1.0000
  H   H43       1.0  0.28901782195271863  0.250875674955573  0.608970782159993  1.0000
  H   H44       1.0  0.8482143833664252  0.005550111746096274  0.6003272252074439  1.0000
  H   H45       1.0  0.8887538097222036  0.18765147963407006  0.3801181309463644  1.0000
  H   H46       1.0  0.1369971198250184  0.999865185383868  0.7717541693011897  1.0000
  H   H47       1.0  0.8123655795461319  0.7259195955684632  0.3399510939433412  1.0000
  H   H48       1.0  0.6313934387915339  0.6477733153931738  0.44258736026510104  1.0000
  H   H49       1.0  0.6630019814536325  0.5882147869066116  0.48246167863730705  1.0000
  H   H50       1.0  0.6282638210398517  0.654438666298958  0.526264860020632  1.0000
  H   H51       1.0  0.7860768634214779  0.718382638010617  0.5837227143390606  1.0000
  H   H52       1.0  0.7548807333605226  0.7780937873378451  0.545401819802585  1.0000
  H   H53       1.0  0.7752578511026158  0.7154114106815684  0.4371057785182445  1.0000
  H   H54       1.0  0.8025686085171558  0.6502711418516613  0.47086830217487835  1.0000
  C   C1        1.0  0.9358745077671742  0.9436157182038659  0.7158284657884763  1.0000
  C   C2        1.0  0.9861857412078693  0.2533510379179305  0.49360736664372956  1.0000
  C   C3        1.0  0.274966938202475  0.24357690712653124  0.7091603019235607  1.0000
  C   C4        1.0  0.7992448909136628  0.06698860306224222  0.5352822597318578  1.0000
  C   C5        1.0  0.8027081280354906  0.7676508170766355  0.31753817031160014  1.0000
  C   C6        1.0  0.21746607973074117  0.033593029237636136  0.5123497806894407  1.0000
  C   C7        1.0  0.0318728306198111  0.8558857953664827  0.5883977577427046  1.0000
  C   C8        1.0  0.9736820657447043  0.9270714840252056  0.297316410838512  1.0000
  C   C9        1.0  0.10703777100291491  0.019061059857300205  0.34770917271238494  1.0000
  C   C10       1.0  0.8947784538666356  0.7761285590999167  0.5250583981146946  1.0000
  C   C11       1.0  0.7747392435960592  0.8318592574114022  0.25112870059919606  1.0000
  C   C12       1.0  0.038490577657832106  0.22504397195768183  0.5257910314681027  1.0000
  C   C13       1.0  0.2467325870099017  0.04059753418461302  0.6216152999823381  1.0000
  C   C14       1.0  0.7711082767783214  0.755542719874086  0.24587801203333026  1.0000
  C   C15       1.0  0.28349052319389056  0.04878566026494011  0.5729705023381585  1.0000
  C   C16       1.0  0.9673886070379326  0.7762183553836837  0.5660878442192967  1.0000
  C   C17       1.0  0.047319827471803  0.9469266317003926  0.2857075107451053  1.0000
  C   C18       1.0  0.40559965971658585  0.11335972432097924  0.5464841921455419  1.0000
  C   C19       1.0  0.37010266057259145  0.07046780473896774  0.582923336016542  1.0000
  C   C20       1.0  0.41887076270388235  0.04855999797236178  0.6278340518266675  1.0000
  C   C21       1.0  0.4997361980553947  0.06360856093548507  0.6332440685859737  1.0000
  C   C22       1.0  0.5330521182463386  0.10221080611091783  0.592063842315092  1.0000
  C   C23       1.0  0.19897326575275548  0.19727164893664206  0.7117729409062221  1.0000
  C   C24       1.0  0.4860721554447878  0.1297843230418182  0.5500901839536001  1.0000
  C   C25       1.0  0.5489346893234455  0.03753731383311285  0.6755401792838357  1.0000
  C   C26       1.0  0.6225033360858775  0.042936104560254915  0.6723610024396366  1.0000
  C   C27       1.0  0.6536451160996322  0.07501929741890474  0.6266326592794442  1.0000
  C   C28       1.0  0.6098054248523752  0.10841541631155856  0.589215321748057  1.0000
  C   C29       1.0  0.6405325712314465  0.1424729125189615  0.5446511311303937  1.0000
  C   C30       1.0  0.5962529569800665  0.17691316400713936  0.5085562265645578  1.0000
  C   C31       1.0  0.5221048243980206  0.17053490813123065  0.5109602916047606  1.0000
  C   C32       1.0  0.7207569004278582  0.06853883624173553  0.6130160985822997  1.0000
  C   C33       1.0  0.7454713549449182  0.09370533212031523  0.5632157871542063  1.0000
  C   C34       1.0  0.8103163052166452  0.06834916802690574  0.47274202890213984  1.0000
  C   C35       1.0  0.7082417738098955  0.13506446278057652  0.5331452895737102  1.0000
  C   C36       1.0  0.05131501851914069  0.7032320176596869  0.5817014097529737  1.0000
  C   C37       1.0  0.9768228883250175  0.7075397924287402  0.5768927168165306  1.0000
  C   C38       1.0  0.911949081899991  0.6428163732731493  0.5780499571448277  1.0000
  C   C39       1.0  0.9165663992029923  0.5708693696786471  0.5761657120892142  1.0000
  C   C40       1.0  0.9899954927376627  0.5645877150690597  0.5752861839878564  1.0000
  C   C41       1.0  0.05965504485797622  0.633581682094608  0.5816601463316148  1.0000
  C   C42       1.0  0.8484269278900457  0.5012332219644905  0.571445008989855  1.0000
  C   C43       1.0  0.8498378611106645  0.427944399098557  0.5594876112190192  1.0000
  C   C44       1.0  0.9200553590272522  0.4180680407071053  0.5521351974727013  1.0000
  C   C45       1.0  0.251239298880968  0.22774494851743304  0.6362495638818189  1.0000
  C   C46       1.0  0.992103824026053  0.48892155395150644  0.564044335729811  1.0000
  C   C47       1.0  0.06473045391026493  0.4823486402926846  0.5606569022151149  1.0000
  C   C48       1.0  0.1364023123587543  0.5544621865930709  0.5732077728547581  1.0000
  C   C49       1.0  0.13383608094027727  0.6268293772498197  0.5829323938547546  1.0000
  C   C50       1.0  0.919526397466754  0.3414277890886483  0.5311499537396359  1.0000
  C   C51       1.0  0.988757564794419  0.3339425901453624  0.5232544604002385  1.0000
  C   C52       1.0  0.06175248792578712  0.4048810836720945  0.5409787674035371  1.0000
  C   C53       1.0  0.7414035722966619  0.6816185760371314  0.18165367645499952  1.0000
  C   C54       1.0  0.7236740647594645  0.6834223867108947  0.11387896935224266  1.0000
  C   C55       1.0  0.6859690427757883  0.611766185844104  0.05187967451480801  1.0000
  C   C56       1.0  0.8372201585262857  0.02068760383461675  0.554512188824525  1.0000
  C   C57       1.0  0.6642599637164324  0.5352372244485224  0.05569027998156163  1.0000
  C   C58       1.0  0.6877983268110982  0.5335239049616904  0.12321959282495247  1.0000
  C   C59       1.0  0.7262088054254933  0.6056301079721038  0.18507259274677065  1.0000
  C   C60       1.0  0.4509632015399491  0.3512233605774001  0.8925996986917113  1.0000
  C   C61       1.0  0.3724335801840368  0.3009856967752853  0.8370062650730291  1.0000
  C   C62       1.0  0.5194193343426363  0.3963244337430326  0.8799179245767447  1.0000
  C   C63       1.0  0.35881506557865356  0.29251776640654015  0.7664404517012998  1.0000
  C   C64       1.0  0.42903805050544014  0.3333095989397706  0.753642721774753  1.0000
  C   C65       1.0  0.5077053642005112  0.3851660125604255  0.809304338232167  1.0000
  C   C66       1.0  0.0012033944441754024  0.8903331090411297  0.8020115057073554  1.0000
  C   C67       1.0  0.9371403068896387  0.19081606962885925  0.4239940789268888  1.0000
  C   C68       1.0  0.0764098050513695  0.9002352686639342  0.8501884865432673  1.0000
  C   C69       1.0  0.07683909285365331  0.8692252687238592  0.9011803038534723  1.0000
  C   C70       1.0  0.0010409433435470067  0.8260444043219836  0.9058481528760397  1.0000
  C   C71       1.0  0.9251330345740101  0.8070969786767536  0.8528131358208313  1.0000
  C   C72       1.0  0.9253255640847656  0.8387602236589375  0.8019190357207435  1.0000
  C   C73       1.0  0.9839673833639254  0.8159255492595536  0.09240994304301613  1.0000
  C   C74       1.0  0.9821917019708553  0.8431833947325559  0.1590360353767437  1.0000
  C   C75       1.0  0.05921372656096222  0.8517317794777669  0.084463017381502  1.0000
  C   C76       1.0  0.0544178015972889  0.907229721469108  0.21998097959983207  1.0000
  C   C77       1.0  0.1307942662098469  0.9356691008966822  0.2125970177308291  1.0000
  C   C78       1.0  0.0718053264503524  0.9865734180975069  0.7496794042508059  1.0000
  C   C79       1.0  0.1332913466518448  0.9080161387257418  0.14602883627868113  1.0000
  C   C80       1.0  0.0028134072812946017  0.9354870486102558  0.7577369461992659  1.0000
  C   C81       1.0  0.8053312996355048  0.7113115547883454  0.48698208422887773  1.0000
  C   C82       1.0  0.7542356848425201  0.7179621835690143  0.5321602055834376  1.0000
  C   C83       1.0  0.664299747225627  0.6484023499691532  0.4938849889949993  1.0000
  N   N1        1.0  0.9615863048919026  0.9939432938250264  0.6852749054060682  1.0000
  N   N2        1.0  0.1468090108258906  0.01859861460791021  0.5240306711784727  1.0000
  N   N3        1.0  0.0013445810776175952  0.901110058735455  0.564200901185366  1.0000
  N   N4        1.0  0.9878638929112855  0.9829636039184778  0.3602540435626834  1.0000
  N   N5        1.0  0.07092018453733569  0.04017543473795371  0.3914642083735203  1.0000
  N   N6        1.0  0.917117160176808  0.8516436664667141  0.5252718369521006  1.0000
  N   N7        1.0  0.8065106496924134  0.8851616811857784  0.31996034966262965  1.0000
  N   N8        1.0  0.16605203789863052  0.02305228922847392  0.591855118717703  1.0000
  N   N9        1.0  0.6075518750374514  0.4598012337074879  0.9966164834516607  1.0000
  N   N10       1.0  0.59477086634039  0.4611576374365214  0.935566315689158  1.0000
  N   N11       1.0  0.9953876795102942  0.8119299932255473  0.9657125139075545  1.0000
  N   N12       1.0  0.0218886439724173  0.15128698221088396  0.4788573529615689  1.0000
  N   N13       1.0  0.06559186955050221  0.8460252379636444  0.019273127786306053  1.0000
  N   N14       1.0  0.13558167833461712  0.155488701747494  0.645641976162871  1.0000
  N   N15       1.0  0.8496721983180038  0.024827888771739026  0.4552440308959405  1.0000
  N   N16       1.0  0.16903763036062713  0.17578306037015076  0.5994716087516778  1.0000
  N   N17       1.0  0.8668133544456468  0.9955169970156776  0.505677034532802  1.0000
  N   N18       1.0  0.9596430096349382  0.13041416162475647  0.41504759173882644  1.0000
  N   N19       1.0  0.046669825448645993  0.021082840181300397  0.7068631314757143  1.0000
  N   N20       1.0  0.8235496170077145  0.8447319068284858  0.361192908191484  1.0000
