data_image0
_chemical_formula_structural       Li8H16C8S4N8O24
_chemical_formula_sum              "Li8 H16 C8 S4 N8 O24"
_cell_length_a       7.250351750095611
_cell_length_b       8.211886047914115
_cell_length_c       11.142044625001102
_cell_angle_alpha    89.99998224761578
_cell_angle_beta     89.99995702459714
_cell_angle_gamma    101.91334802886792

_space_group_name_H-M_alt    "P 1"
_space_group_IT_number       1

loop_
  _space_group_symop_operation_xyz
  'x, y, z'

loop_
  _atom_site_type_symbol
  _atom_site_label
  _atom_site_symmetry_multiplicity
  _atom_site_fract_x
  _atom_site_fract_y
  _atom_site_fract_z
  _atom_site_occupancy
  Li  Li1       1.0  0.20548925096421297  0.4971375022122473  0.011583943035489602  1.0000
  Li  Li2       1.0  0.2945108253762072  0.002862517234604  0.5115846676807649  1.0000
  Li  Li3       1.0  0.7945112261014627  0.5028637965064889  0.9884161816271799  1.0000
  Li  Li4       1.0  0.705489357621296  0.9971375369333586  0.4884163544834621  1.0000
  Li  Li5       1.0  0.02545709816057241  0.3124932162763089  0.4510392574114377  1.0000
  Li  Li6       1.0  0.4745437817204986  0.18750651066719123  0.9510389546921091  1.0000
  Li  Li7       1.0  0.9745433789045065  0.687508082442136  0.5489617647525762  1.0000
  Li  Li8       1.0  0.5254561072100117  0.8124922989505804  0.048961169970986915  1.0000
  H   H1        1.0  0.9811841052278963  0.318675641104953  0.8479598896821372  1.0000
  H   H2        1.0  0.5188152145829149  0.18132495759225262  0.3479602255634192  1.0000
  H   H3        1.0  0.018816371838951785  0.68132565761438  0.15203843997785782  1.0000
  H   H4        1.0  0.48118388389269034  0.8186763439061836  0.6520398990995917  1.0000
  H   H5        1.0  0.9874897176713731  0.50148485939323  0.8052863709992694  1.0000
  H   H6        1.0  0.5125094330291162  0.9985153530098786  0.3052857400868518  1.0000
  H   H7        1.0  0.012509086737821893  0.49851519755531365  0.1947119586612658  1.0000
  H   H8        1.0  0.48749074996897684  0.0014847011583825006  0.6947143845760311  1.0000
  H   H9        1.0  0.3775616725992065  0.6681195148063425  0.8481502671903131  1.0000
  H   H10       1.0  0.12243803244313518  0.8318811128715712  0.34815051822320703  1.0000
  H   H11       1.0  0.6224385103982968  0.3318805393616203  0.1518507549739141  1.0000
  H   H12       1.0  0.8775621505549579  0.16811894129668306  0.6518496064396758  1.0000
  H   H13       1.0  0.227813080926424  0.7521249582080003  0.9112230983850225  1.0000
  H   H14       1.0  0.27218516299181056  0.747875630666975  0.41122329560472093  1.0000
  H   H15       1.0  0.7721871020710792  0.24787509595995522  0.08877792377920461  1.0000
  H   H16       1.0  0.7278139354832049  0.25212567083116266  0.588777726559627  1.0000
  C   C1        1.0  0.6370850046673906  0.6592813068540766  0.4099981274637586  1.0000
  C   C2        1.0  0.8629126304214548  0.8407188392939702  0.9099987416931158  1.0000
  C   C3        1.0  0.3629135056736458  0.3407175055436867  0.5900010996983341  1.0000
  C   C4        1.0  0.13708646805415012  0.159282462204466  0.09000138296988781  1.0000
  C   C5        1.0  0.6989296231808453  0.49806494553902075  0.3696985255401941  1.0000
  C   C6        1.0  0.8010679955265161  0.0019343970557202  0.869698349699597  1.0000
  C   C7        1.0  0.3010702657496722  0.501933864078751  0.6303015991229088  1.0000
  C   C8        1.0  0.1989311029496719  0.9980669044430074  0.13030087746206934  1.0000
  S   S1        1.0  0.40277526334657665  0.5126064836885861  0.2746307664283236  1.0000
  S   S2        1.0  0.097222865242486  0.9873929506885943  0.7746305791755432  1.0000
  S   S3        1.0  0.5972232469932734  0.48739232870858035  0.7253702557364579  1.0000
  S   S4        1.0  0.9027773177550242  0.0126071034793611  0.22537044298868383  1.0000
  N   N1        1.0  0.4666574402827451  0.6676362122290203  0.3675409695695251  1.0000
  N   N2        1.0  0.03334223938610146  0.8323644026651211  0.8675408488180096  1.0000
  N   N3        1.0  0.5333424486471826  0.3323625973884603  0.6324600525949152  1.0000
  N   N4        1.0  0.9666582376789846  0.16763689605332388  0.1324601733460042  1.0000
  N   N5        1.0  0.5675086259379469  0.4041809279769027  0.2982341264406969  1.0000
  N   N6        1.0  0.932490464875002  0.09581845895350942  0.7982329676321102  1.0000
  N   N7        1.0  0.43248988440191016  0.5958178844202707  0.7017668957240843  1.0000
  N   N8        1.0  0.0675110967137442  0.90418159243535  0.2017662595291014  1.0000
  O   O1        1.0  0.21680696413584846  0.41707303015300573  0.3052535684193813  1.0000
  O   O2        1.0  0.2831910552655684  0.08292555391290791  0.805253382813291  1.0000
  O   O3        1.0  0.7831898735469451  0.5829245404736696  0.6947465562446028  1.0000
  O   O4        1.0  0.7168091277325246  0.9170745002553462  0.1947467418495918  1.0000
  O   O5        1.0  0.41698000980694155  0.5746146637119267  0.1513804866460049  1.0000
  O   O6        1.0  0.08301965865156556  0.9253848491419706  0.6513803204622732  1.0000
  O   O7        1.0  0.5830190886674842  0.4253866377859126  0.8486214330196803  1.0000
  O   O8        1.0  0.916981608867843  0.0746139576955116  0.3486215992031704  1.0000
  O   O9        1.0  0.7416561249124454  0.7641331469518279  0.4748874370255366  1.0000
  O   O10       1.0  0.7583428038559744  0.7358669536365811  0.974887228636675  1.0000
  O   O11       1.0  0.25834514260813535  0.23586565988624392  0.5251126876372254  1.0000
  O   O12       1.0  0.2416565886872135  0.26413559241233747  0.025112896026122704  1.0000
  O   O13       1.0  0.8521751127330078  0.4678812146291023  0.40295181385234713  1.0000
  O   O14       1.0  0.6478227565282353  0.0321193505928861  0.9029517058084411  1.0000
  O   O15       1.0  0.14782310354102893  0.5321163532184772  0.5970465158086216  1.0000
  O   O16       1.0  0.3521763419491251  0.9678819509064313  0.0970457263505438  1.0000
  O   O17       1.0  0.9991456593615594  0.4352495868017812  0.8769949379122438  1.0000
  O   O18       1.0  0.5008519497977133  0.0647497509824078  0.3769953091432754  1.0000
  O   O19       1.0  0.0008545236377059662  0.5647504673670624  0.1230033917479574  1.0000
  O   O20       1.0  0.4991468546097267  0.9352503059652478  0.6230057130212928  1.0000
  O   O21       1.0  0.3364719953314221  0.6983485059769734  0.9286749916313113  1.0000
  O   O22       1.0  0.1635262257500756  0.8016520713923186  0.42867522953638126  1.0000
  O   O23       1.0  0.6635284817336569  0.3016527927414714  0.0713260305327026  1.0000
  O   O24       1.0  0.836472578657947  0.1983479855556354  0.5713248951268355  1.0000
