data_image0
_chemical_formula_structural       Na4H72C28S8N4O12
_chemical_formula_sum              "Na4 H72 C28 S8 N4 O12"
_cell_length_a       5.661262116746268
_cell_length_b       14.622988698954195
_cell_length_c       15.71003930003871
_cell_angle_alpha    102.40860617524379
_cell_angle_beta     89.99810641279622
_cell_angle_gamma    89.99998620226368

_space_group_name_H-M_alt    "P 1"
_space_group_IT_number       1

loop_
  _space_group_symop_operation_xyz
  'x, y, z'

loop_
  _atom_site_type_symbol
  _atom_site_label
  _atom_site_symmetry_multiplicity
  _atom_site_fract_x
  _atom_site_fract_y
  _atom_site_fract_z
  _atom_site_occupancy
  Na  Na1       1.0  0.2678297894564777  0.4574891892592775  0.44800569968560217  1.0000
  Na  Na2       1.0  0.7678131226145338  0.042498326405059614  0.5519917948290781  1.0000
  Na  Na3       1.0  0.7322017061558768  0.5424970872006372  0.5519877281714187  1.0000
  Na  Na4       1.0  0.2322077739869215  0.9574936076675798  0.44801547495284677  1.0000
  H   H1        1.0  0.1230364310135599  0.5339180514935296  0.6428416707136861  1.0000
  H   H2        1.0  0.6230648388687141  0.966059611266502  0.35716341245793615  1.0000
  H   H3        1.0  0.8769985972340065  0.46607313479749723  0.3571546309442298  1.0000
  H   H4        1.0  0.3769754882051259  0.03392741015032641  0.6428403462954719  1.0000
  H   H5        1.0  0.548185371123637  0.34240635770163413  0.5405624613106426  1.0000
  H   H6        1.0  0.048179169593282695  0.15758239933193618  0.45944289784639386  1.0000
  H   H7        1.0  0.4518390586754534  0.6575834393800694  0.45943611375643917  1.0000
  H   H8        1.0  0.9518205307220597  0.8424087981911301  0.5405559523835421  1.0000
  H   H9        1.0  0.7140248513617351  0.34984889599544994  0.462896614138387  1.0000
  H   H10       1.0  0.21400778072143106  0.15014436239186327  0.5371058102600301  1.0000
  H   H11       1.0  0.2859978122150295  0.6501366886615544  0.5370985875344872  1.0000
  H   H12       1.0  0.7859954524722281  0.8498489245549478  0.4628909041104308  1.0000
  H   H13       1.0  0.21457792135375794  0.4086547320727973  0.2741463127604433  1.0000
  H   H14       1.0  0.714549873430741  0.09132728255779199  0.7258449857002914  1.0000
  H   H15       1.0  0.7854412093433252  0.5913315611871964  0.7258509377113285  1.0000
  H   H16       1.0  0.28545689238644195  0.9086639205520869  0.2741551386675667  1.0000
  H   H17       1.0  0.49428229587072536  0.4110663135170753  0.2748690893138743  1.0000
  H   H18       1.0  0.9942613910183126  0.08892979233648653  0.7251325775323139  1.0000
  H   H19       1.0  0.505731535963342  0.5889220495940392  0.7251215657204851  1.0000
  H   H20       1.0  0.0057453745307114  0.9110691298257195  0.2748728819574922  1.0000
  H   H21       1.0  0.4299861374488927  0.4013305715907549  0.6753645845352594  1.0000
  H   H22       1.0  0.9300084764963544  0.09865093978641681  0.3246254080603563  1.0000
  H   H23       1.0  0.5700577233757328  0.5986507642459101  0.3246189614343749  1.0000
  H   H24       1.0  0.06997002782714648  0.9013401934173615  0.6753587892237931  1.0000
  H   H25       1.0  0.22961877261519695  0.45784306032272337  0.7556130629390836  1.0000
  H   H26       1.0  0.7296454113265226  0.0421403471050894  0.24438470097986448  1.0000
  H   H27       1.0  0.7704445179181859  0.5421502209579999  0.24438237689151524  1.0000
  H   H28       1.0  0.2703083628800727  0.9578494472624757  0.7556132374201853  1.0000
  H   H29       1.0  0.0818246441795765  0.3357802062973222  0.5792641126581941  1.0000
  H   H30       1.0  0.5818393768311337  0.16419801012888513  0.4207483372482272  1.0000
  H   H31       1.0  0.9181980189109851  0.6642110191744167  0.42074110833541317  1.0000
  H   H32       1.0  0.4181832858326259  0.8357855606348468  0.5792662016961501  1.0000
  H   H33       1.0  0.8871040366292745  0.3996077573505232  0.6596225219444776  1.0000
  H   H34       1.0  0.3871376136635476  0.10037462544542562  0.340384048903168  1.0000
  H   H35       1.0  0.11292039279279459  0.6003806756875535  0.3403840602793693  1.0000
  H   H36       1.0  0.6128656183451611  0.8996166727863155  0.6596377365498611  1.0000
  H   H37       1.0  0.0385134926750794  0.2569956151709505  0.8275680157144264  1.0000
  H   H38       1.0  0.5385108369228108  0.2429939376463182  0.1724541611029125  1.0000
  H   H39       1.0  0.961530367132184  0.7430116954324929  0.17243590819128227  1.0000
  H   H40       1.0  0.46139171078268487  0.7570036597614588  0.8275682254293669  1.0000
  H   H41       1.0  0.9467618866935509  0.369532374187834  0.8146149712432944  1.0000
  H   H42       1.0  0.44676235158449623  0.1304548251309257  0.1854045896901582  1.0000
  H   H43       1.0  0.05327490780929619  0.6304574256768447  0.18538424083985922  1.0000
  H   H44       1.0  0.5531560942706406  0.8695427135089066  0.8146044178544471  1.0000
  H   H45       1.0  0.42817783357401135  0.3363271874707579  0.8914380824185814  1.0000
  H   H46       1.0  0.928178015268564  0.1636480823006323  0.10856343620197609  1.0000
  H   H47       1.0  0.5718624941326524  0.6636786611779611  0.1085515505109171  1.0000
  H   H48       1.0  0.07176515940419388  0.8363509154713143  0.8914592251017979  1.0000
  H   H49       1.0  0.2836476444127385  0.44507178140417386  0.8991653463975382  1.0000
  H   H50       1.0  0.7835800986601169  0.0549162796666067  0.10080533870852548  1.0000
  H   H51       1.0  0.716392683747166  0.5549340252808507  0.10081473018018981  1.0000
  H   H52       1.0  0.2162818238883233  0.9450853455757057  0.8991783735240162  1.0000
  H   H53       1.0  0.1268731530279226  0.2859927763490191  0.9858064462645686  1.0000
  H   H54       1.0  0.6268502905519852  0.2140371433726713  0.014214365729181116  1.0000
  H   H55       1.0  0.8731707076621191  0.7140165509452743  0.014178777459761713  1.0000
  H   H56       1.0  0.3730822857646884  0.7860031246066869  0.9858068522219909  1.0000
  H   H57       1.0  0.9677575163508576  0.390997719098074  0.9934110850037428  1.0000
  H   H58       1.0  0.46774676108540797  0.10902501805924912  0.006587205463233704  1.0000
  H   H59       1.0  0.03228634456786491  0.6090073901742842  0.006569491135557837  1.0000
  H   H60       1.0  0.5322264438198799  0.8910067075202407  0.9934005076501435  1.0000
  H   H61       1.0  0.22735249039715197  0.3961666173670295  0.12497753508379363  1.0000
  H   H62       1.0  0.7273914996245665  0.10388678523348457  0.8750269986494317  1.0000
  H   H63       1.0  0.7726154153501453  0.603837127951401  0.8750110486670977  1.0000
  H   H64       1.0  0.27267532258609606  0.896185638912904  0.12498843912534607  1.0000
  H   H65       1.0  0.3110554299300787  0.4838073074340627  0.0681488120701204  1.0000
  H   H66       1.0  0.811047001629035  0.0162381281093715  0.931837916770931  1.0000
  H   H67       1.0  0.6889531021825803  0.5162083861009777  0.9318523025049288  1.0000
  H   H68       1.0  0.18892796897530667  0.9838174436407884  0.06816339084461734  1.0000
  H   H69       1.0  0.48126555427607076  0.38011027807606024  0.057067620611661624  1.0000
  H   H70       1.0  0.9812786296993321  0.119925742253244  0.9429356689402085  1.0000
  H   H71       1.0  0.5187518095583384  0.6198991415696397  0.942938627245219  1.0000
  H   H72       1.0  0.018736966077859997  0.8801244012502139  0.057104037960300495  1.0000
  C   C1        1.0  0.3568900199494606  0.2346351828535518  0.7056708673010306  1.0000
  C   C2        1.0  0.8569216429768713  0.2653381462498531  0.2943291810865176  1.0000
  C   C3        1.0  0.6431291112101292  0.765347570209947  0.29431677637216325  1.0000
  C   C4        1.0  0.1430374303567845  0.7346502532944612  0.7056697564472715  1.0000
  C   C5        1.0  0.25245557414688585  0.3966721986513661  0.7018284056625745  1.0000
  C   C6        1.0  0.7524733386073023  0.10331046862877002  0.29817213275760684  1.0000
  C   C7        1.0  0.7475723889693241  0.6033182482758195  0.29815883926860925  1.0000
  C   C8        1.0  0.247491033753505  0.89668004271784  0.7018297656270747  1.0000
  C   C9        1.0  0.0661965319989974  0.3983720114925191  0.6319471183536649  1.0000
  C   C10       1.0  0.5662288722741806  0.10160899788916572  0.3680558751983298  1.0000
  C   C11       1.0  0.9338049344219214  0.6016150155653648  0.368057914812681  1.0000
  C   C12       1.0  0.4337672949448218  0.8983780319725555  0.6319497950898665  1.0000
  C   C13       1.0  0.10162152270250858  0.32586674688968037  0.8206170498215926  1.0000
  C   C14       1.0  0.6016078810539297  0.17411697969762943  0.1793860697831491  1.0000
  C   C15       1.0  0.8984082063390134  0.6741328362853738  0.1793796277764416  1.0000
  C   C16       1.0  0.3982946672479812  0.8258812619646322  0.8206237124541502  1.0000
  C   C17       1.0  0.25372513678023983  0.3705884608225886  0.8991196251654401  1.0000
  C   C18       1.0  0.753708517882707  0.12940818524039346  0.10087855168301733  1.0000
  C   C19       1.0  0.7462939945287272  0.6294131642340589  0.1008640861257319  1.0000
  C   C20       1.0  0.24619579680154396  0.8706068445801732  0.8991307081802374  1.0000
  C   C21       1.0  0.1473383955987728  0.3609981393006194  0.9860406742947988  1.0000
  C   C22       1.0  0.6473335146282223  0.13902958668192872  0.013969286534077708  1.0000
  C   C23       1.0  0.8526983992031487  0.6390133165960493  0.013951332895167947  1.0000
  C   C24       1.0  0.35261849227759257  0.8610141515315067  0.9860456108463751  1.0000
  C   C25       1.0  0.2995936985697654  0.40775697412347267  0.06335028868025462  1.0000
  C   C26       1.0  0.7996021793903976  0.0922878554081521  0.9366517299814632  1.0000
  C   C27       1.0  0.7004271985724982  0.5922565936005244  0.9366446794875358  1.0000
  C   C28       1.0  0.20039575320080869  0.9077734130811949  0.06337233861967213  1.0000
  S   S1        1.0  0.35573233973507706  0.14478603611377852  0.7612894724219005  1.0000
  S   S2        1.0  0.8557741840731623  0.35519004058469517  0.2386983979960817  1.0000
  S   S3        1.0  0.6442867908188177  0.8551995709280363  0.2387108259930741  1.0000
  S   S4        1.0  0.1442007873380291  0.6447913121187981  0.7612889709267705  1.0000
  S   S5        1.0  0.5151348852200144  0.22449682868208498  0.6105034148419293  1.0000
  S   S6        1.0  0.015170182208422  0.2754800077459194  0.3894783411919605  1.0000
  S   S7        1.0  0.48486128259952466  0.7754824513539306  0.38948991233302627  1.0000
  S   S8        1.0  0.9848330517368495  0.7245055153872927  0.6105028446146648  1.0000
  N   N1        1.0  0.23520164665708168  0.3135064463110312  0.7388237781786274  1.0000
  N   N2        1.0  0.735220826373286  0.18647486130864627  0.26117669185254044  1.0000
  N   N3        1.0  0.7648245496101679  0.6864791467345485  0.2611733347434466  1.0000
  N   N4        1.0  0.26470645152534183  0.813522668928023  0.7388304043688266  1.0000
  O   O1        1.0  0.10283666541459979  0.4782759548715775  0.5936223388751856  1.0000
  O   O2        1.0  0.6028762836863563  0.021702853352266505  0.4063766178557202  1.0000
  O   O3        1.0  0.8971701009766873  0.5217151950842975  0.4063656807804321  1.0000
  O   O4        1.0  0.397149912068592  0.9782799892254276  0.5936314126589437  1.0000
  O   O5        1.0  0.5878567847943045  0.38432573797427244  0.5005637248771606  1.0000
  O   O6        1.0  0.08784165557154469  0.11566361718024612  0.4994393854627788  1.0000
  O   O7        1.0  0.412165878768036  0.6156584490681567  0.499431838871061  1.0000
  O   O8        1.0  0.9121545118929644  0.88433108417496  0.5005607894153528  1.0000
  O   O9        1.0  0.3527348243061184  0.44562164278691097  0.3007725158870684  1.0000
  O   O10       1.0  0.8527165120026227  0.054367789739409006  0.6992281968717862  1.0000
  O   O11       1.0  0.6472772409626089  0.5543688349324256  0.699221737130614  1.0000
  O   O12       1.0  0.147299085420606  0.9456220465188353  0.30077929750983406  1.0000
