data_image0
_chemical_formula_structural       Zr6H28C62Cl2O32F10
_chemical_formula_sum              "Zr6 H28 C62 Cl2 O32 F10"
_cell_length_a       14.897170043270178
_cell_length_b       14.872894103863995
_cell_length_c       14.869537622808018
_cell_angle_alpha    59.785097126880224
_cell_angle_beta     59.80528275021423
_cell_angle_gamma    59.87938277337691

_space_group_name_H-M_alt    "P 1"
_space_group_IT_number       1

loop_
  _space_group_symop_operation_xyz
  'x, y, z'

loop_
  _atom_site_type_symbol
  _atom_site_label
  _atom_site_symmetry_multiplicity
  _atom_site_fract_x
  _atom_site_fract_y
  _atom_site_fract_z
  _atom_site_occupancy
  Zr  Zr1       1.0  0.8806478098633476  0.3777113800950715  0.6188597014975342  1.0000
  Zr  Zr2       1.0  0.1184935029186319  0.6165222065946382  0.38193085391160503  1.0000
  Zr  Zr3       1.0  0.11890067375828287  0.3772797789418404  0.6218245779177354  1.0000
  Zr  Zr4       1.0  0.8832281669405972  0.6152898928532196  0.38121536918479365  1.0000
  Zr  Zr5       1.0  0.8814391212097377  0.6128967763803176  0.6226966230070516  1.0000
  Zr  Zr6       1.0  0.12107039426847876  0.3751169160169355  0.3846796611168415  1.0000
  H   H1        1.0  0.9065744662925257  0.4017452580991756  0.784107449482775  1.0000
  H   H2        1.0  0.9086012468790584  0.7774774839580659  0.40719787617346254  1.0000
  H   H3        1.0  0.28115476391735683  0.4035733033574189  0.408846342148145  1.0000
  H   H4        1.0  0.9086817233336504  0.4033343048768714  0.40622601810062514  1.0000
  H   H5        1.0  0.5472510377121862  0.7476737974983081  0.876220962952246  1.0000
  H   H6        1.0  0.6311047630425083  0.6495609784082388  0.9608166335152788  1.0000
  H   H7        1.0  0.4614574799832455  0.6511784992215085  0.13118848197888136  1.0000
  H   H8        1.0  0.37718996059717114  0.7482762677247196  0.04676392050087922  1.0000
  H   H9        1.0  0.24090022995079616  0.05364095213245421  0.31200239222873455  1.0000
  H   H10       1.0  0.14155803721776292  0.13371938090990906  0.24406770155653132  1.0000
  H   H11       1.0  0.14577626621448328  0.9593824129835229  0.24898216923246955  1.0000
  H   H12       1.0  0.241898214776434  0.8790363205710606  0.3213462501434491  1.0000
  H   H13       1.0  0.5254654692726177  0.8527858246431136  0.3644004101622326  1.0000
  H   H14       1.0  0.6093350514183059  0.9375525070719849  0.26656912910934244  1.0000
  H   H15       1.0  0.43879637386310577  0.1073523002418924  0.2681579268009529  1.0000
  H   H16       1.0  0.3557151521456703  0.021963284284318225  0.36808508711492044  1.0000
  H   H17       1.0  0.8569463803460595  0.7556806101626565  0.032026975059331  1.0000
  H   H18       1.0  0.7682335421394059  0.6748903517059263  0.11716281979160897  1.0000
  H   H19       1.0  0.7658344165011425  0.6781304576193322  0.9472173995215413  1.0000
  H   H20       1.0  0.8555025661001925  0.7576166016270067  0.8618415523035167  1.0000
  H   H21       1.0  0.8121618318556115  0.26022804142655076  0.9275891977721571  1.0000
  H   H22       1.0  0.6565211771756766  0.26689156840831885  0.10072576388834151  1.0000
  H   H23       1.0  0.8144787076165231  0.9271208059137948  0.26574032849231316  1.0000
  H   H24       1.0  0.6579573153063762  0.09931080596268763  0.2709232469083601  1.0000
  H   H25       1.0  0.5402574093298113  0.33706444131740204  0.7514641490723548  1.0000
  H   H26       1.0  0.6240037816021059  0.254723226912155  0.6643776711689284  1.0000
  H   H27       1.0  0.4529003960349983  0.2558746757260197  0.6660852438758553  1.0000
  H   H28       1.0  0.369430803691735  0.3380379458444194  0.7533488895460323  1.0000
  C   C1        1.0  0.6918168307802476  0.49956371535619576  0.797639058641991  1.0000
  C   C2        1.0  0.0003173922076128664  0.7944263962453278  0.50729812321201  1.0000
  C   C3        1.0  0.2956505294786781  0.5014007407255576  0.19490981950366396  1.0000
  C   C4        1.0  0.002530425847346863  0.19149179633739521  0.5040720761611867  1.0000
  C   C5        1.0  0.002795905856814334  0.18747599674824764  0.7970737092108493  1.0000
  C   C6        1.0  0.6949330434238165  0.5049150782005326  0.4999579159009998  1.0000
  C   C7        1.0  0.004028681362662274  0.7952043576987791  0.19182462710114814  1.0000
  C   C8        1.0  0.2963899775249246  0.505811013853652  0.5029909468925028  1.0000
  C   C9        1.0  0.0064185371122036155  0.4979630461916783  0.8006836341812616  1.0000
  C   C10       1.0  0.30054988198316573  0.191455656196723  0.5095693452746701  1.0000
  C   C11       1.0  0.01125795581623381  0.4979338959385515  0.19468147154127274  1.0000
  C   C12       1.0  0.6971752075622816  0.7943647885532881  0.5068279824097529  1.0000
  C   C13       1.0  0.5865372973234884  0.5043956078818397  0.8923635287105611  1.0000
  C   C14       1.0  0.38974461514351344  0.5059308586682221  0.08923261755463584  1.0000
  C   C15       1.0  0.5400332661268052  0.5789331756025649  0.9475745388380191  1.0000
  C   C16       1.0  0.4328526236276459  0.4335572453163223  0.03133822205331411  1.0000
  C   C17       1.0  0.44627607817984244  0.579492834602881  0.041745597561572374  1.0000
  C   C18       1.0  0.5276161725381385  0.43259419916957126  0.93709691486837  1.0000
  C   C19       1.0  0.5548648745816533  0.6721197376856267  0.9482628899979845  1.0000
  C   C20       1.0  0.4486344741334137  0.6726045296018626  0.05527160839560692  1.0000
  C   C21       1.0  0.0007125793967829452  0.09149038751083789  0.5057420965491561  1.0000
  C   C22       1.0  0.9991818110300414  0.8942955519731228  0.508591034222661  1.0000
  C   C23       1.0  0.07309870667430117  0.04491668602013725  0.42208815902629493  1.0000
  C   C24       1.0  0.9244322379178486  0.9416086742965248  0.5924437064030383  1.0000
  C   C25       1.0  0.07271669794617011  0.9504157408357229  0.4240113539780239  1.0000
  C   C26       1.0  0.9254041137831805  0.03597242588471522  0.5913589815975299  1.0000
  C   C27       1.0  0.16506826570946492  0.05887437808851099  0.3115009886301934  1.0000
  C   C28       1.0  0.16625289133548904  0.9501387593417691  0.3152050324799589  1.0000
  C   C29       1.0  0.5977301920447573  0.8950413920607049  0.5089010310903673  1.0000
  C   C30       1.0  0.40152953850935086  0.0921596900161674  0.5102431183024692  1.0000
  C   C31       1.0  0.540727206604082  0.9420194294183304  0.43599539117757025  1.0000
  C   C32       1.0  0.45911158022117593  0.04627380276304648  0.5835269200354106  1.0000
  C   C33       1.0  0.44723497035273846  0.03608661802852712  0.43669933321189097  1.0000
  C   C34       1.0  0.5532246753194273  0.9514462606890464  0.583016953057431  1.0000
  C   C35       1.0  0.5382755281257305  0.9287186035949732  0.3427752282446618  1.0000
  C   C36       1.0  0.4320195984645068  0.03531487220567433  0.3438770798146252  1.0000
  C   C37       1.0  0.01597141701873292  0.4995301698119973  0.09160466229023703  1.0000
  C   C38       1.0  0.01299359788738735  0.500155465005605  0.8961786532744256  1.0000
  C   C39       1.0  0.939767425115214  0.5814979432692199  0.03801433800411739  1.0000
  C   C40       1.0  0.09230525336599264  0.4184184990285615  0.947917676387462  1.0000
  C   C41       1.0  0.9382936854933065  0.5820534544383379  0.9447132346916902  1.0000
  C   C42       1.0  0.09362182319785016  0.4179995336809625  0.04180685037758981  1.0000
  C   C43       1.0  0.8408436349266566  0.6857003280718175  0.04310211385554641  1.0000
  C   C44       1.0  0.8396676851596323  0.6870817507110657  0.9366536866561574  1.0000
  C   C45       1.0  0.0004256627868101406  0.08470871911038098  0.8972362891613559  1.0000
  C   C46       1.0  0.9084971981670903  0.09045459928682203  0.9966130585966441  1.0000
  C   C47       1.0  0.08613004393161117  0.9861364551553109  0.8931125763882193  1.0000
  C   C48       1.0  0.8156789448107559  0.18832008479854076  0.0021345007224054693  1.0000
  C   C49       1.0  0.7276736001548513  0.19149178345506365  0.09890020413580898  1.0000
  C   C50       1.0  0.0014762006766418625  0.8951804791034164  0.08878659707715982  1.0000
  C   C51       1.0  0.08666162244170313  0.8905635517635416  0.9897443331767094  1.0000
  C   C52       1.0  0.9090985781447146  0.994188680066742  0.09403563710397807  1.0000
  C   C53       1.0  0.8169595501941845  0.0005998500508111598  0.19244920821374467  1.0000
  C   C54       1.0  0.7283815852546452  0.09691798065188102  0.19487030941892408  1.0000
  C   C55       1.0  0.5932964300368012  0.5083871682497048  0.49981176724399745  1.0000
  C   C56       1.0  0.395073089362768  0.5094697928593988  0.5019623899092522  1.0000
  C   C57       1.0  0.5419710613650325  0.42931872542719424  0.5788442783045795  1.0000
  C   C58       1.0  0.4458530251077589  0.5901181080643171  0.42193967248028474  1.0000
  C   C59       1.0  0.4474781986084365  0.4298949220471187  0.5798532096353314  1.0000
  C   C60       1.0  0.5409370766853672  0.5893610199078125  0.4207402855770326  1.0000
  C   C61       1.0  0.5497712448952895  0.3258341901365683  0.6793046200210497  1.0000
  C   C62       1.0  0.4427102079853428  0.3265168255109714  0.6804199068988338  1.0000
  Cl  Cl1       1.0  0.19257524108697774  0.7679503369564312  0.9816730872795321  1.0000
  Cl  Cl2       1.0  0.19131190587216199  0.977221276505553  0.7701041507656682  1.0000
  O   O1        1.0  0.7344948882957427  0.42188388625884693  0.7591450025054415  1.0000
  O   O2        1.0  0.07593074705695821  0.7595894255367668  0.4275342026452335  1.0000
  O   O3        1.0  0.25909766632317865  0.5777400761008238  0.23331936546584586  1.0000
  O   O4        1.0  0.9242099529177851  0.23507149118496068  0.5766271063873489  1.0000
  O   O5        1.0  0.07657996729447798  0.22714778090715274  0.7639817132908534  1.0000
  O   O6        1.0  0.7375368651459623  0.5792755287375473  0.4234420064771809  1.0000
  O   O7        1.0  0.92843418328097  0.7547736190920206  0.23226817930356683  1.0000
  O   O8        1.0  0.26034740443460436  0.4274819034486299  0.580128072139594  1.0000
  O   O9        1.0  0.9261079159523857  0.5726266942295907  0.7666023281130591  1.0000
  O   O10       1.0  0.2628847107738964  0.22746668096574751  0.43283559256911275  1.0000
  O   O11       1.0  0.08415815977561186  0.4203752706572885  0.23808452578473546  1.0000
  O   O12       1.0  0.7366844841935033  0.751247253337226  0.5836337439913277  1.0000
  O   O13       1.0  0.26002065787038475  0.2334283339833049  0.5840429391843288  1.0000
  O   O14       1.0  0.9320372951005566  0.574155739387784  0.2328786802067167  1.0000
  O   O15       1.0  0.735660291015442  0.7600205519895623  0.4269298245746283  1.0000
  O   O16       1.0  0.07988728320496107  0.4209401212167663  0.7610654130893479  1.0000
  O   O17       1.0  0.9270483822148922  0.22795126368031773  0.7570279907217952  1.0000
  O   O18       1.0  0.2568881786852231  0.5796188720615093  0.42574686048054383  1.0000
  O   O19       1.0  0.07759021976144703  0.7616887800040787  0.23193032852788767  1.0000
  O   O20       1.0  0.732595482717066  0.42622789849119874  0.5766526364264803  1.0000
  O   O21       1.0  0.08195740273020397  0.22705095940384715  0.42861789442610393  1.0000
  O   O22       1.0  0.7327940571406798  0.572923939855322  0.764327978000864  1.0000
  O   O23       1.0  0.9258552546638796  0.7523781496941027  0.5836466582922312  1.0000
  O   O24       1.0  0.2613092652519741  0.42032902126112487  0.2404017243181044  1.0000
  O   O25       1.0  0.9347635947718943  0.4297192237612962  0.4334238321667454  1.0000
  O   O26       1.0  0.2013209298981592  0.4296293433224534  0.4359253144470401  1.0000
  O   O27       1.0  0.9338642895147943  0.6975218574853415  0.4334791975987852  1.0000
  O   O28       1.0  0.9326479364967499  0.42756085273502015  0.7040480031419066  1.0000
  O   O29       1.0  0.0492612698092571  0.5455918302059929  0.5512255577965847  1.0000
  O   O30       1.0  0.8529447102853567  0.5456337641706739  0.5503303262409105  1.0000
  O   O31       1.0  0.05117145665730061  0.545093920795118  0.3532746939373936  1.0000
  O   O32       1.0  0.04952699383592564  0.34792171102355246  0.5520399626514205  1.0000
  F   F1        1.0  0.38512781156922665  0.3604447646510777  0.06383560823861946  1.0000
  F   F2        1.0  0.5600371964007209  0.3575151895418783  0.8916222823306015  1.0000
  F   F3        1.0  0.8471387850830467  0.898082568694342  0.679676927579109  1.0000
  F   F4        1.0  0.8495622749006843  0.07039643086088178  0.6782604887993526  1.0000
  F   F5        1.0  0.42722163431240295  0.09201444002245288  0.6581348802456335  1.0000
  F   F6        1.0  0.5998898678918397  0.9178205140691487  0.6574279033361847  1.0000
  F   F7        1.0  0.1713331194363761  0.33402787617563234  0.9107388997727028  1.0000
  F   F8        1.0  0.17316705850990383  0.33310869045325847  0.08314465705668536  1.0000
  F   F9        1.0  0.40573059005700457  0.6734334608314895  0.34035141750288717  1.0000
  F   F10       1.0  0.5804044019096323  0.6716219537417915  0.33775470505282357  1.0000
