data_image0
_chemical_formula_structural       Cu2H16C14I2N4O2
_chemical_formula_sum              "Cu2 H16 C14 I2 N4 O2"
_cell_length_a       7.344224728328601
_cell_length_b       7.978204542242172
_cell_length_c       8.8316107251086
_cell_angle_alpha    111.44577885402826
_cell_angle_beta     100.40522729964599
_cell_angle_gamma    107.8553829409164

_space_group_name_H-M_alt    "P 1"
_space_group_IT_number       1

loop_
  _space_group_symop_operation_xyz
  'x, y, z'

loop_
  _atom_site_type_symbol
  _atom_site_label
  _atom_site_symmetry_multiplicity
  _atom_site_fract_x
  _atom_site_fract_y
  _atom_site_fract_z
  _atom_site_occupancy
  Cu  Cu1       1.0  0.6881298541413656  0.5719206760667035  0.47252115369646935  1.0000
  Cu  Cu2       1.0  0.31186875078641657  0.42807903204897  0.5274773254674727  1.0000
  H   H1        1.0  0.39998940669497074  0.1358475695219923  0.5370357174274575  1.0000
  H   H2        1.0  0.6000125818236699  0.864153644934774  0.46296380022005934  1.0000
  H   H3        1.0  0.8875247037335612  0.30541562952397067  0.4784986886504967  1.0000
  H   H4        1.0  0.11247547998612364  0.6945914085420243  0.5215047485832187  1.0000
  H   H5        1.0  0.5990850060164732  0.40413556690298696  0.09072457301636666  1.0000
  H   H6        1.0  0.4008988418277042  0.5958551550120674  0.9092697039498462  1.0000
  H   H7        1.0  0.6412424273980336  0.13450801934905599  0.8639997120203946  1.0000
  H   H8        1.0  0.3587540163966665  0.8654828970862171  0.13599209717767013  1.0000
  H   H9        1.0  0.8102280587220321  0.9390137618403073  0.9509948327621347  1.0000
  H   H10       1.0  0.18978422945489368  0.0609890144209331  0.0490091031309063  1.0000
  H   H11       1.0  0.023959838761577035  0.7443296367129546  0.22617058116741606  1.0000
  H   H12       1.0  0.9760444984677578  0.25567743712281293  0.7738346588882126  1.0000
  H   H13       1.0  0.8297947448515475  0.7357356881940263  0.06479741794909438  1.0000
  H   H14       1.0  0.17021417908046746  0.2642655941848275  0.9352043542840889  1.0000
  H   H15       1.0  0.7928373319423656  0.747194015304494  0.25985390530340885  1.0000
  H   H16       1.0  0.20716606687407343  0.25280722768712843  0.7401447130497162  1.0000
  C   C1        1.0  0.8747662794204843  0.1166644910642773  0.22394579928614894  1.0000
  C   C2        1.0  0.1252393907228894  0.8833425614715438  0.7760630421801623  1.0000
  C   C3        1.0  0.8406239284066502  0.26760338064104877  0.3417638676790347  1.0000
  C   C4        1.0  0.15937078797284698  0.7323934092382627  0.6582273604001543  1.0000
  C   C5        1.0  0.6766015632966926  0.3197759435283345  0.1247723580808753  1.0000
  C   C6        1.0  0.32339384535541876  0.6802090797692913  0.8752184552960288  1.0000
  C   C7        1.0  0.6995795612842812  0.1685533959465531  0.9990398900358245  1.0000
  C   C8        1.0  0.3004178211857393  0.8314535975084211  0.0009642206104060379  1.0000
  C   C9        1.0  0.7954830236823297  0.06176509403555029  0.04796461635335445  1.0000
  C   C10       1.0  0.20451466217850375  0.9382287956946769  0.9520261159318225  1.0000
  C   C11       1.0  0.9916728794586901  0.0189210899640671  0.28409271754490106  1.0000
  C   C12       1.0  0.00832951728768464  0.9810814740944596  0.7159186385851231  1.0000
  C   C13       1.0  0.9076922500524847  0.7997578551926523  0.20386816184143441  1.0000
  C   C14       1.0  0.0923121062603585  0.20023898492625142  0.7961302732922491  1.0000
  I   I1        1.0  0.6672927057441456  0.45164957873090117  0.715275666545466  1.0000
  I   I2        1.0  0.33270963884619675  0.5483560048399312  0.2847287609084503  1.0000
  N   N1        1.0  0.7412948011962328  0.3666246911333388  0.29426700833477787  1.0000
  N   N2        1.0  0.2586980136546159  0.6333778600616994  0.7057337652119458  1.0000
  N   N3        1.0  0.1655090614569446  0.1339361881103684  0.4058860429317193  1.0000
  N   N4        1.0  0.8344854093071347  0.8660634966942309  0.5941095082340412  1.0000
  O   O1        1.0  0.2651250858225112  0.028769163214960303  0.45598329204666044  1.0000
  O   O2        1.0  0.7348711513110688  0.9712349192385689  0.5440162696311149  1.0000
