data_image0
_chemical_formula_structural       Tb4P4H60C84N4O44
_chemical_formula_sum              "Tb4 P4 H60 C84 N4 O44"
_cell_length_a       11.576816022408831
_cell_length_b       15.010976531902559
_cell_length_c       17.582671139056295
_cell_angle_alpha    89.99981768782897
_cell_angle_beta     89.99977776609502
_cell_angle_gamma    91.23124597797539

_space_group_name_H-M_alt    "P 1"
_space_group_IT_number       1

loop_
  _space_group_symop_operation_xyz
  'x, y, z'

loop_
  _atom_site_type_symbol
  _atom_site_label
  _atom_site_symmetry_multiplicity
  _atom_site_fract_x
  _atom_site_fract_y
  _atom_site_fract_z
  _atom_site_occupancy
  Tb  Tb1       1.0  0.08126445512251482  0.5938878866068649  0.5720964636986847  1.0000
  Tb  Tb2       1.0  0.4187315762201608  0.906108407415232  0.07209763025523584  1.0000
  Tb  Tb3       1.0  0.9187345622419232  0.4061056426815384  0.4279053819922465  1.0000
  Tb  Tb4       1.0  0.5812667286942458  0.09389045280753551  0.9279047841711684  1.0000
  P   P1        1.0  0.33704855391467703  0.7522394944137858  0.5775131865856691  1.0000
  P   P2        1.0  0.1629517261415856  0.7477554448691492  0.07751316365235537  1.0000
  P   P3        1.0  0.6629548580563595  0.2477566988469135  0.4224892278378219  1.0000
  P   P4        1.0  0.8370481549986695  0.2522380841399396  0.922492663230059  1.0000
  H   H1        1.0  0.10346104414606572  0.1308317987247847  0.32620325428327107  1.0000
  H   H2        1.0  0.3965449751009373  0.3691727112215731  0.8262056507728412  1.0000
  H   H3        1.0  0.8965425191796755  0.8691697252094527  0.6737940414565953  1.0000
  H   H4        1.0  0.6034587963062706  0.6308361423688071  0.17379505740758103  1.0000
  H   H5        1.0  0.19329115347184003  0.48069537745384855  0.7095625041417147  1.0000
  H   H6        1.0  0.30671109303377625  0.019304249287934304  0.2095689900265468  1.0000
  H   H7        1.0  0.8067054049718083  0.5193028169934807  0.2904325166444507  1.0000
  H   H8        1.0  0.6932907805530705  0.9806986078567307  0.790427736971871  1.0000
  H   H9        1.0  0.14968687809629705  0.574351665043885  0.7279532675044107  1.0000
  H   H10       1.0  0.3503178363370409  0.9256480278881725  0.2279562624259269  1.0000
  H   H11       1.0  0.8503149198242498  0.42564852677107007  0.2720423220141298  1.0000
  H   H12       1.0  0.6496762064012316  0.07435283269851571  0.7720427395524251  1.0000
  H   H13       1.0  0.4031298105061509  0.6113901691502263  0.4773038322247484  1.0000
  H   H14       1.0  0.09687007109318563  0.8886125691963045  0.9773040997127108  1.0000
  H   H15       1.0  0.5968675738580629  0.3886066923387972  0.5227019946563372  1.0000
  H   H16       1.0  0.9031386938507923  0.1113896194244006  0.02270172714656129  1.0000
  H   H17       1.0  0.5935601528330282  0.5410642143873974  0.4516375040471486  1.0000
  H   H18       1.0  0.9064420735148033  0.9589399233979565  0.9516356500314341  1.0000
  H   H19       1.0  0.4064364434318649  0.4589353127171734  0.5483620666715437  1.0000
  H   H20       1.0  0.09356849469812543  0.0410649300264581  0.04836221443673587  1.0000
  H   H21       1.0  0.7612400884094015  0.7262494021575635  0.6038971794253809  1.0000
  H   H22       1.0  0.7387597850783295  0.7737520689593894  0.10390030413577725  1.0000
  H   H23       1.0  0.23876426304286721  0.27374945617854257  0.39609727260810235  1.0000
  H   H24       1.0  0.2612395917256691  0.22625412066086173  0.8960986978284989  1.0000
  H   H25       1.0  0.5741379061480247  0.7972433119227419  0.6308306591594712  1.0000
  H   H26       1.0  0.9258645678948556  0.7027640523688633  0.1308317913520155  1.0000
  H   H27       1.0  0.4258744274717969  0.20276287362203504  0.3691683427882209  1.0000
  H   H28       1.0  0.07413302457462831  0.2972401387915227  0.869169485584457  1.0000
  H   H29       1.0  0.4709702328007523  0.8368906184114308  0.45273151827972646  1.0000
  H   H30       1.0  0.0290280681727566  0.6631122144582591  0.9527320036226709  1.0000
  H   H31       1.0  0.5290343078189538  0.1631149032500119  0.547265208711657  1.0000
  H   H32       1.0  0.9709627653445524  0.3368973095459965  0.047265860864420986  1.0000
  H   H33       1.0  0.42260208284127293  0.9592864763025729  0.3629612084844708  1.0000
  H   H34       1.0  0.07740287718741713  0.5407193633464188  0.8629562151450967  1.0000
  H   H35       1.0  0.5774008815304799  0.040724376558408396  0.6370394996942745  1.0000
  H   H36       1.0  0.9225836752431393  0.45929149469314007  0.13703596192768686  1.0000
  H   H37       1.0  0.0865228868148336  0.9783839839967997  0.46511275855433326  1.0000
  H   H38       1.0  0.41348240177658374  0.521624130022417  0.9651063875803197  1.0000
  H   H39       1.0  0.9134831732631385  0.021614207442269204  0.5348924995720308  1.0000
  H   H40       1.0  0.5865038858202355  0.47837739936209545  0.03488237705468578  1.0000
  H   H41       1.0  0.13325402890266252  0.8572620132478335  0.5556366515975594  1.0000
  H   H42       1.0  0.3667449003442371  0.6427416725838738  0.055632979647292274  1.0000
  H   H43       1.0  0.8667590549816284  0.14274017401546507  0.44436860651438775  1.0000
  H   H44       1.0  0.6332506808054463  0.3572525241362499  0.9443626098873561  1.0000
  H   H45       1.0  0.31630831856409003  0.671669374556025  0.7217951544353762  1.0000
  H   H46       1.0  0.1837074727658958  0.8283236750687591  0.22179713436711512  1.0000
  H   H47       1.0  0.683695150174522  0.32832881771336997  0.278202141309137  1.0000
  H   H48       1.0  0.8163034106345466  0.17166185443111456  0.778199023901514  1.0000
  H   H49       1.0  0.35548948022511695  0.7273713926766374  0.8544512092797159  1.0000
  H   H50       1.0  0.14451087124093934  0.7726224868832007  0.354447184803952  1.0000
  H   H51       1.0  0.6445035473758409  0.272624137511464  0.1455512051579716  1.0000
  H   H52       1.0  0.8554882407293223  0.2273743740820109  0.6455484047225535  1.0000
  H   H53       1.0  0.4328333415327208  0.9888879244315022  0.7664066808081027  1.0000
  H   H54       1.0  0.067153734775431  0.511106962542911  0.2664047026473708  1.0000
  H   H55       1.0  0.5671718736732531  0.011110933611156799  0.2335991460602428  1.0000
  H   H56       1.0  0.9328261846754132  0.48888324106017933  0.7335960055889427  1.0000
  H   H57       1.0  0.3890192708175277  0.9357894155657294  0.6345207047537895  1.0000
  H   H58       1.0  0.11097894072977252  0.5642053062209059  0.13452415747272534  1.0000
  H   H59       1.0  0.6109911838772462  0.0642114398521656  0.36548170965433946  1.0000
  H   H60       1.0  0.8890147047323894  0.4357815613669089  0.865478256975933  1.0000
  C   C1        1.0  0.4768452355005125  0.7091554021725841  0.5548976172393904  1.0000
  C   C2        1.0  0.023152159749813005  0.7908549503491431  0.054898972741135275  1.0000
  C   C3        1.0  0.5231524137263436  0.2908507879899744  0.44510195346889225  1.0000
  C   C4        1.0  0.9768542408537044  0.2091552350909893  0.945102304175911  1.0000
  C   C5        1.0  0.482098898522004  0.6374084695459743  0.5038468754594373  1.0000
  C   C6        1.0  0.0179003782663116  0.8625967470205823  0.003847480695107198  1.0000
  C   C7        1.0  0.5179003836914688  0.3625943884072527  0.49615326399308646  1.0000
  C   C8        1.0  0.9821042190886619  0.13741077362890053  0.9961549337114658  1.0000
  C   C9        1.0  0.5876442081344281  0.5978187540880526  0.4899109138100851  1.0000
  C   C10       1.0  0.9123594979821237  0.9021845704376829  0.9899097676234728  1.0000
  C   C11       1.0  0.4123558811145004  0.40218210459457293  0.5100892256441225  1.0000
  C   C12       1.0  0.08764943724418832  0.097823615196063  0.010087528100463296  1.0000
  C   C13       1.0  0.6879977564387616  0.629296287009808  0.5265439704819597  1.0000
  C   C14       1.0  0.8120059213053923  0.8707014808789425  0.02654266291926889  1.0000
  C   C15       1.0  0.3120038523024391  0.37069724147220035  0.4734533252712722  1.0000
  C   C16       1.0  0.18800119176005134  0.1293033736344427  0.9734540640697199  1.0000
  C   C17       1.0  0.6826556495365567  0.7022786429213427  0.5759698153791104  1.0000
  C   C18       1.0  0.8173427201365373  0.7977249345460963  0.07597494863490074  1.0000
  C   C19       1.0  0.31734781920886235  0.29771954935240064  0.42402520539820876  1.0000
  C   C20       1.0  0.18265844099178002  0.20228325352749726  0.9240251908079736  1.0000
  C   C21       1.0  0.5774832050199664  0.7421014584416027  0.5905734791052449  1.0000
  C   C22       1.0  0.9225193395104796  0.7579000628182938  0.09057674498337316  1.0000
  C   C23       1.0  0.4225212031845729  0.25789939889340735  0.4094209729254528  1.0000
  C   C24       1.0  0.07748604596761771  0.2421047922308688  0.9094239632004172  1.0000
  C   C25       1.0  0.8004717788668148  0.582959705024706  0.5150166306425416  1.0000
  C   C26       1.0  0.6995313688804431  0.917047435891412  0.015012072765742292  1.0000
  C   C27       1.0  0.19953191684687976  0.417046483218563  0.4849920399267729  1.0000
  C   C28       1.0  0.3004742436152484  0.08296541515882441  0.9849857916979016  1.0000
  C   C29       1.0  0.3061607425394756  0.8403986470020685  0.510750212887437  1.0000
  C   C30       1.0  0.19384012594419897  0.6596032109478571  0.010753762870677995  1.0000
  C   C31       1.0  0.6938541256912318  0.15960553872871236  0.48924878905972224  1.0000
  C   C32       1.0  0.8061557389447388  0.3404009807526691  0.9892492202934018  1.0000
  C   C33       1.0  0.3872067717056283  0.8684907627098754  0.45599616053217296  1.0000
  C   C34       1.0  0.11279325622732732  0.6315127234570354  0.9559999296607553  1.0000
  C   C35       1.0  0.6127968861919229  0.13151409287942073  0.5440062538792245  1.0000
  C   C36       1.0  0.8872001118923692  0.36849480072778124  0.04400077853479439  1.0000
  C   C37       1.0  0.36012718570029995  0.9364706112507762  0.4054560004280318  1.0000
  C   C38       1.0  0.139876675312756  0.5635357324674574  0.9054553350024502  1.0000
  C   C39       1.0  0.6398816360027554  0.0635335763731888  0.5945475514612608  1.0000
  C   C40       1.0  0.8601176322813658  0.4364744567884103  0.09453968577030027  1.0000
  C   C41       1.0  0.2520171026644462  0.9765402511477532  0.40892540939829986  1.0000
  C   C42       1.0  0.24798756356231885  0.5234647463693776  0.9089217322615109  1.0000
  C   C43       1.0  0.7479890709231756  0.0234619382923995  0.5910781424970961  1.0000
  C   C44       1.0  0.7520014288971097  0.47654078019459695  0.09106873858999616  1.0000
  C   C45       1.0  0.1706575416103604  0.9474753800603964  0.46324892593570133  1.0000
  C   C46       1.0  0.32934516675360476  0.5525327418956252  0.9632460989079159  1.0000
  C   C47       1.0  0.8293503973858523  0.052528141501206015  0.5367551946974272  1.0000
  C   C48       1.0  0.6706446894884409  0.4474727843933907  0.036746078167880086  1.0000
  C   C49       1.0  0.19731969190843301  0.8799441083706655  0.5140728881221575  1.0000
  C   C50       1.0  0.30267865993756266  0.6200610693569362  0.014073423095346992  1.0000
  C   C51       1.0  0.8026908006058877  0.12005807970338368  0.48593464496029515  1.0000
  C   C52       1.0  0.6973110449395821  0.3799391262520119  0.9859272851148542  1.0000
  C   C53       1.0  0.22545511461944306  0.04978921536205411  0.3543934641444719  1.0000
  C   C54       1.0  0.27456104474632786  0.45021318451078685  0.8543942466110362  1.0000
  C   C55       1.0  0.7745518281721786  0.9502096421437259  0.645608950270869  1.0000
  C   C56       1.0  0.725446799679766  0.5497870053968512  0.1456041866087502  1.0000
  C   C57       1.0  0.3514786069956699  0.800455726060335  0.6705854228891962  1.0000
  C   C58       1.0  0.1485116337126513  0.6995395265775172  0.1705849992218943  1.0000
  C   C59       1.0  0.6485301768810388  0.19954712890312723  0.32941528529295977  1.0000
  C   C60       1.0  0.8514734873904503  0.3004513417337904  0.8294128652978611  1.0000
  C   C61       1.0  0.3407338911228167  0.7411941380027187  0.7322041410720952  1.0000
  C   C62       1.0  0.15927233630603876  0.7587988748083703  0.23220182258804548  1.0000
  C   C63       1.0  0.659274798173577  0.2588053853002564  0.2677942921475206  1.0000
  C   C64       1.0  0.8407230178243453  0.2411873259095998  0.7677971794085462  1.0000
  C   C65       1.0  0.36317363574122663  0.7715993142173475  0.80545687713829  1.0000
  C   C66       1.0  0.1368253757242002  0.7283980849272921  0.3054575424722116  1.0000
  C   C67       1.0  0.6368221534865129  0.22840221215673753  0.194543262320522  1.0000
  C   C68       1.0  0.8631693227016302  0.2715954457195977  0.6945443032242549  1.0000
  C   C69       1.0  0.398985167430972  0.860332377492405  0.8171870102898918  1.0000
  C   C70       1.0  0.10101367933042131  0.6396616451450045  0.31717663366341486  1.0000
  C   C71       1.0  0.6010174374825114  0.13966581502476325  0.18282279777528018  1.0000
  C   C72       1.0  0.8989783710003822  0.3603298873311259  0.6828183871375725  1.0000
  C   C73       1.0  0.40726915945888464  0.9196933570457589  0.7559169338454976  1.0000
  C   C74       1.0  0.09272143472784222  0.5803015689585538  0.25591640838038626  1.0000
  C   C75       1.0  0.592737745494489  0.08030416779191539  0.24408661805529858  1.0000
  C   C76       1.0  0.9072568895644296  0.41969329951545115  0.744086006077026  1.0000
  C   C77       1.0  0.38272446777070007  0.8899618454520422  0.6825510199417477  1.0000
  C   C78       1.0  0.11726213272314114  0.6100293645101047  0.1825509195623595  1.0000
  C   C79       1.0  0.6172868128769552  0.11003767702821679  0.3174513944671417  1.0000
  C   C80       1.0  0.8827167716005847  0.389955508700929  0.817449788682502  1.0000
  C   C81       1.0  0.4296839556648778  0.8907789243039161  0.8956403107253901  1.0000
  C   C82       1.0  0.07032685542802142  0.6092267884457244  0.395641470275457  1.0000
  C   C83       1.0  0.5703222746903196  0.1092252641449321  0.10435812249103546  1.0000
  C   C84       1.0  0.9296810457350377  0.3907754004510338  0.6043620816177292  1.0000
  N   N1        1.0  0.9865530927893291  0.7276476634611485  0.6799223113665034  1.0000
  N   N2        1.0  0.513446439562003  0.7723575148937771  0.17992089828398145  1.0000
  N   N3        1.0  0.013447822410768107  0.27235186228275415  0.3200783968302544  1.0000
  N   N4        1.0  0.48655040262940474  0.22765067453939034  0.8200786724226243  1.0000
  O   O1        1.0  0.24665278620606307  0.678472224458382  0.5778421353468273  1.0000
  O   O2        1.0  0.25334420697490156  0.8215287116410009  0.07784679908210987  1.0000
  O   O3        1.0  0.7533492198044558  0.3215352970181585  0.42215402290328524  1.0000
  O   O4        1.0  0.7466574774019891  0.17846748215112743  0.9221618715033696  1.0000
  O   O5        1.0  0.7966392528279587  0.5087221596918781  0.4798883992642329  1.0000
  O   O6        1.0  0.703355402416122  0.9912645475607037  0.9798864087856525  1.0000
  O   O7        1.0  0.2033542980453831  0.4912613762299998  0.5201145839308762  1.0000
  O   O8        1.0  0.2966446300771254  0.008734312120843402  0.020114868154941193  1.0000
  O   O9        1.0  0.8906785206920277  0.620650060561239  0.5419173822165033  1.0000
  O   O10       1.0  0.6093137034248883  0.8793429877138267  0.04192510142475208  1.0000
  O   O11       1.0  0.10930825231681501  0.37933814187479703  0.45808048230476556  1.0000
  O   O12       1.0  0.39068463930225766  0.12065720516073952  0.9580847066431625  1.0000
  O   O13       1.0  0.11832867215887433  0.07911115802827598  0.36173146817049656  1.0000
  O   O14       1.0  0.3816823173532242  0.42089321441101657  0.8617309184650065  1.0000
  O   O15       1.0  0.881672243042921  0.9208883677167137  0.6382686712844641  1.0000
  O   O16       1.0  0.6183196886623962  0.579114307068778  0.13826353355971574  1.0000
  O   O17       1.0  0.2963578046279239  0.07938043712301382  0.3076541321617156  1.0000
  O   O18       1.0  0.20364900015945153  0.42061748016384126  0.8076574516339573  1.0000
  O   O19       1.0  0.703641382998427  0.9206190891653705  0.6923460072954553  1.0000
  O   O20       1.0  0.7963455658478085  0.5793713861544347  0.19234325658541698  1.0000
  O   O21       1.0  0.48425377172128503  0.964849971259163  0.902930272559558  1.0000
  O   O22       1.0  0.0157521849877611  0.5351383903129232  0.402930066983245  1.0000
  O   O23       1.0  0.515739199130799  0.03514355993220869  0.09707100439732126  1.0000
  O   O24       1.0  0.9842507729837991  0.46484181096848687  0.5970660913027711  1.0000
  O   O25       1.0  0.39974632785254033  0.8417616820454229  0.9513469685751726  1.0000
  O   O26       1.0  0.10024373439833313  0.6582245002550594  0.45133995590180104  1.0000
  O   O27       1.0  0.600249196510852  0.15823051565404714  0.04865999579822497  1.0000
  O   O28       1.0  0.8997444067769965  0.34175104132530276  0.5486505149915428  1.0000
  O   O29       1.0  0.023842923122792604  0.7527190841939702  0.6154708459035658  1.0000
  O   O30       1.0  0.4761460898572239  0.7472823767693059  0.11547457200882855  1.0000
  O   O31       1.0  0.9761510061058375  0.2472777783916413  0.38452986230576147  1.0000
  O   O32       1.0  0.5238576437185288  0.25272514415730996  0.8845249986898619  1.0000
  O   O33       1.0  0.0045495335995369  0.6467064717628405  0.6995702956170216  1.0000
  O   O34       1.0  0.4954519900216854  0.8532966624833663  0.1995691342460758  1.0000
  O   O35       1.0  0.995452245386581  0.3532930537082777  0.3004309813204315  1.0000
  O   O36       1.0  0.5045387678157242  0.14671019618248954  0.8004321426955268  1.0000
  O   O37       1.0  0.9324227778779106  0.7786861784459163  0.7229766341969533  1.0000
  O   O38       1.0  0.5675817175662345  0.7213201662841372  0.2229718087193929  1.0000
  O   O39       1.0  0.06757911460424991  0.22131734501758157  0.27702748644391295  1.0000
  O   O40       1.0  0.43241510570604913  0.2786873568149701  0.7770283307299404  1.0000
  O   O41       1.0  0.18793402445331964  0.5408188654704064  0.6879849342238911  1.0000
  O   O42       1.0  0.3120700841313707  0.9591816469295795  0.18798850471691955  1.0000
  O   O43       1.0  0.812072918351902  0.45917999204407783  0.3120129302570687  1.0000
  O   O44       1.0  0.68792568618575  0.0408192131158884  0.812009359775622  1.0000
