data_image0
_chemical_formula_structural       Cd2H30C40N6O10
_chemical_formula_sum              "Cd2 H30 C40 N6 O10"
_cell_length_a       10.08920240323692
_cell_length_b       10.457042908508894
_cell_length_c       10.506973585727142
_cell_angle_alpha    64.94363264255556
_cell_angle_beta     63.64811309613845
_cell_angle_gamma    71.36386604449788

_space_group_name_H-M_alt    "P 1"
_space_group_IT_number       1

loop_
  _space_group_symop_operation_xyz
  'x, y, z'

loop_
  _atom_site_type_symbol
  _atom_site_label
  _atom_site_symmetry_multiplicity
  _atom_site_fract_x
  _atom_site_fract_y
  _atom_site_fract_z
  _atom_site_occupancy
  Cd  Cd1       1.0  0.26255341981244135  0.39941524422609126  0.060119045692005074  1.0000
  Cd  Cd2       1.0  0.7374465216402724  0.6005847047176829  0.9398799542676318  1.0000
  H   H1        1.0  0.8552590449863045  0.848825846072977  0.09460014250198132  1.0000
  H   H2        1.0  0.14474052467537038  0.1511762448102374  0.9054000144765695  1.0000
  H   H3        1.0  0.00912586391729058  0.6528339210367379  0.11801873418338006  1.0000
  H   H4        1.0  0.990875373432573  0.3471649669829802  0.8819830156878936  1.0000
  H   H5        1.0  0.45694915829054134  0.24583238611640482  0.734641302212836  1.0000
  H   H6        1.0  0.5430518895585051  0.7541675692708838  0.26535817398044514  1.0000
  H   H7        1.0  0.4004946766990257  0.23261236159736862  0.3214119892669843  1.0000
  H   H8        1.0  0.5995032438653708  0.7673865094932282  0.6785902333616676  1.0000
  H   H9        1.0  0.5630909980693701  0.24214506409333592  0.8790635685756101  1.0000
  H   H10       1.0  0.4369089481904068  0.7578548896532953  0.12093923430062857  1.0000
  H   H11       1.0  0.48780138488139346  0.4131125663940197  0.47428328454125795  1.0000
  H   H12       1.0  0.5121998512667076  0.5868863204249806  0.5257175146008634  1.0000
  H   H13       1.0  0.7577119854126906  0.0283801021543511  0.9270622800077248  1.0000
  H   H14       1.0  0.24228777134626966  0.9716209189598501  0.0729382491905143  1.0000
  H   H15       1.0  0.8893218402907334  0.13251948400476013  0.1776504531894221  1.0000
  H   H16       1.0  0.11067920755832002  0.8674804713825284  0.8223490230038593  1.0000
  H   H17       1.0  0.9804448631015035  0.015074135307727903  0.30565154022015417  1.0000
  H   H18       1.0  0.019554161455701456  0.9849247398249548  0.6943492571838377  1.0000
  H   H19       1.0  0.2198557193355413  0.5819965885096393  0.4900605486549666  1.0000
  H   H20       1.0  0.7801440362216496  0.4180044314038583  0.5099390298141273  1.0000
  H   H21       1.0  0.34995524898427977  0.46577336328756075  0.2911660393414692  1.0000
  H   H22       1.0  0.6500437755729179  0.5342255118451221  0.7088347580625225  1.0000
  H   H23       1.0  0.9726383313415781  0.740133395508849  0.5018047084580387  1.0000
  H   H24       1.0  0.027361237118334686  0.25986869417364744  0.49819449779135994  1.0000
  H   H25       1.0  0.5929853529696983  0.028585580308437407  0.38322599356209974  1.0000
  H   H26       1.0  0.4070132997964606  0.9714154367636852  0.6167759608607994  1.0000
  H   H27       1.0  0.6500285882941839  0.0250272589433465  0.7737152134773311  1.0000
  H   H28       1.0  0.3499713543602993  0.9749726912011454  0.22628473721145786  1.0000
  H   H29       1.0  0.8617082206102821  0.9747718157479288  0.5551450025189408  1.0000
  H   H30       1.0  0.13829080394691567  0.025227059384761205  0.4448557948850508  1.0000
  C   C1        1.0  0.05076006463519888  0.641608291260198  0.20279592300619248  1.0000
  C   C2        1.0  0.9492441104985048  0.358392748423782  0.7972008067517112  1.0000
  C   C3        1.0  0.553895484948697  0.22356912162167933  0.6398882191317413  1.0000
  C   C4        1.0  0.4461055616985945  0.7764308325648985  0.3601103063323804  1.0000
  C   C5        1.0  0.48368087486156947  0.18820703747721987  0.23434587847327756  1.0000
  C   C6        1.0  0.5163179662036371  0.8117929110266078  0.7656573988984691  1.0000
  C   C7        1.0  0.57249333477899  0.19028508766672303  0.9897358902908168  1.0000
  C   C8        1.0  0.42750421279259854  0.8097159241625963  0.010266538627597327  1.0000
  C   C9        1.0  0.6943319074099178  0.29366764786392  0.36967103560241554  1.0000
  C   C10       1.0  0.3056680352445652  0.706332302280572  0.6303289150863661  1.0000
  C   C11       1.0  0.9733526825800921  0.7139628126674964  0.30735249693972855  1.0000
  C   C12       1.0  0.02664855116447739  0.28603607175007545  0.6926464007440886  1.0000
  C   C13       1.0  0.5704115835878268  0.317513492897696  0.4945995827526701  1.0000
  C   C14       1.0  0.4295885461639415  0.6824853874777902  0.5054007401558067  1.0000
  C   C15       1.0  0.6813953100117942  0.0727228124633186  0.016177798193268825  1.0000
  C   C16       1.0  0.31860315445531023  0.927279273177092  0.9838228332807901  1.0000
  C   C17       1.0  0.9296036531533785  0.1269843784823834  0.2614340085214268  1.0000
  C   C18       1.0  0.07039647659838977  0.8730145018931028  0.7385663143870501  1.0000
  C   C19       1.0  0.16906217484238792  0.5996549192769862  0.4105423853398946  1.0000
  C   C20       1.0  0.8309388718048963  0.40034503490959145  0.5894561401242343  1.0000
  C   C21       1.0  0.24044352292282406  0.5330859170983331  0.3014683537518295  1.0000
  C   C22       1.0  0.7595577132252772  0.4669129697206673  0.698532445390292  1.0000
  C   C23       1.0  0.032828663627483864  0.6893579689091426  0.4153483423595929  1.0000
  C   C24       1.0  0.9671712778252368  0.3106419800346316  0.5846506576000439  1.0000
  C   C25       1.0  0.8291289868130818  0.8164203177049605  0.3154211899381423  1.0000
  C   C26       1.0  0.17087076874411616  0.18358070220853054  0.6845783885309445  1.0000
  C   C27       1.0  0.8017924439547315  0.1682380202335736  0.3902447472937142  1.0000
  C   C28       1.0  0.19820749869975166  0.8317619299109185  0.6097552033950677  1.0000
  C   C29       1.0  0.5905214994818095  0.07177815468397603  0.27056542905465625  1.0000
  C   C30       1.0  0.40947733917987233  0.9282217914184305  0.7294359468587855  1.0000
  C   C31       1.0  0.6617230531063214  0.10157436483826393  0.6610403544250545  1.0000
  C   C32       1.0  0.338277076645447  0.8984245155372221  0.3389599684834294  1.0000
  C   C33       1.0  0.055953447390905374  0.21498978391104379  0.1784687802515208  1.0000
  C   C34       1.0  0.9440466823608631  0.7850090964644426  0.8215315426569636  1.0000
  C   C35       1.0  0.6907088135881593  0.0083629798700784  0.16069358734670655  1.0000
  C   C36       1.0  0.3092918612680862  0.9916391162559324  0.8393060951363367  1.0000
  C   C37       1.0  0.7825933462393448  0.07411244599297365  0.5373047008536106  1.0000
  C   C38       1.0  0.21740659641513824  0.9258875041515182  0.4626952498351713  1.0000
  C   C39       1.0  0.7061135061025963  0.4052043108059138  0.21921614843935094  1.0000
  C   C40       1.0  0.29388662244740266  0.5947945683688616  0.7807832237399809  1.0000
  N   N1        1.0  0.800181123306835  0.8888507804362221  0.18357072270517  1.0000
  N   N2        1.0  0.19981733995850703  0.11115130400347083  0.8164289580397437  1.0000
  N   N3        1.0  0.18077258329137183  0.5516179127774663  0.20179008884244354  1.0000
  N   N4        1.0  0.8192312362386646  0.44837884378841153  0.798209555018893  1.0000
  N   N5        1.0  0.4720776085400259  0.24686120284802382  0.09749741140122124  1.0000
  N   N6        1.0  0.5279212325251805  0.7531387456558107  0.9025058659705252  1.0000
  O   O1        1.0  0.5923649528292855  0.5012622819510639  0.2048311869573851  1.0000
  O   O2        1.0  0.4076349898251905  0.498737668193428  0.7951687637314039  1.0000
  O   O3        1.0  0.7469933869913136  0.8388320662548524  0.43538630579107007  1.0000
  O   O4        1.0  0.2530054504685992  0.16116787864683604  0.5646141193932266  1.0000
  O   O5        1.0  0.13978262878342204  0.22163115432806532  0.043191745204453035  1.0000
  O   O6        1.0  0.8602173126692988  0.7783687946157161  0.9568072547551835  1.0000
  O   O7        1.0  0.8304588727704709  0.40344168577257034  0.10863408497843348  1.0000
  O   O8        1.0  0.16954125818305948  0.5965571958036336  0.8913671886591957  1.0000
  O   O9        1.0  0.07883883009809978  0.272555200062648  0.25100102169813715  1.0000
  O   O10       1.0  0.9211581711672494  0.727442594815436  0.7490010969165654  1.0000
