data_image0
_chemical_formula_structural       Cd4H12C28N4O16
_chemical_formula_sum              "Cd4 H12 C28 N4 O16"
_cell_length_a       7.919704513290312
_cell_length_b       8.735341663714305
_cell_length_c       10.787469367898728
_cell_angle_alpha    112.78786686929136
_cell_angle_beta     89.99942751809749
_cell_angle_gamma    90.0009444488964

_space_group_name_H-M_alt    "P 1"
_space_group_IT_number       1

loop_
  _space_group_symop_operation_xyz
  'x, y, z'

loop_
  _atom_site_type_symbol
  _atom_site_label
  _atom_site_symmetry_multiplicity
  _atom_site_fract_x
  _atom_site_fract_y
  _atom_site_fract_z
  _atom_site_occupancy
  Cd  Cd1       1.0  0.13410383631086378  0.034674341287825414  0.36144149629256367  1.0000
  Cd  Cd2       1.0  0.6341017141309921  0.4653269804713249  0.638555710920997  1.0000
  Cd  Cd3       1.0  0.8658964069791751  0.9653245694302302  0.6385610258429041  1.0000
  Cd  Cd4       1.0  0.3658985292329008  0.5346779876109624  0.361443965902538  1.0000
  H   H1        1.0  0.5688647282910538  0.16639446274708553  0.022929690804417615  1.0000
  H   H2        1.0  0.06885363050802339  0.33360111557532696  0.977069984253987  1.0000
  H   H3        1.0  0.4311367777303587  0.8336054504102108  0.9770657095695371  1.0000
  H   H4        1.0  0.9311453500952143  0.6663940113995754  0.022929564572443533  1.0000
  H   H5        1.0  0.8669276737492881  0.19066005848590353  0.963425455097003  1.0000
  H   H6        1.0  0.3669189866148983  0.3093358365212355  0.03657037135094044  1.0000
  H   H7        1.0  0.13307762022214584  0.8093324962708054  0.03657055134688397  1.0000
  H   H8        1.0  0.6330825193707953  0.6906616835535504  0.9634271032473978  1.0000
  H   H9        1.0  0.0971153872768866  0.16539549958364572  0.12041748611571994  1.0000
  H   H10       1.0  0.5971038169804007  0.33460643514982996  0.8795764523713175  1.0000
  H   H11       1.0  0.9028886439964694  0.8345971746171232  0.8795822647284554  1.0000
  H   H12       1.0  0.40288885036045485  0.6654010155524119  0.12042395853778498  1.0000
  C   C1        1.0  0.7401796663794826  0.097885051557455  0.41644412765884914  1.0000
  C   C2        1.0  0.24016384913944222  0.4021091893388375  0.5835548793084584  1.0000
  C   C3        1.0  0.2598180515971081  0.9021149810265217  0.5835550171191103  1.0000
  C   C4        1.0  0.7598225047413508  0.5978820343620087  0.4164379518271844  1.0000
  C   C5        1.0  0.7648457965992037  0.11463237416248973  0.28299252966559163  1.0000
  C   C6        1.0  0.2648417316464133  0.3853659002874182  0.717006569861603  1.0000
  C   C7        1.0  0.23515065869300147  0.8853651458775503  0.7170049449401648  1.0000
  C   C8        1.0  0.7351521983186589  0.6146353736065323  0.2829929419591438  1.0000
  C   C9        1.0  0.630554883968884  0.13534940815817723  0.20625035822375545  1.0000
  C   C10       1.0  0.1305493913931741  0.3646520439345481  0.7937524760143121  1.0000
  C   C11       1.0  0.3694415712999586  0.8646456590729913  0.7937473184071636  1.0000
  C   C12       1.0  0.8694546399451822  0.6353518620168759  0.20625245036409018  1.0000
  C   C13       1.0  0.4469000438811578  0.13357286453533854  0.24183637787292872  1.0000
  C   C14       1.0  0.9468970284762295  0.3664256407821754  0.7581680056523512  1.0000
  C   C15       1.0  0.5531001994335868  0.8664259267299743  0.758162399864098  1.0000
  C   C16       1.0  0.05310195218474692  0.6335769043457377  0.24183280929780449  1.0000
  C   C17       1.0  0.6700093918261274  0.15797040739632004  0.08812827869304843  1.0000
  C   C18       1.0  0.1700018678700914  0.3420278037170947  0.9118714663744216  1.0000
  C   C19       1.0  0.329992114163325  0.8420258116160612  0.9118669566688454  1.0000
  C   C20       1.0  0.8299983754680156  0.6579734403570967  0.08812710933744236  1.0000
  C   C21       1.0  0.836990710020551  0.17010305170805404  0.05440173203864872  1.0000
  C   C22       1.0  0.3369825043709795  0.3298925807804666  0.9455988628199634  1.0000
  C   C23       1.0  0.16301205862133372  0.8298919857033484  0.9455950084833945  1.0000
  C   C24       1.0  0.663019001601029  0.6701075712823087  0.05440402635086647  1.0000
  C   C25       1.0  0.9632409020975032  0.15276931636163485  0.13794808359244837  1.0000
  C   C26       1.0  0.4632328945030651  0.3472291449513563  0.8620478270568767  1.0000
  C   C27       1.0  0.03675807847377399  0.847222116468359  0.8620513002219216  1.0000
  C   C28       1.0  0.536766086178865  0.6527745817862185  0.13795148273128904  1.0000
  N   N1        1.0  0.9271135041754804  0.11847739722743005  0.24587712551908683  1.0000
  N   N2        1.0  0.4271113847925322  0.38152429113551994  0.7541199923255135  1.0000
  N   N3        1.0  0.07288421374578753  0.8815164884027598  0.7541220562719746  1.0000
  N   N4        1.0  0.5728850705560832  0.6184832193191455  0.24588229077724588  1.0000
  O   O1        1.0  0.626812008254163  0.18092156723835026  0.4943221189505565  1.0000
  O   O2        1.0  0.12680587666073964  0.3190825250742152  0.5056880130515466  1.0000
  O   O3        1.0  0.3731945484346966  0.8190810376680419  0.5056805681876925  1.0000
  O   O4        1.0  0.8732019427173441  0.6809251347745404  0.49431895053257346  1.0000
  O   O5        1.0  0.8450689076939569  2.362532808319443e-05  0.43953727596684894  1.0000
  O   O6        1.0  0.3450614752769284  0.4999831111413613  0.5604609819054219  1.0000
  O   O7        1.0  0.154935123639568  0.9999777382249068  0.5604650441378853  1.0000
  O   O8        1.0  0.6549387680883003  0.5000192846793113  0.43953515254483494  1.0000
  O   O9        1.0  0.3944296459784909  0.0133379409969692  0.2696524263430859  1.0000
  O   O10       1.0  0.8944253798307001  0.48666729050154345  0.7303543134927184  1.0000
  O   O11       1.0  0.6055693346897472  0.9866684177285878  0.7303522980175716  1.0000
  O   O12       1.0  0.10557233813729991  0.5133315007463964  0.2696444642480175  1.0000
  O   O13       1.0  0.3543800003396456  0.24785635902314615  0.23293738298769281  1.0000
  O   O14       1.0  0.8543735520545325  0.25214090335100553  0.7670682083379675  1.0000
  O   O15       1.0  0.6456227683709843  0.7521486090765068  0.7670622938321333  1.0000
  O   O16       1.0  0.14562542856213406  0.7478580073583604  0.23293431379935486  1.0000
