data_image0
_chemical_formula_structural       Zn4H48C54N10O31
_chemical_formula_sum              "Zn4 H48 C54 N10 O31"
_cell_length_a       16.02317590101381
_cell_length_b       19.145425194502558
_cell_length_c       19.178586317650016
_cell_angle_alpha    94.78751755605973
_cell_angle_beta     94.87298620769725
_cell_angle_gamma    90.57058053734845

_space_group_name_H-M_alt    "P 1"
_space_group_IT_number       1

loop_
  _space_group_symop_operation_xyz
  'x, y, z'

loop_
  _atom_site_type_symbol
  _atom_site_label
  _atom_site_symmetry_multiplicity
  _atom_site_fract_x
  _atom_site_fract_y
  _atom_site_fract_z
  _atom_site_occupancy
  Zn  Zn1       1.0  0.43655584405801307  0.5614081404398163  0.5605592620312763  1.0000
  Zn  Zn2       1.0  0.5860702021292568  0.44855943533639914  0.55766366160816  1.0000
  Zn  Zn3       1.0  0.5697526869797187  0.5645903304817776  0.4465776794811376  1.0000
  Zn  Zn4       1.0  0.4327458030749795  0.44209661145963947  0.43592869822661123  1.0000
  H   H1        1.0  0.015213669579551897  0.5728227041904572  0.49905338469590527  1.0000
  H   H2        1.0  0.36229870807749626  0.8987035738375367  0.5707748627639617  1.0000
  H   H3        1.0  0.38080498096554993  0.7681337601069912  0.5670383365233036  1.0000
  H   H4        1.0  0.5366577609417079  0.21767600783753238  0.3761218124213599  1.0000
  H   H5        1.0  0.5309937967075552  0.08701597561770309  0.3839854732763541  1.0000
  H   H6        1.0  0.5940050646112952  0.6032920481818278  0.9175056025747922  1.0000
  H   H7        1.0  0.0054510311000370995  0.3033511583529033  0.5383059436519773  1.0000
  H   H8        1.0  0.09834577915694348  0.35615568864240993  0.5550961683620912  1.0000
  H   H9        1.0  0.02508046199870509  0.29083166645731484  0.4105023613127656  1.0000
  H   H10       1.0  0.11493128823514098  0.3465919553393987  0.4244461550111111  1.0000
  H   H11       1.0  0.18877980051502866  0.26094579299414983  0.5001265207330263  1.0000
  H   H12       1.0  0.15672934092712149  0.22016143726067133  0.4155265087390347  1.0000
  H   H13       1.0  0.09903468335379269  0.20444457005697808  0.4878421985559598  1.0000
  H   H14       1.0  0.7041784329010311  0.6997621568203057  0.4894755115911238  1.0000
  H   H15       1.0  0.6494137479199865  0.7272001728054462  0.5638449564150889  1.0000
  H   H16       1.0  0.7979390554214659  0.80649078837736  0.5146789058458835  1.0000
  H   H17       1.0  0.7421479961619609  0.8343254569324611  0.5873060859741912  1.0000
  H   H18       1.0  0.7858499245232622  0.7253349382539722  0.6466789299852138  1.0000
  H   H19       1.0  0.8743369758291165  0.7740691328869571  0.6270869090303889  1.0000
  H   H20       1.0  0.841622236327133  0.6966731694921647  0.5736495812025453  1.0000
  H   H21       1.0  0.3712654824619577  0.4151014505458121  0.6584436600996355  1.0000
  H   H22       1.0  0.3332483012784379  0.4687104011334993  0.7297636045558561  1.0000
  H   H23       1.0  0.31955075012915296  0.3084111245587378  0.710118764330545  1.0000
  H   H24       1.0  0.2739293198584604  0.3628003638121483  0.7754680202782467  1.0000
  H   H25       1.0  0.1835693083943468  0.4179514562176649  0.6789618391562158  1.0000
  H   H26       1.0  0.16569901336681167  0.3261664182089063  0.6763099362805532  1.0000
  H   H27       1.0  0.22913162033212586  0.3609361973932223  0.6152813589407558  1.0000
  H   H28       1.0  0.2769559371134135  0.34339018088174095  0.18864152730856884  1.0000
  H   H29       1.0  0.272351723552937  0.4344678070666247  0.17634525904072967  1.0000
  H   H30       1.0  0.275436068209693  0.37237416221460506  0.3192185650203783  1.0000
  H   H31       1.0  0.2677555468592416  0.46214693526947287  0.3056567149834634  1.0000
  H   H32       1.0  0.12928245122465395  0.43811790583411186  0.2323911056519563  1.0000
  H   H33       1.0  0.12577971428434145  0.4109730193586714  0.3182523229842218  1.0000
  H   H34       1.0  0.13648562696815958  0.34781891845232576  0.2464931158395771  1.0000
  H   H35       1.0  0.4628516269237224  0.6433465867724805  0.308574420925396  1.0000
  H   H36       1.0  0.4491334877517302  0.6793550698511408  0.2250822392678842  1.0000
  H   H37       1.0  0.5906893635609265  0.7160280809243458  0.3411642114832176  1.0000
  H   H38       1.0  0.5851127952357372  0.7471500926870644  0.25636164028829705  1.0000
  H   H39       1.0  0.44728506142217833  0.8044436178039333  0.2782087185594264  1.0000
  H   H40       1.0  0.5271766131572234  0.8352052988487484  0.3438459280606451  1.0000
  H   H41       1.0  0.4517820510210483  0.7724904386699476  0.3628487344048636  1.0000
  H   H42       1.0  0.3605257865715146  0.05463262786619791  0.6472416374773075  1.0000
  H   H43       1.0  0.3410064158616564  0.05937802808990967  0.5551183920524849  1.0000
  H   H44       1.0  0.31887463550673084  0.17985629949531293  0.6685561162559991  1.0000
  H   H45       1.0  0.3013366836422264  0.1867149372026802  0.5769581673897974  1.0000
  H   H46       1.0  0.18732392799553568  0.09375266069563537  0.5682067753556906  1.0000
  H   H47       1.0  0.16561585117894137  0.1651577535888363  0.6286950127579658  1.0000
  H   H48       1.0  0.20431854175650696  0.08602355037236009  0.6600063224488011  1.0000
  C   C1        1.0  0.5133723963297855  0.3180736682783945  0.48138223221509696  1.0000
  C   C2        1.0  0.49944768417007873  0.69230361350737  0.5144369322087171  1.0000
  C   C3        1.0  0.5162391709595013  0.5047989789801548  0.6871289823466356  1.0000
  C   C4        1.0  0.47870230564338095  0.5084524922135143  0.31613648362223046  1.0000
  C   C5        1.0  0.7312571058395392  0.5169185819059549  0.5059019953823238  1.0000
  C   C6        1.0  0.2833568183903666  0.4853751258313749  0.5024725160703339  1.0000
  C   C7        1.0  0.8201905016464721  0.5199787466581397  0.5049114515458584  1.0000
  C   C8        1.0  0.9829031122106855  0.522954516563878  0.5021063006575872  1.0000
  C   C9        1.0  0.030771299854507085  0.46381399171471555  0.504109827012087  1.0000
  C   C10       1.0  0.11870945661024017  0.4699828396083915  0.5038680694409479  1.0000
  C   C11       1.0  0.8961598332323745  0.5213330801132726  0.5027031181650584  1.0000
  C   C12       1.0  0.19439113271567268  0.47705968064972376  0.5040967053171171  1.0000
  C   C13       1.0  0.4987177102684725  0.7704744557478803  0.5223482721215476  1.0000
  C   C14       1.0  0.562436392347884  0.8131294667795357  0.49994595199868996  1.0000
  C   C15       1.0  0.5490315353463728  0.8855570255867135  0.49967696943233614  1.0000
  C   C16       1.0  0.47670919332930584  0.9165383766922656  0.5243589137494666  1.0000
  C   C17       1.0  0.41729027233959937  0.8737881383707626  0.5508453154310259  1.0000
  C   C18       1.0  0.42799694382284764  0.8020641534983993  0.5490594316170885  1.0000
  C   C19       1.0  0.4691581534011461  0.1391033681500247  0.5464113208248378  1.0000
  C   C20       1.0  0.4810494848871159  0.2114621270540978  0.5426977272547759  1.0000
  C   C21       1.0  0.489164783121339  0.09420138775217876  0.4870003950840456  1.0000
  C   C22       1.0  0.5036619700178591  0.2402387350792168  0.48209767934125125  1.0000
  C   C23       1.0  0.518886323996341  0.19549608963190215  0.4233026916897629  1.0000
  C   C24       1.0  0.5143242815031073  0.1235610299527181  0.42706339289283324  1.0000
  C   C25       1.0  0.4701182001213411  0.5058105807938559  0.23755882957308927  1.0000
  C   C26       1.0  0.5129328785886  0.5563489633221365  0.20307842880195887  1.0000
  C   C27       1.0  0.5165207327823181  0.547972590634032  0.1304213007928468  1.0000
  C   C28       1.0  0.4767917510052015  0.4909266828986814  0.0892432448205582  1.0000
  C   C29       1.0  0.43155575322810336  0.44352169614916187  0.12413714210308058  1.0000
  C   C30       1.0  0.42556635126585  0.44996888813884073  0.1969305409929447  1.0000
  C   C31       1.0  0.4725586840317603  0.45765813746853445  0.8690948761447856  1.0000
  C   C32       1.0  0.47265130340146305  0.4556587487635896  0.7958844891953659  1.0000
  C   C33       1.0  0.5158167601017071  0.5107269583662983  0.9138612271039933  1.0000
  C   C34       1.0  0.5185090925199203  0.5071971856142242  0.7660930344381497  1.0000
  C   C35       1.0  0.561875521572425  0.5592655559165534  0.8111505169654761  1.0000
  C   C36       1.0  0.5608921646502624  0.5617497456447537  0.8835659396201551  1.0000
  C   C37       1.0  0.04634842442677469  0.34019885822216617  0.515629090448364  1.0000
  C   C38       1.0  0.0786013470722153  0.3072682562193875  0.4483360465061068  1.0000
  C   C39       1.0  0.13379674511291736  0.24472090116254464  0.463882112535785  1.0000
  C   C40       1.0  0.6869286454668782  0.7455651300615075  0.5232580986881601  1.0000
  C   C41       1.0  0.7631129973985153  0.7875079785756537  0.5566200938065577  1.0000
  C   C42       1.0  0.819277980994741  0.7433419758504198  0.6035349794118259  1.0000
  C   C43       1.0  0.35520380312327404  0.41617844798516046  0.7130750675834108  1.0000
  C   C44       1.0  0.29063260408173613  0.3596185788357502  0.7208540417464278  1.0000
  C   C45       1.0  0.21296052319979705  0.3666323677313271  0.6700619978914233  1.0000
  C   C46       1.0  0.29234933112695666  0.3962058399914453  0.2138426058513119  1.0000
  C   C47       1.0  0.250650048259125  0.4092433610574985  0.2818246516747394  1.0000
  C   C48       1.0  0.15539393386861633  0.4009451108062193  0.2688639164407434  1.0000
  C   C49       1.0  0.49583035427824734  0.6660662032456202  0.2673735108799775  1.0000
  C   C50       1.0  0.5471964672660193  0.7299884683356976  0.2972086458359726  1.0000
  C   C51       1.0  0.49009600741000264  0.7888303266629246  0.32189889855200693  1.0000
  C   C52       1.0  0.3586222792882978  0.09032847790520286  0.6051913500934845  1.0000
  C   C53       1.0  0.29868825520455994  0.15017852476381677  0.6182109429003902  1.0000
  C   C54       1.0  0.20908209395678765  0.12217523617391633  0.6188176653451051  1.0000
  N   N1        1.0  0.45851257553135133  0.9882652288755264  0.5268554992054533  1.0000
  N   N2        1.0  0.4962009657763672  0.0213899874538441  0.4839918038176663  1.0000
  N   N3        1.0  0.47594315423245337  0.47659331644688047  0.01635164643632688  1.0000
  N   N4        1.0  0.5167114840986714  0.5212059672674058  0.9868898675321205  1.0000
  N   N5        1.0  0.42203981563273624  0.4019373022274165  0.8948324417051053  1.0000
  N   N6        1.0  0.3920975561860444  0.3815049097409257  0.08233575281735027  1.0000
  N   N7        1.0  0.6103648343109711  0.6142693668676316  0.781804754654452  1.0000
  N   N8        1.0  0.5633274994459896  0.6037347711820046  0.10059502494365798  1.0000
  N   N9        1.0  0.46110281369302436  0.25954233283639633  0.6027777609309837  1.0000
  N   N10       1.0  0.6183994862327253  0.9276339287108045  0.47757064565220014  1.0000
  O   O1        1.0  0.506837702122091  0.5034380882406138  0.5015445575177039  1.0000
  O   O2        1.0  0.47418062542376294  0.34581410739512103  0.43031740939946417  1.0000
  O   O3        1.0  0.45876649347003007  0.6613636597168124  0.5577298794255796  1.0000
  O   O4        1.0  0.5684625111020623  0.46533361746840984  0.6581949550182526  1.0000
  O   O5        1.0  0.5486341947725675  0.5315095610599059  0.3464440432173959  1.0000
  O   O6        1.0  0.7013421702601335  0.46850532462648414  0.5392003436114265  1.0000
  O   O7        1.0  0.32009390903893825  0.43563165921057123  0.4693959482982848  1.0000
  O   O8        1.0  0.6899355836344012  0.5629923791224627  0.4731567028713215  1.0000
  O   O9        1.0  0.3163668496179283  0.5416466670911646  0.5339205852682766  1.0000
  O   O10       1.0  0.4572834148128422  0.5394511766203678  0.6587356676418494  1.0000
  O   O11       1.0  0.41739506297344053  0.4862058546881585  0.3468837320950513  1.0000
  O   O12       1.0  0.5606793385071995  0.3483128891773147  0.5316140541526337  1.0000
  O   O13       1.0  0.5366615903463909  0.6628878207653627  0.463825976695098  1.0000
  O   O14       1.0  0.9934115165142431  0.40026631279977903  0.5047234907028226  1.0000
  O   O15       1.0  0.6359076630001894  0.7895380168898497  0.47846381542549205  1.0000
  O   O16       1.0  0.4314670144892006  0.40166880226482954  0.7571061796344054  1.0000
  O   O17       1.0  0.45836898552818167  0.3477698435760104  0.9083333680349811  1.0000
  O   O18       1.0  0.34646567362746333  0.4134327808120231  0.8964100391595481  1.0000
  O   O19       1.0  0.3203970236081162  0.3882075068063101  0.05483730520681718  1.0000
  O   O20       1.0  0.43394726143696255  0.3278182004209852  0.07990843979492009  1.0000
  O   O21       1.0  0.3840617590815825  0.40033848856732124  0.22760918249973364  1.0000
  O   O22       1.0  0.6446664779536349  0.6608691239705988  0.8232444305306714  1.0000
  O   O23       1.0  0.6134940690896469  0.6100764694010719  0.7170727671585907  1.0000
  O   O24       1.0  0.523331314310532  0.6561023947417012  0.08577448862417467  1.0000
  O   O25       1.0  0.6389223543419362  0.5950966958108878  0.09691267149342048  1.0000
  O   O26       1.0  0.5517155927926184  0.6143491923115292  0.2371173131191071  1.0000
  O   O27       1.0  0.4060594631594512  0.3033572063641542  0.5898512203517683  1.0000
  O   O28       1.0  0.49817658667387826  0.25271576743474355  0.6605015591172573  1.0000
  O   O29       1.0  0.4449497448410398  0.11550462845355004  0.6061424567913889  1.0000
  O   O30       1.0  0.6633331663191127  0.960789646673781  0.5249528437838435  1.0000
  O   O31       1.0  0.6290345171000238  0.9234074182172163  0.41440406090340787  1.0000
