data_image0
_chemical_formula_structural       Li4H16C24N4O8
_chemical_formula_sum              "Li4 H16 C24 N4 O8"
_cell_length_a       4.92303575700021
_cell_length_b       10.731692689000214
_cell_length_c       13.779881732000332
_cell_angle_alpha    90.00000444250884
_cell_angle_beta     89.99997526695985
_cell_angle_gamma    89.99997756891925

_space_group_name_H-M_alt    "P 1"
_space_group_IT_number       1

loop_
  _space_group_symop_operation_xyz
  'x, y, z'

loop_
  _atom_site_type_symbol
  _atom_site_label
  _atom_site_symmetry_multiplicity
  _atom_site_fract_x
  _atom_site_fract_y
  _atom_site_fract_z
  _atom_site_occupancy
  Li  Li1       1.0  0.36344375993287775  0.9939652755136379  0.43285059655421776  1.0000
  Li  Li2       1.0  0.8634424999137809  0.0060353451975672  0.5671499390686775  1.0000
  Li  Li3       1.0  0.36344216279449887  0.49396491672427334  0.0671493295545176  1.0000
  Li  Li4       1.0  0.8634420657856198  0.5060357039870809  0.9328504803728989  1.0000
  H   H1        1.0  0.9301571161769573  0.7081314794364032  0.595478209909345  1.0000
  H   H2        1.0  0.4301569781249412  0.2918691292892888  0.4045215897251069  1.0000
  H   H3        1.0  0.930157142829401  0.20813208597822808  0.9045222114707485  1.0000
  H   H4        1.0  0.43015695147206406  0.7918685227475066  0.09547831385933138  1.0000
  H   H5        1.0  0.5024980413856995  0.8491633340960403  0.8043029712082372  1.0000
  H   H6        1.0  0.0024982758695486  0.1508364196411733  0.1956968944066375  1.0000
  H   H7        1.0  0.5024983202556754  0.3491629880753847  0.69569679899233  1.0000
  H   H8        1.0  0.0024979969991321006  0.6508367656618643  0.3043037923181728  1.0000
  H   H9        1.0  0.7563679903056058  0.5628710989483565  0.7252761398879953  1.0000
  H   H10       1.0  0.2563699163634965  0.4371295409991731  0.27472296086335035  1.0000
  H   H11       1.0  0.7563681737276938  0.0628707607775922  0.7747235738175178  1.0000
  H   H12       1.0  0.25636770167438533  0.9371289473507004  0.22527625262959108  1.0000
  H   H13       1.0  0.30125228509415797  0.7018967484190525  0.9265456860061646  1.0000
  H   H14       1.0  0.8012513721834935  0.29810295164563166  0.07345413351612248  1.0000
  H   H15       1.0  0.3012506803404378  0.20189732207541058  0.5734541063303311  1.0000
  H   H16       1.0  0.8012529769368157  0.7981033098087236  0.4265457131919845  1.0000
  C   C1        1.0  0.34854435634403563  0.8766576032968202  0.6154849627894875  1.0000
  C   C2        1.0  0.848547279365441  0.12334208827123659  0.3845141237405159  1.0000
  C   C3        1.0  0.3485444071612349  0.3766572760318424  0.8845148328275484  1.0000
  C   C4        1.0  0.8485431660138331  0.6233424155366123  0.11548497939840269  1.0000
  C   C5        1.0  0.017608347882195105  0.7084521109023071  0.6680137359474118  1.0000
  C   C6        1.0  0.5176091595771694  0.2915495037591639  0.33198685303183584  1.0000
  C   C7        1.0  0.017608462143122897  0.20845084660012245  0.8319868262426837  1.0000
  C   C8        1.0  0.5176090453174711  0.7915489044223987  0.16801303704087897  1.0000
  C   C9        1.0  0.2293069444999958  0.7902472045039987  0.6906757453279295  1.0000
  C   C10       1.0  0.7293058220814216  0.20975344030551923  0.30932481098997044  1.0000
  C   C11       1.0  0.22930708613235856  0.2902459379507221  0.8093240634555485  1.0000
  C   C12       1.0  0.7293056804498903  0.70975377503931  0.19067576716669524  1.0000
  C   C13       1.0  0.33368151105153043  0.7883761063576458  0.7850836592397386  1.0000
  C   C14       1.0  0.8336805010621405  0.2116235878810215  0.2149168809749185  1.0000
  C   C15       1.0  0.33367973544115165  0.2883757622462966  0.7149168590230914  1.0000
  C   C16       1.0  0.8336802454051339  0.7116248638119982  0.2850836811917503  1.0000
  C   C17       1.0  0.9204577629873968  0.628773083852522  0.7398524517141922  1.0000
  C   C18       1.0  0.4204577316057367  0.3712284584351552  0.2601473494167195  1.0000
  C   C19       1.0  0.9204559327484887  0.1287718124145556  0.7601465149681559  1.0000
  C   C20       1.0  0.4204575305788936  0.8712278662343635  0.23985256046722012  1.0000
  C   C21       1.0  0.2217688505328326  0.7067934631061447  0.8525973072547827  1.0000
  C   C22       1.0  0.7217678524854918  0.2932062512381321  0.14740252453044886  1.0000
  C   C23       1.0  0.22176918773227786  0.2067931122883095  0.647402497640833  1.0000
  C   C24       1.0  0.721769546553034  0.7932066020557756  0.35259733414424227  1.0000
  N   N1        1.0  0.017908911318272706  0.6279093728217475  0.8310129553730974  1.0000
  N   N2        1.0  0.5179098511699323  0.37209037814676543  0.1689869078640882  1.0000
  N   N3        1.0  0.0179092224483028  0.12790902414793234  0.6689868762003215  1.0000
  N   N4        1.0  0.5179095400399021  0.8720907268205808  0.3310129870368641  1.0000
  O   O1        1.0  0.19978455064445202  0.9051163109148419  0.5424611263320003  1.0000
  O   O2        1.0  0.6997833472120264  0.09488340737910755  0.4575401602363129  1.0000
  O   O3        1.0  0.199784513264035  0.4051150590840604  0.9575394196541467  1.0000
  O   O4        1.0  0.6997854158607028  0.5948837273901828  0.0424604155227186  1.0000
  O   O5        1.0  0.5876203932800479  0.9142695428905158  0.6297927605907176  1.0000
  O   O6        1.0  0.08761844126880901  0.0857311273737125  0.37020709189142303  1.0000
  O   O7        1.0  0.5876224926450889  0.41426921420413254  0.8702070004172028  1.0000
  O   O8        1.0  0.0876224357047235  0.5857314560595482  0.1297928520644689  1.0000
