data_image0
_chemical_formula_structural       Al4H32C64N4O28
_chemical_formula_sum              "Al4 H32 C64 N4 O28"
_cell_length_a       6.644245545130861
_cell_length_b       20.29054405825901
_cell_length_c       22.864426059193242
_cell_angle_alpha    93.54748707572146
_cell_angle_beta     90.60649505911437
_cell_angle_gamma    88.83104808205185

_space_group_name_H-M_alt    "P 1"
_space_group_IT_number       1

loop_
  _space_group_symop_operation_xyz
  'x, y, z'

loop_
  _atom_site_type_symbol
  _atom_site_label
  _atom_site_symmetry_multiplicity
  _atom_site_fract_x
  _atom_site_fract_y
  _atom_site_fract_z
  _atom_site_occupancy
  Al  Al1       1.0  0.20574358557216504  0.7514037801928237  0.750578899613643  1.0000
  Al  Al2       1.0  0.7942617415208276  0.24859090691355576  0.2494231930436115  1.0000
  Al  Al3       1.0  0.705408871521982  0.7498845880482391  0.7490262690677839  1.0000
  Al  Al4       1.0  0.2945873457801156  0.25011256478387617  0.2509753727652536  1.0000
  H   H1        1.0  0.3108528788655818  0.5445593519682957  0.9587199276519698  1.0000
  H   H2        1.0  0.6891569025884863  0.4554355989846998  0.0412791038757803  1.0000
  H   H3        1.0  0.7996335135855047  0.950779357713657  0.5483850138503428  1.0000
  H   H4        1.0  0.2003718672611683  0.049216126962448876  0.4516214609687026  1.0000
  H   H5        1.0  0.33582490184281977  0.4641847013687652  0.037197798852489  1.0000
  H   H6        1.0  0.6641907519773441  0.5358156810305985  0.9628016795650751  1.0000
  H   H7        1.0  0.8444336575368894  0.03019126538251979  0.4703981001535311  1.0000
  H   H8        1.0  0.15557175844048748  0.9698032639300319  0.5296088128422979  1.0000
  H   H9        1.0  0.23751070392022208  0.6608012227889188  0.5835299178647304  1.0000
  H   H10       1.0  0.7624942299428171  0.3392039428510287  0.4164669166336239  1.0000
  H   H11       1.0  0.2004860549501473  0.8470926088060085  0.9227452153583542  1.0000
  H   H12       1.0  0.7995176182997525  0.1529069822499807  0.07725643715491512  1.0000
  H   H13       1.0  0.7123317238797925  0.5702910531531556  0.6454115918305732  1.0000
  H   H14       1.0  0.2876792818874634  0.4297115354384998  0.3545839364002035  1.0000
  H   H15       1.0  0.7232527401920521  0.9245980564372049  0.846983593992995  1.0000
  H   H16       1.0  0.27674792913260404  0.07540157562382889  0.15301849250000998  1.0000
  H   H17       1.0  0.4520103043568327  0.3664597138244332  0.5449996110300432  1.0000
  H   H18       1.0  0.4681065804611891  0.3685634507083435  0.4680285131195845  1.0000
  H   H19       1.0  0.6365824871721272  0.3171535883034338  0.5058430337211346  1.0000
  H   H20       1.0  0.5479246860121451  0.6335659396523211  0.4549905536465531  1.0000
  H   H21       1.0  0.36335152421390393  0.682858293835359  0.49415457793726597  1.0000
  H   H22       1.0  0.5318722982268795  0.6314547476238062  0.5319630273198043  1.0000
  H   H23       1.0  0.06753949450978071  0.11680556071789988  0.9415013161798244  1.0000
  H   H24       1.0  0.9065273997658139  0.17168171131442017  0.9840841817565076  1.0000
  H   H25       1.0  0.0687200727938517  0.11554814948842561  0.0187350409522864  1.0000
  H   H26       1.0  0.9324535148751849  0.8831973957660961  0.058498568786561095  1.0000
  H   H27       1.0  0.9312804498003615  0.8844547197157199  0.981263978171917  1.0000
  H   H28       1.0  0.09346419548327128  0.8283188772632215  0.015917015641690603  1.0000
  H   H29       1.0  0.4578294706273311  0.6646235247662489  0.7596635938699805  1.0000
  H   H30       1.0  0.5421833888825205  0.3353722741479854  0.24034070048274  1.0000
  H   H31       1.0  0.949313618733477  0.8365960196954629  0.7400530014881637  1.0000
  H   H32       1.0  0.050700702458272004  0.16340236038376327  0.2599530479328678  1.0000
  C   C1        1.0  0.4484717245863479  0.832309505058852  0.8304968129397209  1.0000
  C   C2        1.0  0.5515349809272081  0.16768905916301693  0.1695044055563031  1.0000
  C   C3        1.0  0.9684030669180146  0.6692625582588646  0.668811073326971  1.0000
  C   C4        1.0  0.03160209248304109  0.33073582843965  0.3311875137659399  1.0000
  C   C5        1.0  0.45511093402281944  0.8265308843334223  0.6730481991658479  1.0000
  C   C6        1.0  0.5449036433838615  0.1734575155930074  0.3269560970227444  1.0000
  C   C7        1.0  0.9549178948829605  0.6746388998369993  0.8266054069095147  1.0000
  C   C8        1.0  0.045088950207357904  0.3253502740093949  0.173388361605646  1.0000
  C   C9        1.0  0.18966906918505094  0.4801228204640679  0.0205849544925272  1.0000
  C   C10       1.0  0.8103421910432473  0.5198714495115198  0.979411449847923  1.0000
  C   C11       1.0  0.6944143334717836  0.01672086739157659  0.48359280051262477  1.0000
  C   C12       1.0  0.30559101728260163  0.9832772646503259  0.5164163036860429  1.0000
  C   C13       1.0  0.0139593542019938  0.4546585940861334  0.0441739798569714  1.0000
  C   C14       1.0  0.9860488312550474  0.5453381814671799  0.9558228585570132  1.0000
  C   C15       1.0  0.5248404705843087  0.044732726285445785  0.45607265397239155  1.0000
  C   C16       1.0  0.47516944496164376  0.9552644955146549  0.543937771183529  1.0000
  C   C17       1.0  0.8241367171917561  0.4752541689288989  0.022866664704025704  1.0000
  C   C18       1.0  0.17588209875340513  0.5247385350232249  0.9771288737379678  1.0000
  C   C19       1.0  0.3302542467614984  0.027329870269859693  0.4731972499420465  1.0000
  C   C20       1.0  0.6697451613653982  0.9726647410527814  0.5268105310132398  1.0000
  C   C21       1.0  0.027035148085111912  0.40926123347476556  0.0886650354485781  1.0000
  C   C22       1.0  0.9729761393123441  0.5907331583628944  0.9113331217490811  1.0000
  C   C23       1.0  0.5452443677535186  0.08959457555727109  0.41165889067184475  1.0000
  C   C24       1.0  0.45476418646421723  0.9103955069849332  0.5883480263897098  1.0000
  C   C25       1.0  0.9640340343282361  0.6296796163573218  0.8728739719398177  1.0000
  C   C26       1.0  0.035963676725167204  0.3703091321248664  0.1271132106570789  1.0000
  C   C27       1.0  0.44905998834313726  0.8716452645165942  0.6269005201730876  1.0000
  C   C28       1.0  0.5509424437244661  0.12834327443072618  0.37309806231003506  1.0000
  C   C29       1.0  0.12663636165103753  0.6223051119124391  0.5767737842721558  1.0000
  C   C30       1.0  0.8733702254704739  0.37769570362348037  0.4232243668175428  1.0000
  C   C31       1.0  0.3209260139142033  0.8826744839598031  0.9263630254968761  1.0000
  C   C32       1.0  0.6790746134874723  0.11732607299926201  0.0736381846050449  1.0000
  C   C33       1.0  0.9727762532083516  0.6198490003044055  0.6176926595141907  1.0000
  C   C34       1.0  0.027215167556505503  0.3801552573998492  0.38230459410537065  1.0000
  C   C35       1.0  0.4620530101592379  0.8816414705963423  0.8815269838251822  1.0000
  C   C36       1.0  0.5379476455808428  0.11835810053365489  0.1184742262392149  1.0000
  C   C37       1.0  0.8290291596936257  0.5706486705467951  0.6123710032689971  1.0000
  C   C38       1.0  0.17096056881291594  0.4293580929316575  0.38761967513128326  1.0000
  C   C39       1.0  0.6168876329442128  0.9271480886188997  0.8829564973494826  1.0000
  C   C40       1.0  0.3831069390609584  0.07285233709161787  0.1170425132117714  1.0000
  C   C41       1.0  0.8411849205021794  0.5215805231227788  0.5665132291292848  1.0000
  C   C42       1.0  0.1588078662679067  0.47842644307478105  0.4334805210056913  1.0000
  C   C43       1.0  0.6304840848019495  0.9756585972180214  0.9290309946342462  1.0000
  C   C44       1.0  0.3695135109207044  0.0243424327295827  0.07096977303755378  1.0000
  C   C45       1.0  0.9945391123785896  0.5245503716691786  0.5234759951659527  1.0000
  C   C46       1.0  0.0054385233733071974  0.47545843609103855  0.47651510458538837  1.0000
  C   C47       1.0  0.49125992567569915  0.9759595281428942  0.9762083416772851  1.0000
  C   C48       1.0  0.5087407294797615  0.024040596832676894  0.023793744834477992  1.0000
  C   C49       1.0  0.13803488052383978  0.5762571180894867  0.5286439791314949  1.0000
  C   C50       1.0  0.861947368734903  0.4237498849964112  0.47134975618248376  1.0000
  C   C51       1.0  0.3345848575425023  0.9284506178292201  0.9746936998388164  1.0000
  C   C52       1.0  0.6654127166340301  0.0715514284129739  0.025307506084807595  1.0000
  C   C53       1.0  0.7031856037507893  0.4679246294026669  0.5597804097152731  1.0000
  C   C54       1.0  0.29681015005996164  0.5320849126901237  0.4402150976052964  1.0000
  C   C55       1.0  0.7832000392610965  0.0249764225748379  0.9322443160284237  1.0000
  C   C56       1.0  0.2168036339888033  0.9750231684811509  0.06775733648484558  1.0000
  C   C57       1.0  0.7053434540288278  0.42039024686658166  0.5145173542468839  1.0000
  C   C58       1.0  0.2946279489191994  0.5796248679995769  0.48547198442199146  1.0000
  C   C59       1.0  0.80822141180834  0.07117460777974567  0.9779135916147438  1.0000
  C   C60       1.0  0.1917806790291152  0.9288268688075902  0.0220867442133752  1.0000
  C   C61       1.0  0.5575210157336273  0.3653497521418386  0.508584787206253  1.0000
  C   C62       1.0  0.44244127508500236  0.6346700438323508  0.4914076064278773  1.0000
  C   C63       1.0  0.9713896126698957  0.1213462453403196  0.9800940039794668  1.0000
  C   C64       1.0  0.02860943231933531  0.8786561971500926  0.019905889437296796  1.0000
  N   N1        1.0  0.5529695153568924  0.46394016340312305  0.6065598447367221  1.0000
  N   N2        1.0  0.4470306972687084  0.5360718883841  0.39343654545811546  1.0000
  N   N3        1.0  0.9168099300955959  0.025873625561729296  0.8810149954811806  1.0000
  N   N4        1.0  0.08319371481589852  0.9741269513233277  0.1189866570696125  1.0000
  O   O1        1.0  0.6265262416780643  0.8002209837918313  0.6835298183575559  1.0000
  O   O2        1.0  0.3734836587526686  0.19977116200154652  0.31647140412914604  1.0000
  O   O3        1.0  0.12040729523501878  0.6854761533483894  0.8015393061416772  1.0000
  O   O4        1.0  0.8795739513793848  0.3145136334640313  0.1984548646126854  1.0000
  O   O5        1.0  0.27833884858854674  0.8065055561079432  0.8191312437582354  1.0000
  O   O6        1.0  0.72166051878461  0.19348887242158946  0.1808739079112343  1.0000
  O   O7        1.0  0.8017377420818618  0.6794367880281411  0.6953695418133988  1.0000
  O   O8        1.0  0.1982736897075341  0.32055658204869536  0.3046351885425409  1.0000
  O   O9        1.0  0.29129777514573624  0.8174762530970552  0.6996643840361542  1.0000
  O   O10       1.0  0.7087167704147744  0.1825164557318998  0.30034517087416646  1.0000
  O   O11       1.0  0.7824109021625887  0.6989967250163784  0.8144402780804113  1.0000
  O   O12       1.0  0.21758828451868334  0.30100078832867183  0.18555961514874042  1.0000
  O   O13       1.0  0.1344573625539809  0.696586695094197  0.6823820486428573  1.0000
  O   O14       1.0  0.8655401856226561  0.303414121594777  0.3176156515288184  1.0000
  O   O15       1.0  0.6096347632951549  0.8208024564219086  0.8016119706834387  1.0000
  O   O16       1.0  0.39036582218353294  0.17919902543518873  0.19838836302739793  1.0000
  O   O17       1.0  0.45728401436041827  0.7099785007187122  0.7487240358552045  1.0000
  O   O18       1.0  0.5427288723185911  0.29001742005760167  0.25128201135472483  1.0000
  O   O19       1.0  0.9523892729974578  0.7912765044565473  0.7511372228627594  1.0000
  O   O20       1.0  0.04762053328725809  0.20872078374082292  0.24886706731167146  1.0000
  O   O21       1.0  0.6177425919645498  0.45396646434443955  0.6562985099079981  1.0000
  O   O22       1.0  0.3728769676282795  0.47090381739706527  0.5931158362878861  1.0000
  O   O23       1.0  0.38226856579479573  0.5460279024939324  0.34369219766526976  1.0000
  O   O24       1.0  0.6271256615543024  0.5291344951823972  0.40688976161747087  1.0000
  O   O25       1.0  0.8373319346025384  0.03946579899669439  0.8339000408798826  1.0000
  O   O26       1.0  0.09801577085833912  0.012916278911454486  0.8883943579048503  1.0000
  O   O27       1.0  0.1626791311260618  0.9605381714757897  0.16610118417435868  1.0000
  O   O28       1.0  0.9019894399578874  0.9870851207390814  0.11161211713932319  1.0000
