data_image0
_chemical_formula_structural       V2H8C16O10
_chemical_formula_sum              "V2 H8 C16 O10"
_cell_length_a       6.7984528695534365
_cell_length_b       11.194107967778944
_cell_length_c       11.19472406217957
_cell_angle_alpha    74.34943793981449
_cell_angle_beta     72.70190592478386
_cell_angle_gamma    72.70626526895887

_space_group_name_H-M_alt    "P 1"
_space_group_IT_number       1

loop_
  _space_group_symop_operation_xyz
  'x, y, z'

loop_
  _atom_site_type_symbol
  _atom_site_label
  _atom_site_symmetry_multiplicity
  _atom_site_fract_x
  _atom_site_fract_y
  _atom_site_fract_z
  _atom_site_occupancy
  V   V1        1.0  0.5307225518247661  0.5122508334114214  0.989100911546828  1.0000
  V   V2        1.0  0.030733203738904483  0.4891719808328574  0.012202298240374884  1.0000
  H   H1        1.0  0.3352887810000311  0.8744699577922861  0.0585225512942458  1.0000
  H   H2        1.0  0.15417039469485866  0.44527253717158294  0.6268523454672632  1.0000
  H   H3        1.0  0.277916866026274  0.44029245747311296  0.3928804404996528  1.0000
  H   H4        1.0  0.20978474424915558  0.10740982747571338  0.0658290821377463  1.0000
  H   H5        1.0  0.6541615825086636  0.12685871705942017  0.9452576375712171  1.0000
  H   H6        1.0  0.8352875685268871  0.5585574025889598  0.3743759137233553  1.0000
  H   H7        1.0  0.7098015653256908  0.5658594436487333  0.6073267629770954  1.0000
  H   H8        1.0  0.777924592568354  0.8928802864840789  0.9403191465360836  1.0000
  C   C1        1.0  0.18687985902845128  0.9306843827543148  0.03359832828645887  1.0000
  C   C2        1.0  0.30220652485597554  0.4706558540657823  0.5704420236666152  1.0000
  C   C3        1.0  0.370977097208616  0.46754603264866296  0.44097574061074607  1.0000
  C   C4        1.0  0.11745021640785322  0.0596560773821082  0.0376103454581553  1.0000
  C   C5        1.0  0.802219345651963  0.07044457548678909  0.9706428723086589  1.0000
  C   C6        1.0  0.6868659985169501  0.533621800156979  0.4306242344644176  1.0000
  C   C7        1.0  0.617487044109481  0.5376311606029917  0.5595688194265946  1.0000
  C   C8        1.0  0.8709991452748796  0.9409696400695606  0.9675566204640944  1.0000
  C   C9        1.0  0.06419399939535005  0.8706429492703976  0.9984498922583356  1.0000
  C   C10       1.0  0.14083706814788144  0.7327304929072439  0.994368961187803  1.0000
  C   C11       1.0  0.42523648748601056  0.5055457297940791  0.6304070687931331  1.0000
  C   C12       1.0  0.3560540164739976  0.5072901584005365  0.7688820394915015  1.0000
  C   C13       1.0  0.564140890654059  0.4984593214396895  0.37057016676786253  1.0000
  C   C14       1.0  0.6408267564179013  0.49440952668236104  0.23264349412890079  1.0000
  C   C15       1.0  0.9252498553471397  0.13049254046980963  0.005509804311415633  1.0000
  C   C16       1.0  0.8560296824233403  0.2689510383155493  0.007222755533945214  1.0000
  O   O1        1.0  0.3345434684061033  0.6813414771927596  0.9974373579067476  1.0000
  O   O2        1.0  0.1697891963622666  0.49233013793959646  0.8284977270712378  1.0000
  O   O3        1.0  0.5085323499174804  0.4889386552572572  0.17448535828992107  1.0000
  O   O4        1.0  0.9895695674243826  0.3197496055981901  0.02294309944657156  1.0000
  O   O5        1.0  0.669846036375425  0.32853620262100236  0.9922306057923723  1.0000
  O   O6        1.0  0.834538844811085  0.4974890352862146  0.1812846173198609  1.0000
  O   O7        1.0  0.489560463043361  0.5230054998804476  0.8196879537557252  1.0000
  O   O8        1.0  0.008564454828921018  0.6745216980397827  0.9889230597883769  1.0000
  O   O9        1.0  0.7556237092561418  0.5573805311406232  0.9451536182420457  1.0000
  O   O10       1.0  0.25564163907185383  0.4452324165385591  0.05728959570251393  1.0000
