data_image0
_chemical_formula_structural       CuH12C14N10
_chemical_formula_sum              "Cu1 H12 C14 N10"
_cell_length_a       6.157076388931048
_cell_length_b       7.44927442976192
_cell_length_c       9.297105589922666
_cell_angle_alpha    104.01834023418881
_cell_angle_beta     104.14398023933393
_cell_angle_gamma    94.88804467532955

_space_group_name_H-M_alt    "P 1"
_space_group_IT_number       1

loop_
  _space_group_symop_operation_xyz
  'x, y, z'

loop_
  _atom_site_type_symbol
  _atom_site_label
  _atom_site_symmetry_multiplicity
  _atom_site_fract_x
  _atom_site_fract_y
  _atom_site_fract_z
  _atom_site_occupancy
  Cu  Cu1       1.0  0.9999965279853029  1.836443054510018e-05  1.1896332806744341e-07  1.0000
  H   H1        1.0  0.4992187159075527  0.06819638153226039  0.1365465149375922  1.0000
  H   H2        1.0  0.5007725912420753  0.931792445771684  0.8634461595530709  1.0000
  H   H3        1.0  0.7429442191748449  0.22559827849423186  0.7050725642239116  1.0000
  H   H4        1.0  0.2570686881411958  0.7743807126950557  0.2949216050320373  1.0000
  H   H5        1.0  0.6313325758202026  0.43864076055299245  0.7291011288006004  1.0000
  H   H6        1.0  0.36868145962859705  0.5613353766532541  0.270894783731677  1.0000
  H   H7        1.0  0.849812358279735  0.40220750105892467  0.6318933897799752  1.0000
  H   H8        1.0  0.15019499949966078  0.5977686979673748  0.36809928994460256  1.0000
  H   H9        1.0  0.22670938311638617  0.29167651120094706  0.5862911624577904  1.0000
  H   H10       1.0  0.7733020581947443  0.7082950942873578  0.4137173685043933  1.0000
  H   H11       1.0  0.9545177005533249  0.15252929879986968  0.32331143403683177  1.0000
  H   H12       1.0  0.045486770547086074  0.8474762097147134  0.6766911672369672  1.0000
  C   C1        1.0  0.4400154635750582  0.12092621042148718  0.2377505913044331  1.0000
  C   C2        1.0  0.559981656233937  0.8790668090174023  0.7622439067817551  1.0000
  C   C3        1.0  0.5211596038050247  0.2555125587909899  0.4986398624289948  1.0000
  C   C4        1.0  0.47884991454588294  0.7444663346945929  0.5013580344321014  1.0000
  C   C5        1.0  0.6957490999456013  0.3367445378116827  0.6495297758638614  1.0000
  C   C6        1.0  0.3042652086520193  0.6632330250892622  0.3504654019307624  1.0000
  C   C7        1.0  0.2883271771223761  0.2413648056662865  0.48590132960038807  1.0000
  C   C8        1.0  0.711682321176369  0.7586140363737993  0.5140987048643098  1.0000
  C   C9        1.0  0.13782983475010724  0.16569227314283808  0.3410737103015222  1.0000
  C   C10       1.0  0.8621769226940971  0.8343076045738939  0.6589291711195315  1.0000
  C   C11       1.0  0.2550439125863094  0.3265356110753713  0.8802472402165692  1.0000
  C   C12       1.0  0.7449353023526869  0.6735048945717779  0.11976064804512283  1.0000
  C   C13       1.0  0.20995530212645264  0.6381060732031258  0.9137821609470363  1.0000
  C   C14       1.0  0.7900358668697934  0.3619357370922529  0.08623118439136587  1.0000
  N   N1        1.0  0.214633888927615  0.10634293145288608  0.2166462957483546  1.0000
  N   N2        1.0  0.7853647139237483  0.8936668902431107  0.7833519373066125  1.0000
  N   N3        1.0  0.5949778770904713  0.1933769254674544  0.3727913253431723  1.0000
  N   N4        1.0  0.4050213516075089  0.8066006350535059  0.627202457044035  1.0000
  N   N5        1.0  0.16438021929013047  0.7863055719891533  0.9653460553088493  1.0000
  N   N6        1.0  0.8356224878048124  0.2137350259607587  0.03466032215818874  1.0000
  N   N7        1.0  0.24657399950434208  0.17352541832386237  0.8953336045298314  1.0000
  N   N8        1.0  0.7534103544720239  0.826506728562478  0.10467123694746047  1.0000
  N   N9        1.0  0.274395747944716  0.4869986693293739  0.8488218685779145  1.0000
  N   N10       1.0  0.7255802493650239  0.5130248823178221  0.15118842372476857  1.0000
