data_image0
_chemical_formula_structural       Al2H18C30S6O12
_chemical_formula_sum              "Al2 H18 C30 S6 O12"
_cell_length_a       3.964829810016326
_cell_length_b       20.10587326575438
_cell_length_c       20.105854753591498
_cell_angle_alpha    119.9999494360328
_cell_angle_beta     90.00026869181944
_cell_angle_gamma    90.00002731548624

_space_group_name_H-M_alt    "P 1"
_space_group_IT_number       1

loop_
  _space_group_symop_operation_xyz
  'x, y, z'

loop_
  _atom_site_type_symbol
  _atom_site_label
  _atom_site_symmetry_multiplicity
  _atom_site_fract_x
  _atom_site_fract_y
  _atom_site_fract_z
  _atom_site_occupancy
  Al  Al1       1.0  0.0019535960757294996  0.500001011438542  0.49999902160801213  1.0000
  Al  Al2       1.0  0.0019042727277919999  0.16666757498512647  0.8333320771599873  1.0000
  H   H1        1.0  0.7140601140702216  0.5432024073758657  0.7318852326562891  1.0000
  H   H2        1.0  0.48706247876548053  0.5245106216747006  0.7970289458079023  1.0000
  H   H3        1.0  0.26967532063645894  0.5429448073480502  0.7302991317004697  1.0000
  H   H4        1.0  0.7140883977760595  0.12346304889434384  0.6014385268239835  1.0000
  H   H5        1.0  0.4870463677389694  0.1421472373371274  0.5362939852931987  1.0000
  H   H6        1.0  0.2697061649602829  0.12371221466446518  0.6030291621991211  1.0000
  H   H7        1.0  0.7140645434834096  0.6886836533666597  0.4567977288348359  1.0000
  H   H8        1.0  0.4870664573583099  0.772519439244256  0.4754888731811562  1.0000
  H   H9        1.0  0.269677248786941  0.6873555599509588  0.45705403746053014  1.0000
  H   H10       1.0  0.7140849809142438  0.9779790785878507  0.8765388072599906  1.0000
  H   H11       1.0  0.4870434017984521  0.894150370536167  0.8578540435893276  1.0000
  H   H12       1.0  0.269702727232584  0.9793193661404945  0.8762892835193627  1.0000
  H   H13       1.0  0.7140649029087455  0.2681166364250559  0.3113166414275739  1.0000
  H   H14       1.0  0.4870629196576317  0.20297109568709717  0.22748063342860558  1.0000
  H   H15       1.0  0.2696776239455332  0.26969954685368697  0.3126438643551595  1.0000
  H   H16       1.0  0.7140868027167996  0.39856321043251347  0.02202261235996869  1.0000
  H   H17       1.0  0.4870465983773968  0.4637066867987799  0.10585126434546768  1.0000
  H   H18       1.0  0.26970201085826057  0.3969723892559572  0.02068149510890999  1.0000
  C   C1        1.0  0.5025536906903055  0.4409717345263503  0.3820168554757474  1.0000
  C   C2        1.0  0.5025608485323191  0.44104689906900074  0.5590273686766594  1.0000
  C   C3        1.0  0.5025559824368031  0.6179836123420942  0.5589541815511794  1.0000
  C   C4        1.0  0.5025228458874764  0.22562407774919555  0.7743023712021684  1.0000
  C   C5        1.0  0.5025251898122463  0.0486825034582026  0.7743764404126027  1.0000
  C   C6        1.0  0.502524959440194  0.22569778589745249  0.9513183197342628  1.0000
  C   C7        1.0  0.4937472839894568  0.4303693891140556  0.680693422127412  1.0000
  C   C8        1.0  0.4937492745618782  0.2362884956006255  0.6526255181241397  1.0000
  C   C9        1.0  0.5026142793160204  0.3988119581021154  0.6015618026631984  1.0000
  C   C10       1.0  0.50258039078561  0.2678498353263592  0.7317621997142183  1.0000
  C   C11       1.0  0.5095202886662946  0.2960645574980559  0.6346043514313918  1.0000
  C   C12       1.0  0.5095160852225646  0.37059433393044144  0.6987156040679352  1.0000
  C   C13       1.0  0.49374628187550224  0.7503265123279876  0.5696300230586078  1.0000
  C   C14       1.0  0.4937462450005299  0.9163410259135887  0.7637112001030673  1.0000
  C   C15       1.0  0.5026070160587253  0.7027544671032191  0.6011899185340682  1.0000
  C   C16       1.0  0.5025911888137528  0.9639158724703382  0.7321495162665032  1.0000
  C   C17       1.0  0.5095090547789025  0.838544280085593  0.7039362790516323  1.0000
  C   C18       1.0  0.5095081543573626  0.8281238444403912  0.62940439030276  1.0000
  C   C19       1.0  0.49373950321770366  0.3193059140296415  0.24967337427737857  1.0000
  C   C20       1.0  0.4937451160496522  0.3473744373138388  0.08365994735331839  1.0000
  C   C21       1.0  0.5026005568663408  0.39843796414309923  0.29724653071695434  1.0000
  C   C22       1.0  0.5025821738480758  0.2682372663685939  0.03608397210977194  1.0000
  C   C23       1.0  0.509507143183704  0.365394067532705  0.16145614280272008  1.0000
  C   C24       1.0  0.5095046805133023  0.3012831576990962  0.17187635848691227  1.0000
  C   C25       1.0  0.4901211661144344  0.5146337318080542  0.7381846015824465  1.0000
  C   C26       1.0  0.49013170200802847  0.15202590879292904  0.5951395384605647  1.0000
  C   C27       1.0  0.4901234034617231  0.7235527288080804  0.4853665772358937  1.0000
  C   C28       1.0  0.49012795509820956  0.9431169500364761  0.8479744873283152  1.0000
  C   C29       1.0  0.49012044161656837  0.26181626851784057  0.276447699988779  1.0000
  C   C30       1.0  0.49012805365782697  0.40486023441130925  0.056883494199389914  1.0000
  S   S1        1.0  0.5258175921924886  0.2991383355591212  0.5505810538543727  1.0000
  S   S2        1.0  0.525792689320788  0.3675232859058256  0.7827381946322944  1.0000
  S   S3        1.0  0.525812277869008  0.7514470591510474  0.7008629547057409  1.0000
  S   S4        1.0  0.5257964941284712  0.9152181498793797  0.6324776795224523  1.0000
  S   S5        1.0  0.5258040495892545  0.4494179494032481  0.24855436557383837  1.0000
  S   S6        1.0  0.5257892483152347  0.21726141094032417  0.08478200257600581  1.0000
  O   O1        1.0  0.735955812167866  0.5840472991463275  0.5745608190721967  1.0000
  O   O2        1.0  0.7359538237788353  0.49051506615070667  0.4159528143766806  1.0000
  O   O3        1.0  0.7359599189459445  0.4254398031263663  0.5094825869422834  1.0000
  O   O4        1.0  0.2683435408740209  0.5842026117959664  0.5096368451446551  1.0000
  O   O5        1.0  0.2683517875952219  0.4903638018955194  0.5745638601632237  1.0000
  O   O6        1.0  0.2683447819182945  0.42543449367919817  0.4157973203473375  1.0000
  O   O7        1.0  0.7359191374219732  0.17614738129195479  0.9173759884533156  1.0000
  O   O8        1.0  0.7359206088551173  0.24123025870748904  0.8238515330430191  1.0000
  O   O9        1.0  0.7359196712297871  0.08262414213494663  0.7587689372534785  1.0000
  O   O10       1.0  0.268295098032631  0.2412329362868491  0.9175344890425876  1.0000
  O   O11       1.0  0.26830138342648274  0.08246510532696767  0.8236946770930446  1.0000
  O   O12       1.0  0.2682931366990077  0.17630448953735833  0.7587670877634736  1.0000
