data_image0
_chemical_formula_structural       Li4Mn4H16C24O32
_chemical_formula_sum              "Li4 Mn4 H16 C24 O32"
_cell_length_a       8.573907182174027
_cell_length_b       9.07373531690171
_cell_length_c       11.235965507002375
_cell_angle_alpha    90.00005898897896
_cell_angle_beta     90.0000130019321
_cell_angle_gamma    117.06139958491671

_space_group_name_H-M_alt    "P 1"
_space_group_IT_number       1

loop_
  _space_group_symop_operation_xyz
  'x, y, z'

loop_
  _atom_site_type_symbol
  _atom_site_label
  _atom_site_symmetry_multiplicity
  _atom_site_fract_x
  _atom_site_fract_y
  _atom_site_fract_z
  _atom_site_occupancy
  Li  Li1       1.0  0.07884999183443839  0.97020097812738  0.675435906803578  1.0000
  Li  Li2       1.0  0.9211478844654478  0.5297991098357712  0.17543515764052123  1.0000
  Li  Li3       1.0  0.9211463774464265  0.02979850258529379  0.32456588387421437  1.0000
  Li  Li4       1.0  0.07885200636561507  0.47020285207450024  0.8245630730419219  1.0000
  Mn  Mn1       1.0  0.4465973001574994  0.2063173791315051  0.6048675925143312  1.0000
  Mn  Mn2       1.0  0.5534037432040648  0.2936823553695973  0.10486610309302336  1.0000
  Mn  Mn3       1.0  0.5534031654695113  0.7936833482434764  0.39513152816682845  1.0000
  Mn  Mn4       1.0  0.44659496164683066  0.7063171314050006  0.8951330175874684  1.0000
  H   H1        1.0  0.7177479664628947  0.3596636552825315  0.7467762680018805  1.0000
  H   H2        1.0  0.2822514781333041  0.1403350916208481  0.24677638361838203  1.0000
  H   H3        1.0  0.2822507383874964  0.6403358314912779  0.25322196267943997  1.0000
  H   H4        1.0  0.7177466337277636  0.8596631575863114  0.7532236270607197  1.0000
  H   H5        1.0  0.6080975691049701  0.4518784089976079  0.7792621556600775  1.0000
  H   H6        1.0  0.39190369154967186  0.048124108527730386  0.2792622155302026  1.0000
  H   H7        1.0  0.39190232172558837  0.5481235529118675  0.22073518502318723  1.0000
  H   H8        1.0  0.6080985530503825  0.9518803315551311  0.7207404651493261  1.0000
  H   H9        1.0  0.7763813940589371  0.7299939609364613  0.6091104632424373  1.0000
  H   H10       1.0  0.223615256929257  0.770008477850119  0.10910889458491367  1.0000
  H   H11       1.0  0.22361616120209502  0.27000799491188593  0.3908904374373065  1.0000
  H   H12       1.0  0.7763817053399221  0.22999224042761307  0.8908893360967479  1.0000
  H   H13       1.0  0.8559572047011272  0.6921878612775315  0.7256371565703572  1.0000
  H   H14       1.0  0.1440413037069419  0.8078110816514794  0.22563738448575063  1.0000
  H   H15       1.0  0.1440403323644972  0.30781162246570654  0.2743628541091993  1.0000
  H   H16       1.0  0.8559591619200759  0.1921896457235022  0.774361736195409  1.0000
  C   C1        1.0  0.1139486501243923  0.2729371070808995  0.603529920911839  1.0000
  C   C2        1.0  0.8860518169140761  0.22706385957063446  0.10352754718518746  1.0000
  C   C3        1.0  0.8860535762802542  0.7270648608968457  0.3964718697675023  1.0000
  C   C4        1.0  0.11394805572310664  0.7729356302369083  0.8964724634945821  1.0000
  C   C5        1.0  0.04931748558661301  0.3907296341898174  0.5565575870485515  1.0000
  C   C6        1.0  0.9506870241735828  0.10927249538192287  0.056555128429494075  1.0000
  C   C7        1.0  0.950684740819561  0.609272333790308  0.4434468736283106  1.0000
  C   C8        1.0  0.04931342325802742  0.8907257598879496  0.9434431022514783  1.0000
  C   C9        1.0  0.8809228829592399  0.3287191929641793  0.507290842860584  1.0000
  C   C10       1.0  0.1190786601875828  0.17128407724268158  0.007286504267675298  1.0000
  C   C11       1.0  0.11907819385655921  0.6712852440889135  0.49271450781635895  1.0000
  C   C12       1.0  0.8809200446617922  0.8287154095295363  0.9927099464153026  1.0000
  C   C13       1.0  0.7530945557279766  0.1463796230270376  0.518553696012219  1.0000
  C   C14       1.0  0.24690581429648967  0.35362119212342674  0.018549530163085092  1.0000
  C   C15       1.0  0.2469059280974831  0.8536235764578135  0.4814516546641625  1.0000
  C   C16       1.0  0.7530922975630575  0.6463770570813452  0.9814478105184957  1.0000
  C   C17       1.0  0.16577263435527095  0.5607275988901462  0.5514063521194712  1.0000
  C   C18       1.0  0.8342280289085336  0.9392735115803176  0.05140592305048128  1.0000
  C   C19       1.0  0.834229592048871  0.4392743690868102  0.4485945485606988  1.0000
  C   C20       1.0  0.1657706759418573  0.0607259751934848  0.9485923076308392  1.0000
  C   C21       1.0  0.3323164822964131  0.6242333928686321  0.6225182171252042  1.0000
  C   C22       1.0  0.6676865795287625  0.8757653783431962  0.12251770575851846  1.0000
  C   C23       1.0  0.6676880614848953  0.37576610906909735  0.37748357355333423  1.0000
  C   C24       1.0  0.3323126819221758  0.12423040179020009  0.8774805249213312  1.0000
  O   O1        1.0  0.01681700367813481  0.1540942063489297  0.6700982414472489  1.0000
  O   O2        1.0  0.9831812037869839  0.3459068729202243  0.17009687281522895  1.0000
  O   O3        1.0  0.9831840549412477  0.8459077585974625  0.3299044392311642  1.0000
  O   O4        1.0  0.016822190401413088  0.6540950980865003  0.8299013578675268  1.0000
  O   O5        1.0  0.2651103191187191  0.300063624534225  0.5647980717711361  1.0000
  O   O6        1.0  0.7348889177198784  0.19993479792631058  0.06479386837720107  1.0000
  O   O7        1.0  0.7348907395006633  0.6999383404121601  0.4352046089072699  1.0000
  O   O8        1.0  0.2651080263559251  0.8000634482494887  0.9352070323009651  1.0000
  O   O9        1.0  0.7722078787551824  0.044359189481298196  0.4504429092572335  1.0000
  O   O10       1.0  0.22779183474587228  0.45564486473583793  0.9504418934962326  1.0000
  O   O11       1.0  0.2277920484671866  0.9556477166399941  0.5495579914247555  1.0000
  O   O12       1.0  0.7722063135044832  0.5443583286791591  0.04955722718572987  1.0000
  O   O13       1.0  0.6326944336774077  0.10652157676452839  0.5963280264070574  1.0000
  O   O14       1.0  0.36730600694212967  0.39347690493968906  0.09632213508951536  1.0000
  O   O15       1.0  0.3673071815450654  0.8934766815454225  0.40367910426574827  1.0000
  O   O16       1.0  0.6326920867220166  0.6065188721599809  0.9036743155918782  1.0000
  O   O17       1.0  0.30985186709047247  0.5828460754646941  0.7327401455944834  1.0000
  O   O18       1.0  0.6901507457744884  0.9171541267927026  0.23274056224902742  1.0000
  O   O19       1.0  0.6901497663233371  0.417154654944028  0.2672607550851253  1.0000
  O   O20       1.0  0.3098450305129957  0.08284411634697617  0.767255888433176  1.0000
  O   O21       1.0  0.4777840534303266  0.7156865835495481  0.5752575317821067  1.0000
  O   O22       1.0  0.5222206424367499  0.7843034555876045  0.07525780901395507  1.0000
  O   O23       1.0  0.5222210287556236  0.28430673964187747  0.42474247889560235  1.0000
  O   O24       1.0  0.4777814566005958  0.2156812076551518  0.9247386416632462  1.0000
  O   O25       1.0  0.6448047075169471  0.407809121860268  0.7102631750932813  1.0000
  O   O26       1.0  0.3551929528128994  0.09219079144981628  0.21026326445065271  1.0000
  O   O27       1.0  0.3551934225374964  0.5921915994488244  0.2897341655893157  1.0000
  O   O28       1.0  0.6448045842537412  0.9078086922950135  0.7897385262272463  1.0000
  O   O29       1.0  0.8466457878654267  0.7813245627757651  0.6806922340862297  1.0000
  O   O30       1.0  0.15335385521197506  0.7186767751598068  0.18069239057963665  1.0000
  O   O31       1.0  0.15335234219054428  0.21867615853570743  0.319307776593888  1.0000
  O   O32       1.0  0.8466472034053754  0.2813251897834093  0.8193067301020843  1.0000
