data_image0
_chemical_formula_structural       Co6H54C48O18
_chemical_formula_sum              "Co6 H54 C48 O18"
_cell_length_a       7.051535044821501
_cell_length_b       15.116575078667498
_cell_length_c       15.11231885637977
_cell_angle_alpha    117.6958493037608
_cell_angle_beta     98.96831065904814
_cell_angle_gamma    98.91295675106691

_space_group_name_H-M_alt    "P 1"
_space_group_IT_number       1

loop_
  _space_group_symop_operation_xyz
  'x, y, z'

loop_
  _atom_site_type_symbol
  _atom_site_label
  _atom_site_symmetry_multiplicity
  _atom_site_fract_x
  _atom_site_fract_y
  _atom_site_fract_z
  _atom_site_occupancy
  Co  Co1       1.0  0.2836251335914781  0.6741000781856458  0.2696416949993932  1.0000
  Co  Co2       1.0  0.014445445408206619  0.7307033301779529  0.40515302374885215  1.0000
  Co  Co3       1.0  0.6093609723976955  0.595050879346289  0.3258414649603623  1.0000
  Co  Co4       1.0  0.7163845210171831  0.32593327095592173  0.7303687181564628  1.0000
  Co  Co5       1.0  0.9855876189363428  0.26934239710779906  0.5948641503538283  1.0000
  Co  Co6       1.0  0.3906461830312935  0.40498867671218625  0.6741908466249741  1.0000
  H   H1        1.0  0.13546802706319727  0.9742124007705328  0.4601853789913406  1.0000
  H   H2        1.0  0.6751977914965153  0.5398654309125633  0.5138555118990525  1.0000
  H   H3        1.0  0.1612570341082318  0.4860897273953456  0.02577730560184222  1.0000
  H   H4        1.0  0.8645672295493937  0.025823272178428208  0.5398325690674072  1.0000
  H   H5        1.0  0.3248953696103881  0.4602112569259092  0.4861962190206555  1.0000
  H   H6        1.0  0.8387633504191779  0.513898758867036  0.9742308739403285  1.0000
  H   H7        1.0  0.32772863486206905  0.7092609469734228  0.09486256091140885  1.0000
  H   H8        1.0  0.23333243225918196  0.9054843883919901  0.6149218553032654  1.0000
  H   H9        1.0  0.6173574995371566  0.3854258754488527  0.2908140799295538  1.0000
  H   H10       1.0  0.6721279215026642  0.2905897932630097  0.9050387984262329  1.0000
  H   H11       1.0  0.7667046757183582  0.09451490986117511  0.3850700443290194  1.0000
  H   H12       1.0  0.3826776626584233  0.6146183042030701  0.7092025237533406  1.0000
  H   H13       1.0  0.6994185962669517  0.8919592082133646  0.24525937974738804  1.0000
  H   H14       1.0  0.4541660889265131  0.7547818501229389  0.6467187575411587  1.0000
  H   H15       1.0  0.806405093677249  0.35320412888232505  0.10816165968110875  1.0000
  H   H16       1.0  0.30037039935967874  0.10794879504017271  0.7546651248099252  1.0000
  H   H17       1.0  0.5458644360032281  0.24521589350599268  0.3532633482602847  1.0000
  H   H18       1.0  0.1936477296916834  0.6468005945462  0.8918451306437448  1.0000
  H   H19       1.0  0.687550245837471  0.7979270715841695  0.11651047921289859  1.0000
  H   H20       1.0  0.5713291979300051  0.8834457193171519  0.6818247052523034  1.0000
  H   H21       1.0  0.8882628223643108  0.3181267812779041  0.20180455191140823  1.0000
  H   H22       1.0  0.31227706816461875  0.20200026639796678  0.8834178037080845  1.0000
  H   H23       1.0  0.4287211879770823  0.11654583137566023  0.3181539489417773  1.0000
  H   H24       1.0  0.11178785218794458  0.6819050358339993  0.7982285815138539  1.0000
  H   H25       1.0  0.6884625481885747  0.7615459373552299  0.2116628940813854  1.0000
  H   H26       1.0  0.47683715295529067  0.788467990040772  0.5500183131720817  1.0000
  H   H27       1.0  0.9260425824572992  0.4498708671698213  0.23878931977591122  1.0000
  H   H28       1.0  0.31143328709321577  0.23838370519915494  0.7882567797762192  1.0000
  H   H29       1.0  0.523184227804215  0.21153439896334453  0.44996794901248194  1.0000
  H   H30       1.0  0.07398791731630175  0.5501524253909622  0.7612218704626272  1.0000
  H   H31       1.0  0.3970797931816178  0.9356215640125499  0.26294397592818797  1.0000
  H   H32       1.0  0.13432394354272495  0.7373214270751803  0.6726690466979265  1.0000
  H   H33       1.0  0.4609124748936394  0.32763783859801504  0.06465113863470853  1.0000
  H   H34       1.0  0.6026800811437738  0.0642276655098755  0.7369855322506638  1.0000
  H   H35       1.0  0.865781010180733  0.2627382599444985  0.3274014241788876  1.0000
  H   H36       1.0  0.5391022111946596  0.6723537355219946  0.9353494690395224  1.0000
  H   H37       1.0  0.03197929184585734  0.8520179767532596  0.2400905111827142  1.0000
  H   H38       1.0  0.7922126240870784  0.7602727065161762  0.6120006403881391  1.0000
  H   H39       1.0  0.1795184984772789  0.3887009524916679  0.14809709268394042  1.0000
  H   H40       1.0  0.9677598216112815  0.1478195801679405  0.7597546702287445  1.0000
  H   H41       1.0  0.20785488103725663  0.2397978383415165  0.3880986832275823  1.0000
  H   H42       1.0  0.82051456994742  0.6113130583123905  0.8519139341586808  1.0000
  H   H43       1.0  0.017017651036354716  0.7622513446285027  0.1091057254792177  1.0000
  H   H44       1.0  0.9081227067586395  0.8912308675652625  0.6534489033989884  1.0000
  H   H45       1.0  0.25338378951000345  0.3472408471897737  0.23761189585370346  1.0000
  H   H46       1.0  0.9827612269629425  0.23758543102159282  0.8907359673598235  1.0000
  H   H47       1.0  0.0920061885796386  0.1088280356477611  0.3466129812498622  1.0000
  H   H48       1.0  0.7466576972100823  0.6527986930194132  0.7624069706775884  1.0000
  H   H49       1.0  0.050070896130129744  0.8968102194233368  0.15191878589499908  1.0000
  H   H50       1.0  0.8985528260690501  0.8484276489547327  0.7451531850154893  1.0000
  H   H51       1.0  0.15214543352766438  0.2555725375056213  0.10293777665786757  1.0000
  H   H52       1.0  0.9497564707615498  0.10304282129263952  0.8479557588391557  1.0000
  H   H53       1.0  0.10163213744148437  0.1516629766901403  0.2549294280017165  1.0000
  H   H54       1.0  0.8478759915471129  0.7444523255905365  0.8970993049973472  1.0000
  C   C1        1.0  0.3700650353150293  0.8981908051292252  0.4384965135813061  1.0000
  C   C2        1.0  0.9318496871433981  0.5616627426856838  0.4598678144893142  1.0000
  C   C3        1.0  0.47199738091209303  0.5402146947122689  0.10188465425687815  1.0000
  C   C4        1.0  0.6299776078665361  0.10184253862323803  0.5615122747030696  1.0000
  C   C5        1.0  0.06822662813067377  0.4383946022477546  0.5401737219618212  1.0000
  C   C6        1.0  0.5280148141641305  0.4597660527426514  0.8981173583032741  1.0000
  C   C7        1.0  0.6780905692968274  0.8273422718590595  0.43083310036539757  1.0000
  C   C8        1.0  0.2475945455921291  0.5693884077251213  0.3969460760703925  1.0000
  C   C9        1.0  0.8507802676180559  0.6032153310139707  0.17279055656756984  1.0000
  C   C10       1.0  0.32194076928172416  0.17271120980958438  0.5692067468679625  1.0000
  C   C11       1.0  0.752453241999163  0.4306635248939585  0.603093559798964  1.0000
  C   C12       1.0  0.14923356999484125  0.3967716046593993  0.8272124656028056  1.0000
  C   C13       1.0  0.5814116712853092  0.9135841533437555  0.46184901878676504  1.0000
  C   C14       1.0  0.11989574884601237  0.538303729488753  0.45203885032871943  1.0000
  C   C15       1.0  0.6678385359981222  0.5480420266382212  0.08646050886775221  1.0000
  C   C16       1.0  0.4186177300999958  0.08645694200426852  0.5381776513948751  1.0000
  C   C17       1.0  0.8801847503034919  0.4617590361033379  0.5480107985276774  1.0000
  C   C18       1.0  0.33219218637604087  0.4519673388856233  0.9135448821147918  1.0000
  C   C19       1.0  0.2960572352738281  0.9857918312858729  0.4782104910823932  1.0000
  C   C20       1.0  0.8177544869806965  0.5218028863740615  0.507415713025047  1.0000
  C   C21       1.0  0.31037941735932856  0.49255632648495856  0.014262322976030372  1.0000
  C   C22       1.0  0.7039863389735005  0.014246160136565303  0.521806480326525  1.0000
  C   C23       1.0  0.1823323637950977  0.4782668426470593  0.4926376262681771  1.0000
  C   C24       1.0  0.6896348276080033  0.5074313852272355  0.9857437359501234  1.0000
  C   C25       1.0  0.4107401738427042  0.787113193733248  0.15769724379297395  1.0000
  C   C26       1.0  0.2533742284657945  0.8425560229101022  0.6297255540963318  1.0000
  C   C27       1.0  0.6226846553506392  0.3705259453708722  0.21303820569207238  1.0000
  C   C28       1.0  0.5890603885619824  0.2127429839453683  0.8422231721199438  1.0000
  C   C29       1.0  0.7466780129080774  0.1574533396254481  0.3702793819429502  1.0000
  C   C30       1.0  0.37736896057671737  0.6294888449086855  0.7869825866865697  1.0000
  C   C31       1.0  0.6322699252829621  0.8108584615249299  0.18456810286583192  1.0000
  C   C32       1.0  0.44790252381680756  0.8155088044096959  0.6264941728771732  1.0000
  C   C33       1.0  0.8204073606618962  0.3735008922608145  0.18921564709870609  1.0000
  C   C34       1.0  0.36753190328264645  0.18904953117345968  0.8153460609858671  1.0000
  C   C35       1.0  0.5521420870866008  0.18449126023930518  0.3734906765937396  1.0000
  C   C36       1.0  0.17963129113730483  0.6265185350827521  0.8107989578308333  1.0000
  C   C37       1.0  0.3107281439681912  0.857887592532066  0.20135256584303118  1.0000
  C   C38       1.0  0.10967759507098407  0.7989793883733756  0.6567555817775032  1.0000
  C   C39       1.0  0.4520317551830785  0.3436665230485332  0.14228280316776684  1.0000
  C   C40       1.0  0.6890235488630693  0.14195698166959406  0.7985589755896427  1.0000
  C   C41       1.0  0.8904271377653147  0.20106559153532547  0.343301416628492  1.0000
  C   C42       1.0  0.5480060378169326  0.656348264695481  0.8577328915553365  1.0000
  C   C43       1.0  0.0911725616327315  0.8407332929316738  0.17351657338972604  1.0000
  C   C44       1.0  0.9180177906287454  0.826850479429659  0.6674255508308775  1.0000
  C   C45       1.0  0.2495283709858  0.3332108420375802  0.1592277106201152  1.0000
  C   C46       1.0  0.9085984136149178  0.15909885852644123  0.8263429196729604  1.0000
  C   C47       1.0  0.08210998954323397  0.1732146248517665  0.3326517108752327  1.0000
  C   C48       1.0  0.7505097880734511  0.6668047171335874  0.8407857220484162  1.0000
  O   O1        1.0  0.23753763882160672  0.8054999133280135  0.37928703796580276  1.0000
  O   O2        1.0  0.8585419984226375  0.6208982040796017  0.4264833741764775  1.0000
  O   O3        1.0  0.4321306829868873  0.573620096533439  0.1945263476363195  1.0000
  O   O4        1.0  0.7624924275775199  0.19454271738034373  0.6207264975398843  1.0000
  O   O5        1.0  0.1415059261731457  0.37915682643764376  0.5735610207110399  1.0000
  O   O6        1.0  0.5678740336879571  0.4263946867998669  0.8054797119862798  1.0000
  O   O7        1.0  0.5610192412340211  0.735234289381424  0.3805568676840494  1.0000
  O   O8        1.0  0.18075865833804972  0.6197467882482215  0.3552506838631189  1.0000
  O   O9        1.0  0.825734905269691  0.6449322363857278  0.2649270287075893  1.0000
  O   O10       1.0  0.4390192746424333  0.2648137571221341  0.6194597878386787  1.0000
  O   O11       1.0  0.8193018649800623  0.3803105576084321  0.6447897290402267  1.0000
  O   O12       1.0  0.174294072411584  0.35510264644864264  0.735070915250219  1.0000
  O   O13       1.0  0.8661310837685504  0.8441790454293852  0.4564993850132666  1.0000
  O   O14       1.0  0.4099461140227874  0.5437091363704953  0.3880665993055957  1.0000
  O   O15       1.0  0.021983748225515874  0.6120264810199957  0.15597521391391211  1.0000
  O   O16       1.0  0.13389008085897558  0.1558883748164206  0.5435581311657032  1.0000
  O   O17       1.0  0.5901105858888441  0.45633739443418625  0.6119883633688374  1.0000
  O   O18       1.0  0.9780200672731992  0.38795194104393727  0.8440198270805581  1.0000
