data_image0
_chemical_formula_structural       Cd9H102C120N12O48
_chemical_formula_sum              "Cd9 H102 C120 N12 O48"
_cell_length_a       14.819671816530446
_cell_length_b       15.697194942229691
_cell_length_c       16.088616744667522
_cell_angle_alpha    107.39344854909666
_cell_angle_beta     100.74780920874434
_cell_angle_gamma    100.75786375713241

_space_group_name_H-M_alt    "P 1"
_space_group_IT_number       1

loop_
  _space_group_symop_operation_xyz
  'x, y, z'

loop_
  _atom_site_type_symbol
  _atom_site_label
  _atom_site_symmetry_multiplicity
  _atom_site_fract_x
  _atom_site_fract_y
  _atom_site_fract_z
  _atom_site_occupancy
  Cd  Cd1       1.0  0.7514926386276883  0.9660782188378645  0.5400083624123581  1.0000
  Cd  Cd2       1.0  0.24850757608985666  0.033924935361362395  0.4599930976359302  1.0000
  Cd  Cd3       1.0  0.5782414688419308  0.0417178404924385  0.12120324532524755  1.0000
  Cd  Cd4       1.0  0.42175613914545096  0.9582832566565429  0.8787965009239399  1.0000
  Cd  Cd5       1.0  0.647265408844298  0.004618675915850202  0.3376523546851189  1.0000
  Cd  Cd6       1.0  0.35273770878470867  0.9953774825940797  0.6623465966497689  1.0000
  Cd  Cd7       1.0  0.9088109598785793  0.051052296576259  0.7906819970308446  1.0000
  Cd  Cd8       1.0  0.09119261533223277  0.9489459920822582  0.20932072910056113  1.0000
  Cd  Cd9       1.0  3.201305133961411e-06  0.999999275207763  1.0945471017788143e-06  1.0000
  H   H1        1.0  0.2357267577063098  0.5663156948559589  0.2821334836083195  1.0000
  H   H2        1.0  0.7642785982957961  0.4336831633302508  0.7178641658117683  1.0000
  H   H3        1.0  0.4731620945529614  0.7113817791971753  0.43106534652697787  1.0000
  H   H4        1.0  0.526847903665619  0.28861630164000457  0.5689318167344906  1.0000
  H   H5        1.0  0.19837560157399292  0.6942921702071205  0.26770434902226015  1.0000
  H   H6        1.0  0.8016281668929326  0.30570680937808686  0.7322986018374491  1.0000
  H   H7        1.0  0.41545891487469094  0.950405471034493  0.37565774234043653  1.0000
  H   H8        1.0  0.5845471289669248  0.049592124847031  0.6243471787520889  1.0000
  H   H9        1.0  0.3239792802129244  0.4046531638844612  0.4390722380541944  1.0000
  H   H10       1.0  0.6760191781506322  0.5953494093133712  0.5609336785830903  1.0000
  H   H11       1.0  0.24501091966203603  0.23527436603212237  0.36040600749323903  1.0000
  H   H12       1.0  0.7549858715722807  0.764730398938944  0.6396051248156595  1.0000
  H   H13       1.0  0.16667308378918474  0.28282272735616226  0.11073649802940365  1.0000
  H   H14       1.0  0.8333139154495726  0.7171738232934713  0.8892691591583598  1.0000
  H   H15       1.0  0.24368673281180261  0.449755702356981  0.18701896546104274  1.0000
  H   H16       1.0  0.7563051666869782  0.5502435461186508  0.8129878095013436  1.0000
  H   H17       1.0  0.09200514685341696  0.4161926212069602  0.42024305928108413  1.0000
  H   H18       1.0  0.9079838957048665  0.5838064087128104  0.5797487537149023  1.0000
  H   H19       1.0  0.846326616541269  0.28178134014474676  0.28565848927269133  1.0000
  H   H20       1.0  0.15366383465783437  0.718212335022507  0.7143440073739525  1.0000
  H   H21       1.0  0.12164105524902172  0.28722532836653863  0.437087248286808  1.0000
  H   H22       1.0  0.8783518309278265  0.7127786165057229  0.5629128983529909  1.0000
  H   H23       1.0  0.913575060545142  0.028170144322160688  0.2931690963094126  1.0000
  H   H24       1.0  0.08642400540255583  0.971825262931155  0.706822590090283  1.0000
  H   H25       1.0  0.9216476173161467  0.5973284483921758  0.3471694588993016  1.0000
  H   H26       1.0  0.07834134340573233  0.40267343461812993  0.652827454035524  1.0000
  H   H27       1.0  0.016279142220220384  0.7634656168675062  0.3954143485640029  1.0000
  H   H28       1.0  0.9837150064184856  0.2365327298986841  0.6045826992048403  1.0000
  H   H29       1.0  0.25837634966373463  0.6950670786795213  0.5232022695319286  1.0000
  H   H30       1.0  0.7416155935636655  0.30492573826724373  0.4767922204575115  1.0000
  H   H31       1.0  0.16923431861757623  0.5336099669198049  0.47682313656765973  1.0000
  H   H32       1.0  0.8307568390210847  0.46638415822645374  0.5231665622386146  1.0000
  H   H33       1.0  0.43114669220457813  0.27558529351139777  0.3711582306443119  1.0000
  H   H34       1.0  0.568851479638326  0.7244150692219404  0.6288395703402258  1.0000
  H   H35       1.0  0.4548836532089169  0.322482905744053  0.2869065767428792  1.0000
  H   H36       1.0  0.5451236490547589  0.6775103452682459  0.7130881136368786  1.0000
  H   H37       1.0  0.5296415784604136  0.3716647331408254  0.40006298956701863  1.0000
  H   H38       1.0  0.470360334105834  0.628334181858335  0.5999345808222997  1.0000
  H   H39       1.0  0.6895311549992584  0.24447269434367772  0.3218348146814519  1.0000
  H   H40       1.0  0.31047028183002834  0.7555220660274458  0.6781615471686349  1.0000
  H   H41       1.0  0.669568106900982  0.35653623557413977  0.36691930221656566  1.0000
  H   H42       1.0  0.3304365756233594  0.6434593424899404  0.6330872853496814  1.0000
  H   H43       1.0  0.6335152778105879  0.2949755001615841  0.24782660339800333  1.0000
  H   H44       1.0  0.36648194142222923  0.7050249978503017  0.752177879101417  1.0000
  H   H45       1.0  0.40578370287987303  0.0363198565091238  0.2731652667226783  1.0000
  H   H46       1.0  0.5942113046594955  0.9636771476364743  0.7268347118623736  1.0000
  H   H47       1.0  0.3654511655379551  0.131074914271565  0.25532930295585027  1.0000
  H   H48       1.0  0.6345511579778248  0.8689253711072877  0.7446680967677606  1.0000
  H   H49       1.0  0.40704658490273726  0.1325456728021521  0.3665023477644808  1.0000
  H   H50       1.0  0.5929474904240523  0.8674527083851373  0.6334965603713199  1.0000
  H   H51       1.0  0.6383736480388791  0.77811816107279  0.27924823165565016  1.0000
  H   H52       1.0  0.36162652967707487  0.2218890765064145  0.7207499562450292  1.0000
  H   H53       1.0  0.6707193778824774  0.6709040197283328  0.23975819574684448  1.0000
  H   H54       1.0  0.32927394996335124  0.3290992480967745  0.7602431062398978  1.0000
  H   H55       1.0  0.6697323785030777  0.7445472910227336  0.17433937806298871  1.0000
  H   H56       1.0  0.3302674678574107  0.25545650580254176  0.8256590662713988  1.0000
  H   H57       1.0  0.9199349378366365  0.7848814891972467  0.27154796256818503  1.0000
  H   H58       1.0  0.08006320552915722  0.21512013824663254  0.7284433266968617  1.0000
  H   H59       1.0  0.8245191508624857  0.69015108537387  0.19795021389992237  1.0000
  H   H60       1.0  0.1754758929872082  0.30984996773060647  0.8020446321705704  1.0000
  H   H61       1.0  0.8647201653273557  0.6987201027024311  0.3120795693746031  1.0000
  H   H62       1.0  0.1352807439567343  0.30127944104322063  0.6879136052255601  1.0000
  H   H63       1.0  0.9160661798752373  0.979625702928125  0.4591907610170551  1.0000
  H   H64       1.0  0.0839364994333138  0.020378011730954895  0.5408057621505333  1.0000
  H   H65       1.0  0.95370740325356  0.927766007462118  0.36211831095391017  1.0000
  H   H66       1.0  0.04629414095562372  0.07223355016308369  0.6378762437215071  1.0000
  H   H67       1.0  0.9392192522832802  0.8686160736963371  0.43849056033112516  1.0000
  H   H68       1.0  0.06078360212622872  0.131386307409997  0.5615087538220533  1.0000
  H   H69       1.0  0.4130691999343839  0.4332592719600825  0.09237300274432411  1.0000
  H   H70       1.0  0.5869386343292078  0.5667437365980135  0.9076275149514927  1.0000
  H   H71       1.0  0.18076419903222526  0.2863266659700088  0.9357014656043176  1.0000
  H   H72       1.0  0.8192392840202347  0.7136777649690274  0.06429728248915006  1.0000
  H   H73       1.0  0.456185997449417  0.30095850505364297  0.09510998889248873  1.0000
  H   H74       1.0  0.5438122591335458  0.6990461958869216  0.9048989425883746  1.0000
  H   H75       1.0  0.25026273716443376  0.038847804573094905  0.958503591842195  1.0000
  H   H76       1.0  0.7497407725676767  0.9611558321759403  0.04148935042210409  1.0000
  H   H77       1.0  0.3501001609561528  0.5769550752781284  0.9123466107259758  1.0000
  H   H78       1.0  0.649909820213452  0.4230486428979248  0.0876570316792709  1.0000
  H   H79       1.0  0.4302792546251196  0.7474032303134449  0.9800245054862129  1.0000
  H   H80       1.0  0.569726212796688  0.25259917189000447  0.01997846860102466  1.0000
  H   H81       1.0  0.4692727366058094  0.7295609591783572  0.24471415707908045  1.0000
  H   H82       1.0  0.5307345423267478  0.2704399651259522  0.7552850663094828  1.0000
  H   H83       1.0  0.39376932191286335  0.5610171105814175  0.1791129242120988  1.0000
  H   H84       1.0  0.6062361966259006  0.4389844859583291  0.8208836239236559  1.0000
  H   H85       1.0  0.7156963720300027  0.21852541750944712  0.025282017720073192  1.0000
  H   H86       1.0  0.2843042502885424  0.7814722279674626  0.9747205444828707  1.0000
  H   H87       1.0  0.8022440729563628  0.32613709882377856  0.05748386088767181  1.0000
  H   H88       1.0  0.1977533480570557  0.6738612714453679  0.9425176067681703  1.0000
  H   H89       1.0  0.788603074855516  0.2683464859009632  0.13700028494565694  1.0000
  H   H90       1.0  0.2113993993239092  0.7316524773988391  0.863000525885866  1.0000
  H   H91       1.0  0.0042729762542919126  0.221268634622021  0.06750202355926399  1.0000
  H   H92       1.0  0.9957285531482615  0.778735777625755  0.9324938245530843  1.0000
  H   H93       1.0  0.9578103741830263  0.2414778250751013  0.16411363804573406  1.0000
  H   H94       1.0  0.04219294522657438  0.758516205692082  0.8358822984455755  1.0000
  H   H95       1.0  0.9709582059615799  0.3270810915182307  0.11192623081628024  1.0000
  H   H96       1.0  0.029038667109141207  0.672920820362293  0.8880798015537719  1.0000
  H   H97       1.0  0.7377327935776706  0.0344514681802011  0.8522948657500891  1.0000
  H   H98       1.0  0.2622707139120948  0.9655529512851327  0.14770326222106425  1.0000
  H   H99       1.0  0.7114131344126378  0.14414324527472644  0.8852621078210487  1.0000
  H   H100      1.0  0.2885924244762564  0.8558611469870596  0.11473643964195177  1.0000
  H   H101      1.0  0.6905004824986422  0.06866077495153888  0.9468775621296713  1.0000
  H   H102      1.0  0.3095003386669006  0.931343657837786  0.053118766274366125  1.0000
  C   C1        1.0  0.454168814805179  0.8361067181358449  0.40737359238272564  1.0000
  C   C2        1.0  0.5458385437214446  0.16389213579422088  0.5926257167738527  1.0000
  C   C3        1.0  0.42446489728617826  0.7431775809540967  0.3993135140360308  1.0000
  C   C4        1.0  0.575542902909426  0.25682059592882917  0.6006869504674909  1.0000
  C   C5        1.0  0.33254534856067164  0.6914272389470925  0.34764890681445587  1.0000
  C   C6        1.0  0.6674621139973171  0.30856953313503505  0.6523498679878086  1.0000
  C   C7        1.0  0.2703821439014149  0.7334630218545896  0.30752551762640923  1.0000
  C   C8        1.0  0.7296230899141563  0.2665358937001229  0.6924752324052647  1.0000
  C   C9        1.0  0.2991662467892554  0.8269106032953958  0.3188605415762282  1.0000
  C   C10       1.0  0.7008409895508336  0.17308830800317312  0.6811418681919433  1.0000
  C   C11       1.0  0.3916721567659992  0.8780836017229062  0.36796580049372096  1.0000
  C   C12       1.0  0.6083337119746659  0.12191532771136336  0.6320363296132072  1.0000
  C   C13       1.0  0.28623670110610533  0.4388249526189296  0.3195921651040051  1.0000
  C   C14       1.0  0.7137603248705985  0.5611748544662588  0.6804120926671046  1.0000
  C   C15       1.0  0.28754334853238106  0.37737319637744793  0.36740148969811054  1.0000
  C   C16       1.0  0.7124515527332703  0.6226266723323874  0.6326042089480949  1.0000
  C   C17       1.0  0.24465632971605805  0.2833063522432582  0.3234944960929552  1.0000
  C   C18       1.0  0.7553379343821549  0.716694285303319  0.6765150081848573  1.0000
  C   C19       1.0  0.1999281486784383  0.24929432830067805  0.23088453456886524  1.0000
  C   C20       1.0  0.8000639747959042  0.7507035636748113  0.7691237911344685  1.0000
  C   C21       1.0  0.19958639291055397  0.3103378037897002  0.18288506930734627  1.0000
  C   C22       1.0  0.8004043078076107  0.6896621652220245  0.8171222708444288  1.0000
  C   C23       1.0  0.2423741599220577  0.404150026313566  0.2266237797580786  1.0000
  C   C24       1.0  0.7576222288872073  0.5958505496083717  0.7733842836446313  1.0000
  C   C25       1.0  0.3354744772069794  0.5391121264893214  0.36822481667636703  1.0000
  C   C26       1.0  0.66453065885937  0.46088683496019206  0.6317784138445787  1.0000
  C   C27       1.0  0.5547541873508025  0.8896750137334664  0.45599286660871025  1.0000
  C   C28       1.0  0.4452542477699026  0.11032317702900939  0.5440089779700656  1.0000
  C   C29       1.0  0.22992159233152887  0.8716593584039813  0.2799097063594758  1.0000
  C   C30       1.0  0.7700830043166036  0.12834032598747308  0.7200948493037982  1.0000
  C   C31       1.0  0.15116332692741002  0.1480810124994321  0.1825116764759613  1.0000
  C   C32       1.0  0.8488342606624714  0.8519188428864055  0.81749582173736  1.0000
  C   C33       1.0  0.869758560345865  0.14941145271818357  0.2851299114284984  1.0000
  C   C34       1.0  0.130238258704253  0.8505840735282816  0.7148663164578862  1.0000
  C   C35       1.0  0.8959316567919586  0.24579261077222006  0.3088264168111792  1.0000
  C   C36       1.0  0.10406035750501999  0.754200954469738  0.6911713985181577  1.0000
  C   C37       1.0  0.9871787493855068  0.2961086489309395  0.3635242365343885  1.0000
  C   C38       1.0  0.012813516672878182  0.703890427439191  0.6364732365932255  1.0000
  C   C39       1.0  0.05081473503515351  0.2493652417697874  0.39366967660217256  1.0000
  C   C40       1.0  0.9491829218268464  0.7506358324317899  0.606328829402379  1.0000
  C   C41       1.0  0.025703751910711507  0.1531886675830307  0.3672040009428272  1.0000
  C   C42       1.0  0.9742973728244522  0.846812338331908  0.6327939639701794  1.0000
  C   C43       1.0  0.9342410010257893  0.1030440528485386  0.3137916209029753  1.0000
  C   C44       1.0  0.06575799160999211  0.8969513888258761  0.6862019258636706  1.0000
  C   C45       1.0  0.03748380872819726  0.5536644547034869  0.4070151078035593  1.0000
  C   C46       1.0  0.9625065769922047  0.4463345685542848  0.5929776049759852  1.0000
  C   C47       1.0  0.9958773376673022  0.6202482984532692  0.3855835131989662  1.0000
  C   C48       1.0  0.004115630345957315  0.3797527933284499  0.614411533501986  1.0000
  C   C49       1.0  0.047916320823453956  0.7117672322791152  0.4125202295313528  1.0000
  C   C50       1.0  0.9520803634758439  0.28823242324212117  0.587475206696695  1.0000
  C   C51       1.0  0.14261671368979026  0.7393525446364889  0.46297692937400825  1.0000
  C   C52       1.0  0.8573790776408572  0.2606436218301695  0.537015522845536  1.0000
  C   C53       1.0  0.18452932337822148  0.6732866429939646  0.48464330917438037  1.0000
  C   C54       1.0  0.8154605132932886  0.32670826005687564  0.5153500554328758  1.0000
  C   C55       1.0  0.13305171267408875  0.5816008906617256  0.4567748886151789  1.0000
  C   C56       1.0  0.8669392739034266  0.41839331480042563  0.5432191510473245  1.0000
  C   C57       1.0  0.9755310785021294  0.45662582044606376  0.3743793094185149  1.0000
  C   C58       1.0  0.02446257959298492  0.5433732263146708  0.625617823248021  1.0000
  C   C59       1.0  0.7722244658685471  0.09513376660669338  0.2270271843789615  1.0000
  C   C60       1.0  0.22777164494455354  0.9048617801813138  0.7729695237991194  1.0000
  C   C61       1.0  0.09834692534789008  0.10538306601121412  0.3945165401781523  1.0000
  C   C62       1.0  0.9016526385317435  0.8946172671127286  0.6054809203453074  1.0000
  C   C63       1.0  0.1991519002367995  0.8388495665699907  0.4963994098690846  1.0000
  C   C64       1.0  0.8008460442820039  0.16114527356147323  0.5035981131948617  1.0000
  C   C65       1.0  0.4875035987264766  0.3071671217745688  0.34635647441954376  1.0000
  C   C66       1.0  0.5124992216150447  0.6928304276565953  0.6536427865413401  1.0000
  C   C67       1.0  0.6411302248045488  0.28795436783332207  0.3146062525177484  1.0000
  C   C68       1.0  0.3588729946134849  0.7120404915449612  0.6853973501696798  1.0000
  C   C69       1.0  0.5176872794016704  0.15398622364227776  0.2987597888478533  1.0000
  C   C70       1.0  0.4823141063106534  0.8460093423925485  0.7012429989537096  1.0000
  C   C71       1.0  0.4183866934075909  0.1114243836024116  0.2984550391397676  1.0000
  C   C72       1.0  0.5816116290989585  0.8885746570518833  0.7015461729526818  1.0000
  C   C73       1.0  0.684319543982717  0.7433197865605337  0.2434448559575982  1.0000
  C   C74       1.0  0.31567871708492856  0.25668334894743333  0.7565537041095638  1.0000
  C   C75       1.0  0.8529050245721522  0.7385827024711275  0.26718654946512993  1.0000
  C   C76       1.0  0.14709397769430416  0.2614175823521663  0.7328076706161253  1.0000
  C   C77       1.0  0.8073203025201112  0.871233468026844  0.357848612582046  1.0000
  C   C78       1.0  0.19268118428997386  0.1287689312151912  0.642150421909889  1.0000
  C   C79       1.0  0.9098361331708132  0.9139413289731877  0.4069235547394213  1.0000
  C   C80       1.0  0.09016487162016061  0.0860589515939623  0.5930723250783173  1.0000
  C   C81       1.0  0.2061049560681241  0.1577192457552741  0.9428789820180014  1.0000
  C   C82       1.0  0.7938983030087742  0.8422865416838972  0.05711821533451198  1.0000
  C   C83       1.0  0.23176362438908887  0.2534013050017164  0.9622602378661397  1.0000
  C   C84       1.0  0.7682371860096212  0.7466067291733367  0.037744515816640976  1.0000
  C   C85       1.0  0.32215857535716463  0.305632420195181  0.01739029625854733  1.0000
  C   C86       1.0  0.6778429580851864  0.6943707388157493  0.9826126836956063  1.0000
  C   C87       1.0  0.38580518614146103  0.2614743099540533  0.051722145556865926  1.0000
  C   C88       1.0  0.6141980462557799  0.7385322716751117  0.948280857624823  1.0000
  C   C89       1.0  0.36139589471530087  0.16550167475283925  0.029036091831912383  1.0000
  C   C90       1.0  0.6386054306643061  0.8345056479539679  0.9709679568308615  1.0000
  C   C91       1.0  0.2707219797351925  0.11343196488521559  0.9753774029947238  1.0000
  C   C92       1.0  0.7292821075229128  0.8865745273602028  0.024621399161354383  1.0000
  C   C93       1.0  0.36943424980412953  0.5577946620242643  0.04061452415560037  1.0000
  C   C94       1.0  0.6305718706979422  0.4422097785381779  0.9593872637496117  1.0000
  C   C95       1.0  0.3783409404687461  0.6111365640972153  0.985052189443678  1.0000
  C   C96       1.0  0.621670481612199  0.38886710152203807  0.014949872255854759  1.0000
  C   C97       1.0  0.42181835426141123  0.7054461028319636  0.022551873484729857  1.0000
  C   C98       1.0  0.5781849662543834  0.2945555897535285  0.977447975893071  1.0000
  C   C99       1.0  0.45539375927680226  0.7481215795222764  0.11636612252907942  1.0000
  C   C100      1.0  0.544608279515785  0.25187602487153526  0.8836354790904578  1.0000
  C   C101      1.0  0.4448669914104642  0.6952753510394131  0.1719735304840951  1.0000
  C   C102      1.0  0.5551393434364942  0.3047228898740073  0.8280291348474618  1.0000
  C   C103      1.0  0.4029134395437454  0.6006785182553783  0.13452786741748204  1.0000
  C   C104      1.0  0.5970898809720495  0.3993231743301209  0.8654719819603185  1.0000
  C   C105      1.0  0.3204714047728885  0.45719632668617294  0.9968412668102927  1.0000
  C   C106      1.0  0.6795325017933893  0.5428054027262732  0.003161202887398028  1.0000
  C   C107      1.0  0.10727007817030908  0.10327544016635667  0.8887018033493773  1.0000
  C   C108      1.0  0.8927354499991369  0.896730999522269  0.11129541810098695  1.0000
  C   C109      1.0  0.4346745710415334  0.12010326923798689  0.05968881321319942  1.0000
  C   C110      1.0  0.5653271715697556  0.879903387895382  0.9403170109188395  1.0000
  C   C111      1.0  0.504260038249889  0.8498801167048099  0.15794579818115292  1.0000
  C   C112      1.0  0.49574394791045523  0.15011954233339952  0.8420567572845528  1.0000
  C   C113      1.0  0.7869102963965489  0.2584850563614864  0.06628125462704304  1.0000
  C   C114      1.0  0.21309067208409974  0.741511175246778  0.9337197577052618  1.0000
  C   C115      1.0  0.8387935085002879  0.1339199974158092  0.9683534833105866  1.0000
  C   C116      1.0  0.1612082511599766  0.8660810223786795  0.03164586167767416  1.0000
  C   C117      1.0  0.9537447734741634  0.2523972092162978  0.09927149184055382  1.0000
  C   C118      1.0  0.04625614948039931  0.7476059244413877  0.9007294879160311  1.0000
  C   C119      1.0  0.7387596955832549  0.09349115320018338  0.9099851479498113  1.0000
  C   C120      1.0  0.26124254833845845  0.906511202552906  0.09001216600579202  1.0000
  N   N1        1.0  0.299227521453993  0.5962228650630121  0.32875042221461814  1.0000
  N   N2        1.0  0.7007787264105615  0.4037718203594735  0.6712462983274675  1.0000
  N   N3        1.0  0.021739827638903416  0.39206006558052303  0.3882545088542669  1.0000
  N   N4        1.0  0.9782457533283664  0.6079369966727484  0.6117397913682296  1.0000
  N   N5        1.0  0.5486674712058531  0.24584593213167946  0.3235671061707492  1.0000
  N   N6        1.0  0.4513347182503723  0.7541503501830887  0.6764379065566998  1.0000
  N   N7        1.0  0.7833839791026521  0.7900358869912336  0.29062074039765656  1.0000
  N   N8        1.0  0.21661433083960452  0.2099672255693434  0.7093765794248625  1.0000
  N   N9        1.0  0.35226360162136683  0.40227289194694993  0.04217186527047552  1.0000
  N   N10       1.0  0.6477399343455091  0.5977302628078361  0.9578327744201758  1.0000
  N   N11       1.0  0.8578719071954027  0.2102427889961902  0.04081705032488259  1.0000
  N   N12       1.0  0.14212911979053905  0.7897582628135567  0.9591833950773958  1.0000
  O   O1        1.0  0.606710956024081  0.8545429285381372  0.5014030519648998  1.0000
  O   O2        1.0  0.39329550729155477  0.14545321905364256  0.49859845889002935  1.0000
  O   O3        1.0  0.5863518058543564  0.969322126573644  0.45075192939052755  1.0000
  O   O4        1.0  0.41365464893679166  0.030676839687572503  0.5492528210362977  1.0000
  O   O5        1.0  0.15589219026622209  0.8227680899988812  0.21798065659049823  1.0000
  O   O6        1.0  0.8441127928941371  0.17723297624597478  0.7820243485293971  1.0000
  O   O7        1.0  0.24834620214705447  0.9606733554569402  0.31061061608420454  1.0000
  O   O8        1.0  0.7516562942273384  0.039326379085466094  0.6893947603318509  1.0000
  O   O9        1.0  0.10323010843627858  0.12636521701853806  0.10144476870628687  1.0000
  O   O10       1.0  0.8967720503004986  0.8736331127230699  0.8985589180085183  1.0000
  O   O11       1.0  0.16270968983489106  0.09496226163791019  0.22724145887598715  1.0000
  O   O12       1.0  0.8372841411188292  0.9050362342863777  0.7727636504829931  1.0000
  O   O13       1.0  0.40277623610752045  0.5666363421645143  0.43641454809203134  1.0000
  O   O14       1.0  0.5972238734724656  0.43336123206434246  0.5635835334240653  1.0000
  O   O15       1.0  0.7305824315271678  0.12882008294185  0.17228886526083897  1.0000
  O   O16       1.0  0.2694091325763425  0.8711769780166919  0.8277110342934435  1.0000
  O   O17       1.0  0.7347209496510416  0.0182327731134322  0.2338595705301429  1.0000
  O   O18       1.0  0.2652789263227078  0.9817613144666948  0.7661362869303898  1.0000
  O   O19       1.0  0.17514574131129027  0.1531380838172964  0.4539515957795572  1.0000
  O   O20       1.0  0.8248541624482969  0.8468628713911455  0.5460423687383055  1.0000
  O   O21       1.0  0.080969944201847  0.0173130742064203  0.3580661335211701  1.0000
  O   O22       1.0  0.9190261580867587  0.9826852912510232  0.6419338142287998  1.0000
  O   O23       1.0  0.2727569013095704  0.8596495126794893  0.5612893857950992  1.0000
  O   O24       1.0  0.7272382813307418  0.14034615791336336  0.43871338377554275  1.0000
  O   O25       1.0  0.16915381145133782  0.8921458040892104  0.45840760334149866  1.0000
  O   O26       1.0  0.8308446150865835  0.10785115471714592  0.5415930743966441  1.0000
  O   O27       1.0  0.8895006643618119  0.4374109834891228  0.3373212365434028  1.0000
  O   O28       1.0  0.11048354048154611  0.5625889155692788  0.6626760235897392  1.0000
  O   O29       1.0  0.5721120558341684  0.10240038086875099  0.2742406776523225  1.0000
  O   O30       1.0  0.42788691640411264  0.8975938190425197  0.7257606210784573  1.0000
  O   O31       1.0  0.7439236574639594  0.9114592313862954  0.381042814834103  1.0000
  O   O32       1.0  0.2560767101595758  0.08854181801759607  0.6189568706152355  1.0000
  O   O33       1.0  0.059669964260351115  0.1399590940153814  0.8411158807818068  1.0000
  O   O34       1.0  0.9403338257102689  0.8600487891512782  0.15888323100027416  1.0000
  O   O35       1.0  0.0745801424974601  0.023629706994633196  0.8924815425637432  1.0000
  O   O36       1.0  0.9254179679065402  0.9763747505923844  0.10751360639550703  1.0000
  O   O37       1.0  0.5131653089208826  0.16955564407925994  0.11493397727863909  1.0000
  O   O38       1.0  0.4868339076605039  0.8304545474479282  0.8850741317088049  1.0000
  O   O39       1.0  0.4167549678849767  0.031202357137274796  0.028957672852214983  1.0000
  O   O40       1.0  0.5832532932409721  0.968804828996255  0.971045293627469  1.0000
  O   O41       1.0  0.5068087526199534  0.8955377907266209  0.10489877859022556  1.0000
  O   O42       1.0  0.49318500098203794  0.10446199285561157  0.8951010592938928  1.0000
  O   O43       1.0  0.5385944151251965  0.8799686353674828  0.24295832482641805  1.0000
  O   O44       1.0  0.4614140995895681  0.12002748502075629  0.7570436055203655  1.0000
  O   O45       1.0  0.25692782945968423  0.42711976104693145  0.9256335313865662  1.0000
  O   O46       1.0  0.7430744514636276  0.5728785113261805  0.07436705471665306  1.0000
  O   O47       1.0  0.904424646936498  0.0953814292586586  0.9483436756017412  1.0000
  O   O48       1.0  0.09557667733692204  0.9046182316298398  0.05165646017453435  1.0000
