data_image0
_chemical_formula_structural       Zn2H24C32N4O12
_chemical_formula_sum              "Zn2 H24 C32 N4 O12"
_cell_length_a       6.632058880792445
_cell_length_b       9.664596333425594
_cell_length_c       12.168280815464554
_cell_angle_alpha    98.95788084722012
_cell_angle_beta     98.9083701042858
_cell_angle_gamma    98.78383952130459

_space_group_name_H-M_alt    "P 1"
_space_group_IT_number       1

loop_
  _space_group_symop_operation_xyz
  'x, y, z'

loop_
  _atom_site_type_symbol
  _atom_site_label
  _atom_site_symmetry_multiplicity
  _atom_site_fract_x
  _atom_site_fract_y
  _atom_site_fract_z
  _atom_site_occupancy
  Zn  Zn1       1.0  0.642120691046074  0.760049525468297  0.8168166908403197  1.0000
  Zn  Zn2       1.0  0.35788296526013863  0.23994963011340786  0.18318122715662358  1.0000
  H   H1        1.0  0.5741495372326001  0.8033281699620435  0.4344265645148939  1.0000
  H   H2        1.0  0.42585494315827077  0.19667416988078656  0.5655800374743907  1.0000
  H   H3        1.0  0.006673166611705066  0.7112667681558024  0.5468266611606298  1.0000
  H   H4        1.0  0.993333539924798  0.2887323790386064  0.4531715169565446  1.0000
  H   H5        1.0  0.06720335972420342  0.45195815196481  0.6563448777974303  1.0000
  H   H6        1.0  0.932800576276435  0.5480420665094388  0.3436548397260141  1.0000
  H   H7        1.0  0.3137311104738032  0.5102593669250055  0.5053475810221857  1.0000
  H   H8        1.0  0.686274358141297  0.4897408495638518  0.49465062385495895  1.0000
  H   H9        1.0  0.6690607138959876  0.05049929673685942  0.7359309989331636  1.0000
  H   H10       1.0  0.3309437927424811  0.9495030508348635  0.26406985358367063  1.0000
  H   H11       1.0  0.7660065004726988  0.307105558017561  0.8313900894326739  1.0000
  H   H12       1.0  0.23399646605199817  0.6928967893313002  0.1686139184368757  1.0000
  H   H13       1.0  0.8518128594125044  0.3619077246258016  0.045536704819305426  1.0000
  H   H14       1.0  0.14818895833722218  0.6380903623198576  0.9544666757698865  1.0000
  H   H15       1.0  0.8400262016882821  0.16294197043124112  0.15158480679269815  1.0000
  H   H16       1.0  0.15996866151896685  0.8370529401948732  0.8484159403893445  1.0000
  H   H17       1.0  0.8148721906271206  0.9878510592243757  0.23099613505237235  1.0000
  H   H18       1.0  0.18510886489671208  0.012149221050492499  0.7690024529225358  1.0000
  H   H19       1.0  0.8145833740145818  0.7652094407595413  0.3088555048010947  1.0000
  H   H20       1.0  0.1854007354891962  0.23479083223215721  0.6911425219408402  1.0000
  H   H21       1.0  0.7274241742356864  0.5293438998276372  0.17685526877543375  1.0000
  H   H22       1.0  0.2725736575547302  0.4706563343170841  0.8231447498607525  1.0000
  H   H23       1.0  0.6746433174982372  0.5303715708934362  0.9655634496126811  1.0000
  H   H24       1.0  0.32535546501983964  0.4696265288560325  0.03443638544344202  1.0000
  C   C1        1.0  0.10253967054645592  0.6362731788779286  0.5758873881146089  1.0000
  C   C2        1.0  0.8974621734508686  0.3637249157966238  0.42411024300212585  1.0000
  C   C3        1.0  0.9692690336999732  0.5214236500697069  0.6200368133655021  1.0000
  C   C4        1.0  0.03073644241443674  0.47857656862740344  0.37995974880522726  1.0000
  C   C5        1.0  0.1993564514436059  0.5734880710567793  0.4750947747534939  1.0000
  C   C6        1.0  0.8006490209211422  0.42651214653620423  0.5249026087704396  1.0000
  C   C7        1.0  0.28130098821392835  0.7230136497435354  0.6675422070109536  1.0000
  C   C8        1.0  0.7187008482840794  0.27698444272276396  0.3324570668121965  1.0000
  C   C9        1.0  0.8623458598831918  0.586731369500079  0.7135187164103985  1.0000
  C   C10       1.0  0.13765532432987732  0.41326992577464955  0.2864784337532812  1.0000
  C   C11       1.0  0.3076598034972023  0.6994098872763959  0.4323557848313016  1.0000
  C   C12       1.0  0.6923365416807882  0.30060741077635106  0.5676421159198173  1.0000
  C   C13       1.0  0.7078888378968102  0.08036122364052292  0.8277663142766659  1.0000
  C   C14       1.0  0.2921108024528253  0.9196400703072173  0.1722348125929401  1.0000
  C   C15       1.0  0.7595902069247984  0.22287746126224303  0.8816088911133522  1.0000
  C   C16       1.0  0.24041066384693016  0.7771227611827954  0.11839385170269888  1.0000
  C   C17       1.0  0.8063555328318656  0.25264381042690337  0.9994163185748592  1.0000
  C   C18       1.0  0.19364475980272294  0.7473542807124077  0.0005869319542171368  1.0000
  C   C19       1.0  0.800875852937473  0.1411541208221934  0.059837551285888024  1.0000
  C   C20       1.0  0.19912263488754436  0.8588429116182256  0.9401637696565647  1.0000
  C   C21       1.0  0.749832240382375  0.0013131128418421992  0.0004482955986234142  1.0000
  C   C22       1.0  0.25016349190540416  0.9986849952949302  0.9995512793372685  1.0000
  C   C23       1.0  0.7459588537231666  0.8757712104100149  0.0564555247821446  1.0000
  C   C24       1.0  0.2540323069688384  0.12422691141183152  0.9435428386201894  1.0000
  C   C25       1.0  0.7848966153704567  0.8851859059589273  0.17402300749687075  1.0000
  C   C26       1.0  0.21509119664855803  0.11481115583703172  0.8259774030247659  1.0000
  C   C27       1.0  0.7794340363170917  0.7600206611090176  0.2177183714137173  1.0000
  C   C28       1.0  0.22055130735843417  0.23997854148409914  0.7822804499214515  1.0000
  C   C29       1.0  0.7358820426119054  0.6287360815836182  0.1444545608040643  1.0000
  C   C30       1.0  0.26411244800481637  0.37126309474347613  0.8555458622450164  1.0000
  C   C31       1.0  0.7024052385907851  0.6278535786796127  0.02853717586939554  1.0000
  C   C32       1.0  0.29759135152856686  0.37214772365543064  0.9714636908799721  1.0000
  N   N1        1.0  0.7036807074399859  0.9732156819920235  0.8858060492442521  1.0000
  N   N2        1.0  0.29631683715668083  0.026783487051900996  0.11419381257184823  1.0000
  N   N3        1.0  0.7053815608981678  0.7478722335273748  0.986040988531926  1.0000
  N   N4        1.0  0.2946151333662499  0.25212374352653205  0.013955938764283426  1.0000
  O   O1        1.0  0.3672073143120401  0.6519578078104972  0.7389731949100027  1.0000
  O   O2        1.0  0.6327948093797177  0.3480413497566063  0.2610262357332403  1.0000
  O   O3        1.0  0.34366566063153664  0.8515070265561634  0.6674982589387002  1.0000
  O   O4        1.0  0.6563440848862713  0.14849210893856218  0.3325026433583319  1.0000
  O   O5        1.0  0.8387861706502876  0.7178862788130901  0.7148266937316311  1.0000
  O   O6        1.0  0.16121835098680756  0.2821160731751391  0.28517087337236563  1.0000
  O   O7        1.0  0.7971194238045028  0.5127316599330598  0.7808953322394745  1.0000
  O   O8        1.0  0.20288261449046982  0.48727282843581327  0.219103931090885  1.0000
  O   O9        1.0  0.21960609449084964  0.7846703161360155  0.3884761166948822  1.0000
  O   O10       1.0  0.780408002077486  0.21532240425041488  0.6115301143945262  1.0000
  O   O11       1.0  0.517458062910663  0.7120020786899631  0.4534525467574684  1.0000
  O   O12       1.0  0.48255072812983735  0.2879991900958886  0.5465493604728311  1.0000
