data_image0
_chemical_formula_structural       La2P4H34C32O22
_chemical_formula_sum              "La2 P4 H34 C32 O22"
_cell_length_a       5.610290706511637
_cell_length_b       9.694606214046434
_cell_length_c       18.21440096953213
_cell_angle_alpha    105.8040798413722
_cell_angle_beta     91.76809623739203
_cell_angle_gamma    95.17429752666216

_space_group_name_H-M_alt    "P 1"
_space_group_IT_number       1

loop_
  _space_group_symop_operation_xyz
  'x, y, z'

loop_
  _atom_site_type_symbol
  _atom_site_label
  _atom_site_symmetry_multiplicity
  _atom_site_fract_x
  _atom_site_fract_y
  _atom_site_fract_z
  _atom_site_occupancy
  La  La1       1.0  0.13105840484507073  0.801176352859635  0.0038188969510954936  1.0000
  La  La2       1.0  0.8689306882590772  0.19882062741046272  0.996176592874285  1.0000
  P   P1        1.0  0.37220982857668616  0.10511452114749892  0.1122214571983875  1.0000
  P   P2        1.0  0.6277924266767557  0.8948768526184028  0.88777008502187  1.0000
  P   P3        1.0  0.26400073420261805  0.5347759878113152  0.11173936129680578  1.0000
  P   P4        1.0  0.7359867700263223  0.46522213507216037  0.8882595674515699  1.0000
  H   H1        1.0  0.5856957951066236  0.14747668100982742  0.326324411715312  1.0000
  H   H2        1.0  0.4142995162320845  0.8525245430450925  0.6736717438405859  1.0000
  H   H3        1.0  0.46849861845711877  0.006156291587494399  0.41541168938950784  1.0000
  H   H4        1.0  0.5315096547819492  0.9938382197433313  0.5845781639247036  1.0000
  H   H5        1.0  0.7704305190458032  0.8872445066193536  0.2991879968103746  1.0000
  H   H6        1.0  0.22958612714337795  0.11275647488267992  0.7008099971905251  1.0000
  H   H7        1.0  0.8851653527589962  0.031090755086729913  0.2093869854715322  1.0000
  H   H8        1.0  0.1148448599867748  0.9689048979848849  0.790609638149206  1.0000
  H   H9        1.0  0.49037171622190107  0.25885264237699357  0.235266373633543  1.0000
  H   H10       1.0  0.5096280817072695  0.7411441626808825  0.7647259104470336  1.0000
  H   H11       1.0  0.18872324306791913  0.26935093709155933  0.2086249151312032  1.0000
  H   H12       1.0  0.8112784917409216  0.7306556297766422  0.7913737107961367  1.0000
  H   H13       1.0  0.5083317228633106  0.6491009014855892  0.3172486034517235  1.0000
  H   H14       1.0  0.4916653550259584  0.35090893501112674  0.6827482393405333  1.0000
  H   H15       1.0  0.4626297137865906  0.5188591169406679  0.41665326392891433  1.0000
  H   H16       1.0  0.5373642136450841  0.4811615817037025  0.5833467282757496  1.0000
  H   H17       1.0  0.744809770681947  0.35583379174592983  0.3277484900455221  1.0000
  H   H18       1.0  0.25520191860595537  0.6441694969934489  0.6722563660965406  1.0000
  H   H19       1.0  0.7891637744412919  0.4828905837208169  0.22588136791684119  1.0000
  H   H20       1.0  0.21082109242838953  0.5170946025213682  0.7741151549878964  1.0000
  H   H21       1.0  0.3135709189459277  0.7417174883932489  0.2190943312580771  1.0000
  H   H22       1.0  0.6864199582957228  0.25827946267481383  0.7809006242764978  1.0000
  H   H23       1.0  0.008878489095984349  0.6855363529159039  0.1882437100214389  1.0000
  H   H24       1.0  0.9911005547829677  0.3144640421203206  0.8117559995063813  1.0000
  H   H25       1.0  0.16501754755153542  0.8127640436105993  0.5115930423557273  1.0000
  H   H26       1.0  0.8349818902888657  0.18724911830096866  0.48841308003361655  1.0000
  H   H27       1.0  0.5256227723457131  0.3791732761314607  0.11335141064929388  1.0000
  H   H28       1.0  0.4743643064521593  0.6208226702693909  0.8866455588041616  1.0000
  H   H29       1.0  0.20103188827469162  0.30080228645543644  0.5241104901749267  1.0000
  H   H30       1.0  0.798986887429443  0.6992181903377742  0.4758963218451839  1.0000
  H   H31       1.0  0.672299212921182  0.68821182564065  0.0748706456656052  1.0000
  H   H32       1.0  0.32770654079433115  0.311779590401301  0.9251275279120108  1.0000
  H   H33       1.0  0.6779110799345176  0.8550595720419453  0.09772201671163568  1.0000
  H   H34       1.0  0.3220904848126196  0.144928612510121  0.9022723615204596  1.0000
  C   C1        1.0  0.24484104479541471  0.09920782110876301  0.2610082147018318  1.0000
  C   C2        1.0  0.7551728792616571  0.9007803460064067  0.7389967233813051  1.0000
  C   C3        1.0  0.40699394367607067  0.089758095229449  0.3191019747121402  1.0000
  C   C4        1.0  0.5930271069577416  0.9102299694604458  0.6809019261990769  1.0000
  C   C5        1.0  0.3420938612398317  0.010880880906128702  0.3698396454532897  1.0000
  C   C6        1.0  0.6579078937829765  0.9891084242487128  0.6301581874066429  1.0000
  C   C7        1.0  0.1117127197433589  0.9375898725287473  0.36297274110310696  1.0000
  C   C8        1.0  0.8882981262960713  0.06240043598443629  0.637028074913232  1.0000
  C   C9        1.0  0.9495479686096008  0.9438516706303944  0.3040813402776408  1.0000
  C   C10       1.0  0.05046639058441121  0.05615589153212852  0.6959230501939828  1.0000
  C   C11       1.0  0.0150039372105795  0.024547334704607203  0.25384312093170536  1.0000
  C   C12       1.0  0.985009316019344  0.9754548473785861  0.7461610462655556  1.0000
  C   C13       1.0  0.321814182720516  0.19368176906034054  0.21113181524430047  1.0000
  C   C14       1.0  0.6781813514407065  0.8063119123792081  0.7888649234253577  1.0000
  C   C15       1.0  0.044462107497636814  0.8574508303440853  0.41915614828679537  1.0000
  C   C16       1.0  0.9555262100599505  0.14256031591420992  0.580850120561152  1.0000
  C   C17       1.0  0.1531669281382975  0.5721926041958056  0.2635766635979522  1.0000
  C   C18       1.0  0.8468361480574557  0.42780316568396165  0.7364220971859864  1.0000
  C   C19       1.0  0.34147609081647085  0.5825764758586446  0.31792876537019765  1.0000
  C   C20       1.0  0.6585220707307258  0.41743015660506455  0.682071479134386  1.0000
  C   C21       1.0  0.31706169776872173  0.5104302140226552  0.37429022335296475  1.0000
  C   C22       1.0  0.6829400396671446  0.4895677327760169  0.6257088310341388  1.0000
  C   C23       1.0  0.1023284857903946  0.42667347584198717  0.3768889310173761  1.0000
  C   C24       1.0  0.8976780463473022  0.5733310139148389  0.6231204326292924  1.0000
  C   C25       1.0  0.912628021577909  0.4178008762642804  0.3232701448090012  1.0000
  C   C26       1.0  0.08738743623394644  0.5822034602909272  0.6767359973880217  1.0000
  C   C27       1.0  0.9376993501702205  0.4889158502673042  0.2670015276480839  1.0000
  C   C28       1.0  0.06229434237345542  0.5110865595496037  0.7330013668046576  1.0000
  C   C29       1.0  0.1789467031744465  0.6474194494448186  0.20197225428069027  1.0000
  C   C30       1.0  0.8210412813385801  0.35258077081547173  0.7980225838105639  1.0000
  C   C31       1.0  0.06531244329830341  0.34609741445382985  0.4343866572989085  1.0000
  C   C32       1.0  0.9346791349389252  0.6539213382701876  0.5656273097795647  1.0000
  O   O1        1.0  0.46212188838823226  0.9561347435953709  0.10151249801349141  1.0000
  O   O2        1.0  0.5378781423367301  0.04385450446426381  0.8984792691895577  1.0000
  O   O3        1.0  0.12720437980973295  0.07550682712920322  0.0651784649925915  1.0000
  O   O4        1.0  0.8727846883612145  0.92449018909808  0.9348197748109824  1.0000
  O   O5        1.0  0.552077080860002  0.21033519352685914  0.0858712582592531  1.0000
  O   O6        1.0  0.44792379311343217  0.7896670347589777  0.9141245490695268  1.0000
  O   O7        1.0  0.21061891323045498  0.875099400661668  0.4746128605259726  1.0000
  O   O8        1.0  0.78938971562674  0.12489738783189355  0.525386652022128  1.0000
  O   O9        1.0  0.8490198885317924  0.7813407128760305  0.4142429537029528  1.0000
  O   O10       1.0  0.1509876141473541  0.21866795725155447  0.5857571286381855  1.0000
  O   O11       1.0  0.2987818552342532  0.6306600852848449  0.05789365732409379  1.0000
  O   O12       1.0  0.7012085317500266  0.36933478278928084  0.942106488858883  1.0000
  O   O13       1.0  0.5192052102641611  0.48751909274075456  0.1293613458035168  1.0000
  O   O14       1.0  0.48077072830434286  0.5124748667725784  0.8706379700911029  1.0000
  O   O15       1.0  0.08350604653700343  0.4021709143251473  0.08281220350168891  1.0000
  O   O16       1.0  0.9164832916958189  0.5978271074419225  0.917180690999487  1.0000
  O   O17       1.0  0.24260468575567978  0.3612054874696399  0.4862424517967625  1.0000
  O   O18       1.0  0.757412108189037  0.6388052922361781  0.513762968337339  1.0000
  O   O19       1.0  0.8730802544622378  0.2685939491059486  0.4322916699140862  1.0000
  O   O20       1.0  0.1269224390711656  0.73142682646278  0.5677227007014238  1.0000
  O   O21       1.0  0.7861839797645376  0.7753866425254331  0.08627305733715221  1.0000
  O   O22       1.0  0.2138181857294228  0.22460486068633406  0.913728384804628  1.0000
