data_image0
_chemical_formula_structural       Mn6H84C66N12O18
_chemical_formula_sum              "Mn6 H84 C66 N12 O18"
_cell_length_a       7.053710740031039
_cell_length_b       21.46207492688846
_cell_length_c       21.462160307435695
_cell_angle_alpha    119.99950662404207
_cell_angle_beta     90.00021004818252
_cell_angle_gamma    90.00012715634234

_space_group_name_H-M_alt    "P 1"
_space_group_IT_number       1

loop_
  _space_group_symop_operation_xyz
  'x, y, z'

loop_
  _atom_site_type_symbol
  _atom_site_label
  _atom_site_symmetry_multiplicity
  _atom_site_fract_x
  _atom_site_fract_y
  _atom_site_fract_z
  _atom_site_occupancy
  Mn  Mn1       1.0  0.886034002592268  0.6080142845777557  0.3357420265077024  1.0000
  Mn  Mn2       1.0  0.44729622160316757  0.3919815572026549  0.7277192627904155  1.0000
  Mn  Mn3       1.0  0.5527199063015047  0.6642611979775523  0.2722822899922335  1.0000
  Mn  Mn4       1.0  0.2193955280322939  0.727722803652682  0.391970927376704  1.0000
  Mn  Mn5       1.0  0.11393192475375  0.2722731662160454  0.6642523779652476  1.0000
  Mn  Mn6       1.0  0.7805880168226977  0.33575223542025157  0.6080324579548345  1.0000
  H   H1        1.0  0.016297216425648697  0.5713663977329658  0.5649818313948598  1.0000
  H   H2        1.0  0.3170132297075482  0.42863294659035484  0.9936208050609564  1.0000
  H   H3        1.0  0.6829739081525191  0.43501561754694507  0.00638697101941688  1.0000
  H   H4        1.0  0.3496571295625301  0.9936186140681186  0.42862385248793794  1.0000
  H   H5        1.0  0.9836918123119816  0.006390199038804714  0.4350076981588344  1.0000
  H   H6        1.0  0.6503436454322581  0.5649851500687147  0.5713651858789816  1.0000
  H   H7        1.0  0.8946773220166692  0.6378632565689699  0.5056979618565833  1.0000
  H   H8        1.0  0.43862771954395896  0.36213383562856905  0.8678397695043641  1.0000
  H   H9        1.0  0.5613523060137808  0.49430345556649513  0.13216566417145262  1.0000
  H   H10       1.0  0.2280338287522241  0.8678388218222963  0.36213187516291606  1.0000
  H   H11       1.0  0.105312341930599  0.1321716648982018  0.49429928429597675  1.0000
  H   H12       1.0  0.7719521580270836  0.505704716046516  0.6378645326783355  1.0000
  H   H13       1.0  0.5550994783075964  0.5476906308897398  0.4610219933230653  1.0000
  H   H14       1.0  0.7782069855918793  0.45230536308488917  0.9133378082972071  1.0000
  H   H15       1.0  0.22178057385573882  0.5389733246851023  0.08666613506387219  1.0000
  H   H16       1.0  0.8884613439469008  0.9133366526514591  0.45229921620996527  1.0000
  H   H17       1.0  0.44488548430435065  0.08666368531120126  0.5389660853451373  1.0000
  H   H18       1.0  0.11152889861377702  0.4610303769822793  0.5476937466026044  1.0000
  H   H19       1.0  0.2256104309460127  0.44459023328568037  0.2597248152987745  1.0000
  H   H20       1.0  0.1077227980442714  0.5554208270920852  0.8151327906807352  1.0000
  H   H21       1.0  0.892275690869134  0.7402845298678926  0.18486725184990138  1.0000
  H   H22       1.0  0.5589371741845  0.8151276610482087  0.5554083935048695  1.0000
  H   H23       1.0  0.7744057048667018  0.1848586980905933  0.7402893701780612  1.0000
  H   H24       1.0  0.44106625597126486  0.25972775286633976  0.444594628739928  1.0000
  H   H25       1.0  0.07847481180713341  0.4568001242014504  0.2000241602151718  1.0000
  H   H26       1.0  0.25486192592426704  0.5431990739817392  0.7432195405737899  1.0000
  H   H27       1.0  0.7451508967245034  0.7999819130252419  0.25677532536063535  1.0000
  H   H28       1.0  0.41180012801361704  0.7432177546638742  0.5431934354414593  1.0000
  H   H29       1.0  0.9215444372358378  0.2567684993888121  0.7999838278049081  1.0000
  H   H30       1.0  0.58818160197427  0.2000290938993031  0.45680717978181906  1.0000
  H   H31       1.0  0.24389892184302653  0.5248881986326664  0.2560556193051439  1.0000
  H   H32       1.0  0.0894125461560975  0.475118575076479  0.731170070366069  1.0000
  H   H33       1.0  0.9105800188447261  0.74395378234248  0.2688314712521631  1.0000
  H   H34       1.0  0.5772346129727455  0.731163917283169  0.4751109340423695  1.0000
  H   H35       1.0  0.7560979088913911  0.268825791508334  0.7439591120824289  1.0000
  H   H36       1.0  0.4227543507386571  0.25605757363468473  0.5248881794301781  1.0000
  H   H37       1.0  0.0085108516129324  0.43068624266860667  0.3271498752559978  1.0000
  H   H38       1.0  0.32483881322642105  0.5693232909563973  0.896460818431663  1.0000
  H   H39       1.0  0.6751850174081114  0.6728651338982844  0.10354344964821383  1.0000
  H   H40       1.0  0.3418503659960166  0.8964564705955238  0.5693097724529748  1.0000
  H   H41       1.0  0.9915049695747058  0.10353232536263587  0.6728564999345963  1.0000
  H   H42       1.0  0.6581578085688876  0.3271420647239934  0.4306888943686288  1.0000
  H   H43       1.0  0.8190293626105997  0.4911979601850049  0.370168414676577  1.0000
  H   H44       1.0  0.5143090000942648  0.5088061223717801  0.8789659588126638  1.0000
  H   H45       1.0  0.48570598229566997  0.6298395885334358  0.1210305580122081  1.0000
  H   H46       1.0  0.1523653033671408  0.8789669034957439  0.5087981033474803  1.0000
  H   H47       1.0  0.180965450830719  0.12102874037250169  0.6298321110334937  1.0000
  H   H48       1.0  0.8476415378384276  0.3701653587006462  0.49119824513979177  1.0000
  H   H49       1.0  0.7799637394334694  0.43098033853998163  0.2146748447678846  1.0000
  H   H50       1.0  0.5533533573345154  0.5690163269914307  0.783680021765626  1.0000
  H   H51       1.0  0.44666091988294443  0.7853387298067886  0.2163083195006479  1.0000
  H   H52       1.0  0.1133263027731317  0.7836889874178963  0.5690212641438847  1.0000
  H   H53       1.0  0.2200567082853695  0.2163039663949319  0.7853232093428345  1.0000
  H   H54       1.0  0.8866726215712007  0.2146648537495821  0.4309785649247075  1.0000
  H   H55       1.0  0.8090277316179524  0.35891209914327493  0.23154827197117098  1.0000
  H   H56       1.0  0.5243239881945528  0.6410857383668399  0.8726204253372315  1.0000
  H   H57       1.0  0.4756833828337362  0.7684562142978919  0.12736363993588637  1.0000
  H   H58       1.0  0.1423613673741073  0.872633047347861  0.6410826062977434  1.0000
  H   H59       1.0  0.19100636119003414  0.12736408727300824  0.7684538453125639  1.0000
  H   H60       1.0  0.8576492481063483  0.23154904417919647  0.35891693102193045  1.0000
  H   H61       1.0  0.525773329084828  0.4729893438063256  0.2997504770307628  1.0000
  H   H62       1.0  0.807554416098384  0.5269972259014607  0.8267336489370364  1.0000
  H   H63       1.0  0.1924651120848111  0.7002618680828121  0.17326112206048805  1.0000
  H   H64       1.0  0.8591180598659066  0.8267386962689898  0.5269983896304992  1.0000
  H   H65       1.0  0.47423577359091235  0.17324221751283606  0.70024451057111  1.0000
  H   H66       1.0  0.14087987003430413  0.2997374601212569  0.47300396619454677  1.0000
  H   H67       1.0  0.5444934632460487  0.33229051125572784  0.29197436124254483  1.0000
  H   H68       1.0  0.7888916973984336  0.6677006397701813  0.9596526334415001  1.0000
  H   H69       1.0  0.21110989123759796  0.7080398367314942  0.04033859701987536  1.0000
  H   H70       1.0  0.8777846475113974  0.9596607389862726  0.6676987555622418  1.0000
  H   H71       1.0  0.4555416717292573  0.04031907502804438  0.7080200417204381  1.0000
  H   H72       1.0  0.12222929042092548  0.29196051103887294  0.33230415626716336  1.0000
  H   H73       1.0  0.6055358153067301  0.41338741284194913  0.372312450434407  1.0000
  H   H74       1.0  0.7278554662174201  0.586607448547397  0.9589041200315193  1.0000
  H   H75       1.0  0.2721540953374344  0.627699045749722  0.04109303584395725  1.0000
  H   H76       1.0  0.9388272339511801  0.9589074819803329  0.5866037279868691  1.0000
  H   H77       1.0  0.39449250160978977  0.04107807517043942  0.6276834851785651  1.0000
  H   H78       1.0  0.061188384579473606  0.37230184940671757  0.4133984985266109  1.0000
  H   H79       1.0  0.37136095983269973  0.40077401254166023  0.33723623388269164  1.0000
  H   H80       1.0  0.9620158192449181  0.5992130757381844  0.9364250165232021  1.0000
  H   H81       1.0  0.037988229059600094  0.6627812525207021  0.06357095290135104  1.0000
  H   H82       1.0  0.7046611217029549  0.9364299780145798  0.5992093668549145  1.0000
  H   H83       1.0  0.6286631365440981  0.06354453443928057  0.6627583856264393  1.0000
  H   H84       1.0  0.29535147130349776  0.3372177905426382  0.40079459905548015  1.0000
  C   C1        1.0  0.1537563231458847  0.629689929725508  0.4501256454571986  1.0000
  C   C2        1.0  0.17953689944191348  0.37030655591276923  0.8204388731801017  1.0000
  C   C3        1.0  0.8204433366828354  0.5498775210631451  0.1795644276363645  1.0000
  C   C4        1.0  0.4871172089862554  0.8204412179367039  0.37030745393484205  1.0000
  C   C5        1.0  0.8462249642298119  0.17956649534809077  0.5498762854624458  1.0000
  C   C6        1.0  0.5128783615388245  0.4501339197838731  0.6296948995360478  1.0000
  C   C7        1.0  0.3432422407817839  0.6034311425830481  0.4366927816913132  1.0000
  C   C8        1.0  0.9900593796645224  0.39656753818815094  0.833270422821954  1.0000
  C   C9        1.0  0.0099280760421081  0.563303382127657  0.166735363087362  1.0000
  C   C10       1.0  0.6765992271150552  0.833269834345799  0.39656447086338176  1.0000
  C   C11       1.0  0.6567431705249335  0.16673712216008596  0.5633043787665954  1.0000
  C   C12       1.0  0.32340484758906035  0.43670502565623076  0.6034380352558344  1.0000
  C   C13       1.0  0.40946136564734564  0.5671577054606017  0.47172574756279306  1.0000
  C   C14       1.0  0.9238380207585947  0.43283958417043056  0.9045738307749075  1.0000
  C   C15       1.0  0.0761409328885421  0.5282720304868036  0.0954325132780482  1.0000
  C   C16       1.0  0.7428258028005955  0.904572129694621  0.43283350477760507  1.0000
  C   C17       1.0  0.5905180194933664  0.09543301859615369  0.5282672133236942  1.0000
  C   C18       1.0  0.2571715346421044  0.47173052695630685  0.5671630550755821  1.0000
  C   C19       1.0  0.29570301666097276  0.5541549827842545  0.5172250345798658  1.0000
  C   C20       1.0  0.0376098220474503  0.4458427656503473  0.9630765430700163  1.0000
  C   C21       1.0  0.9623832011881674  0.48277253664667796  0.036929899115158066  1.0000
  C   C22       1.0  0.6290575823940542  0.9630760824190006  0.44583543726275826  1.0000
  C   C23       1.0  0.7042818030260705  0.03692980746292552  0.4827648559861756  1.0000
  C   C24       1.0  0.37094576934089224  0.5172303483274661  0.554153248276009  1.0000
  C   C25       1.0  0.1074136179044629  0.579562514902804  0.5285998700062321  1.0000
  C   C26       1.0  0.225883611147097  0.42043684363682127  0.9490433537154812  1.0000
  C   C27       1.0  0.7740979490174877  0.4713955868170885  0.050960342691105526  1.0000
  C   C28       1.0  0.4407791869029651  0.949043184861317  0.42043044970037596  1.0000
  C   C29       1.0  0.8925656612984412  0.050963587273436195  0.4713901593048033  1.0000
  C   C30       1.0  0.559218485308179  0.5286064005057795  0.5795629755895887  1.0000
  C   C31       1.0  0.039229589815505506  0.6170437766238948  0.4963968513593853  1.0000
  C   C32       1.0  0.2940869107586436  0.38295400706530786  0.8793607506426893  1.0000
  C   C33       1.0  0.7058988850818863  0.5036028302168634  0.1206469432468253  1.0000
  C   C34       1.0  0.3725749272597342  0.879359694457527  0.382950776254347  1.0000
  C   C35       1.0  0.9607613849742124  0.12064933091152599  0.5035978895068425  1.0000
  C   C36       1.0  0.6274266615121391  0.49640817193739634  0.6170484753575137  1.0000
  C   C37       1.0  0.4782035805985814  0.6118135797096471  0.3879796051694271  1.0000
  C   C38       1.0  0.8551087830087027  0.3881874069253258  0.7761700182972078  1.0000
  C   C39       1.0  0.14487880595288521  0.6120219610355164  0.22383616266449735  1.0000
  C   C40       1.0  0.8115393132853369  0.7761650004137693  0.38818331204360135  1.0000
  C   C41       1.0  0.5217834647212599  0.2238345009301099  0.6120203321596236  1.0000
  C   C42       1.0  0.18845732338054694  0.38798320395931535  0.6118216185701754  1.0000
  C   C43       1.0  0.1429745969105198  0.48526005756632173  0.25426749362338086  1.0000
  C   C44       1.0  0.19034841649084908  0.5147443880288306  0.7690068811964607  1.0000
  C   C45       1.0  0.8096513737751536  0.7457414639372075  0.23099352427880157  1.0000
  C   C46       1.0  0.47630652505838356  0.7690019016072753  0.5147361009121311  1.0000
  C   C47       1.0  0.8570319017505524  0.2309858456761871  0.7457432764147  1.0000
  C   C48       1.0  0.5236853931383365  0.2542699161831193  0.48526492062548227  1.0000
  C   C49       1.0  0.9018222931609473  0.46450828202291916  0.3201637829196926  1.0000
  C   C50       1.0  0.4315128195113828  0.5354946606083358  0.8556498880140636  1.0000
  C   C51       1.0  0.5684953277774838  0.6798461843274595  0.1443491580357374  1.0000
  C   C52       1.0  0.2351586787727555  0.8556495254091132  0.5354869394073133  1.0000
  C   C53       1.0  0.09818101529889131  0.14434242072886844  0.6798384348002883  1.0000
  C   C54       1.0  0.7648465025488773  0.3201605500196932  0.4645128976827733  1.0000
  C   C55       1.0  0.7662590818067513  0.4157473041178648  0.2563959611757483  1.0000
  C   C56       1.0  0.5670798383798683  0.5842488466237085  0.8406326183988282  1.0000
  C   C57       1.0  0.43293293364214247  0.7436136596800722  0.15935796929746002  1.0000
  C   C58       1.0  0.09960046835512769  0.8406395809340949  0.5842467469804616  1.0000
  C   C59       1.0  0.2337597097638877  0.1593511550020138  0.7436023960514219  1.0000
  C   C60       1.0  0.900403035032056  0.25639023544753303  0.41575295362048337  1.0000
  C   C61       1.0  0.5215597978588561  0.390889312380672  0.3218750906514599  1.0000
  C   C62       1.0  0.8118154457416865  0.6091009728152129  0.930956737916901  1.0000
  C   C63       1.0  0.18819010364109798  0.6781383808217498  0.06903766645513801  1.0000
  C   C64       1.0  0.854861534810567  0.9309625974246882  0.6090986882387596  1.0000
  C   C65       1.0  0.4784685370219321  0.06901714724981624  0.6781192058468262  1.0000
  C   C66       1.0  0.14514957170531773  0.32186094695119033  0.39090404314928406  1.0000
  N   N1        1.0  0.006346241794417999  0.5186853859448206  0.31255993347906497  1.0000
  N   N2        1.0  0.3269687357305102  0.48131570656939715  0.7938763915325494  1.0000
  N   N3        1.0  0.6730250807909074  0.6874476479861684  0.20612801533092545  1.0000
  N   N4        1.0  0.3396875468415672  0.7938704891936438  0.4813092095073016  1.0000
  N   N5        1.0  0.9936446904884518  0.20612091180130668  0.68744595201683  1.0000
  N   N6        1.0  0.6603145699040951  0.3125609048978645  0.518689630564971  1.0000
  N   N7        1.0  0.5666366166718575  0.42042047560166657  0.2755697684693601  1.0000
  N   N8        1.0  0.7667053292524032  0.579567521759351  0.8551230907098739  1.0000
  N   N9        1.0  0.23330736398845184  0.7244424618491507  0.14486970687355688  1.0000
  N   N10       1.0  0.8999735427742692  0.8551296981456815  0.5795689547550252  1.0000
  N   N11       1.0  0.43338214241789075  0.14485097464865485  0.7244252878299304  1.0000
  N   N12       1.0  0.1000300718234897  0.2755589605750756  0.42043482053486503  1.0000
  O   O1        1.0  0.0741371946838925  0.6664008419913756  0.42112231706198594  1.0000
  O   O2        1.0  0.25917250460519636  0.3335969986536895  0.7547280697149361  1.0000
  O   O3        1.0  0.7408091237589858  0.5788812261115837  0.24527543994116013  1.0000
  O   O4        1.0  0.40748352166738033  0.7547290053728375  0.33359783535296833  1.0000
  O   O5        1.0  0.9258529372379768  0.24527970552436063  0.5788867792525635  1.0000
  O   O6        1.0  0.5925117360223525  0.42113649861729385  0.6664090084746801  1.0000
  O   O7        1.0  0.41743116528476076  0.6364200772054431  0.3475697070432274  1.0000
  O   O8        1.0  0.9158919437365185  0.36359323231849316  0.7111588836097978  1.0000
  O   O9        1.0  0.08409853286593719  0.6524303965035898  0.2888496872153609  1.0000
  O   O10       1.0  0.7507610206174962  0.7111555292959153  0.3635915767558798  1.0000
  O   O11       1.0  0.5825675176472133  0.2888499033180877  0.6524319798179333  1.0000
  O   O12       1.0  0.2492267617489432  0.347576549516006  0.6364292495938528  1.0000
  O   O13       1.0  0.6503299428225945  0.5938961810974916  0.3876624824190528  1.0000
  O   O14       1.0  0.6829740123382281  0.40609991426344977  0.793768787846602  1.0000
  O   O15       1.0  0.31700938376502563  0.6123391498496105  0.20623789422823063  1.0000
  O   O16       1.0  0.9836843259354068  0.7937650277166028  0.40609429282419995  1.0000
  O   O17       1.0  0.3496569851818522  0.20624089743937882  0.6123357755330827  1.0000
  O   O18       1.0  0.016315203147307503  0.38766454061859423  0.5939005756735511  1.0000
