data_image0
_chemical_formula_structural       Ba4H40C48N16O40
_chemical_formula_sum              "Ba4 H40 C48 N16 O40"
_cell_length_a       7.294912582828538
_cell_length_b       15.472160615273891
_cell_length_c       16.124718477523906
_cell_angle_alpha    107.65574993687284
_cell_angle_beta     90.00091101910519
_cell_angle_gamma    90.00381984615768

_space_group_name_H-M_alt    "P 1"
_space_group_IT_number       1

loop_
  _space_group_symop_operation_xyz
  'x, y, z'

loop_
  _atom_site_type_symbol
  _atom_site_label
  _atom_site_symmetry_multiplicity
  _atom_site_fract_x
  _atom_site_fract_y
  _atom_site_fract_z
  _atom_site_occupancy
  Ba  Ba1       1.0  0.8275937469747917  0.5938029072031553  0.8059340489545975  1.0000
  Ba  Ba2       1.0  0.32756219818039517  0.40620313403058356  0.6940658075813886  1.0000
  Ba  Ba3       1.0  0.1724099619676807  0.40619630411811863  0.19406160444047774  1.0000
  Ba  Ba4       1.0  0.6724319163847954  0.5938039548275  0.3059372188608336  1.0000
  H   H1        1.0  0.9448074020635816  0.7154845253704281  0.6745857266462494  1.0000
  H   H2        1.0  0.44472969471075163  0.2845342250310238  0.8254170797440921  1.0000
  H   H3        1.0  0.0552086457259833  0.28452328853583697  0.3254180850154925  1.0000
  H   H4        1.0  0.555232890164568  0.7154660982552485  0.17458442048244652  1.0000
  H   H5        1.0  0.14337143846897502  0.695498225540902  0.7002784364076149  1.0000
  H   H6        1.0  0.6433126491072584  0.3045117726896152  0.7997365730108399  1.0000
  H   H7        1.0  0.8566432376757831  0.3045040308150816  0.2997222561762953  1.0000
  H   H8        1.0  0.3566650153490869  0.6954862812022782  0.20027871541834946  1.0000
  H   H9        1.0  0.4943564897115423  0.6395826599730084  0.682243100082218  1.0000
  H   H10       1.0  0.9943072195064246  0.3604091114592549  0.8177481546121115  1.0000
  H   H11       1.0  0.5056499610359565  0.36042022339890417  0.31774840773803703  1.0000
  H   H12       1.0  0.0056704427565748  0.6395824641660894  0.18224328922863722  1.0000
  H   H13       1.0  0.6483511806583097  0.7093882597864577  0.6810608088397174  1.0000
  H   H14       1.0  0.14828915716232416  0.29060467630989695  0.8189304058658706  1.0000
  H   H15       1.0  0.35165938307283534  0.2906152044285903  0.31893829101514376  1.0000
  H   H16       1.0  0.8516830206082987  0.7093791669130525  0.18105556299894232  1.0000
  H   H17       1.0  0.5096375972709027  0.987787492034492  0.21683175629232915  1.0000
  H   H18       1.0  0.009614359928946202  0.012195518774099405  0.2831716276654036  1.0000
  H   H19       1.0  0.4903661112454857  0.012204858145842911  0.7831698101813844  1.0000
  H   H20       1.0  0.9903962038449379  0.9878085735812118  0.7168269921523844  1.0000
  H   H21       1.0  0.2515140340468279  0.4248829629102886  0.9861493530246648  1.0000
  H   H22       1.0  0.7515427607758411  0.5751210030874104  0.513842084190145  1.0000
  H   H23       1.0  0.7484608861790959  0.575109916299212  0.013833058664943118  1.0000
  H   H24       1.0  0.24844998270931742  0.42488463587576314  0.4861593716480145  1.0000
  H   H25       1.0  0.8304358945694831  0.9980608445795696  0.8856612412771625  1.0000
  H   H26       1.0  0.3305076433812815  0.0019305326851793156  0.6143290607627422  1.0000
  H   H27       1.0  0.1695719261830035  0.0019306838721178034  0.11433827453411993  1.0000
  H   H28       1.0  0.6695042922602922  0.9980781997536777  0.3856780669031891  1.0000
  H   H29       1.0  0.8790197506820405  0.8322263557979283  0.8035950073404978  1.0000
  H   H30       1.0  0.3790284475674356  0.1677707500344283  0.6964029453920164  1.0000
  H   H31       1.0  0.12101137428675911  0.16776725079290597  0.19640559895259466  1.0000
  H   H32       1.0  0.6209738918171083  0.8322374015352947  0.3035965902605966  1.0000
  H   H33       1.0  0.19342424803511452  0.8578675718753673  0.14887546110026056  1.0000
  H   H34       1.0  0.6933646725710504  0.14212684870918926  0.35114857253415727  1.0000
  H   H35       1.0  0.8065863151107918  0.14212130099303977  0.8511414863530575  1.0000
  H   H36       1.0  0.3066595995611864  0.8578780170572884  0.6488514652059721  1.0000
  H   H37       1.0  0.2885488581419082  0.8815078617191857  0.004636299577640591  1.0000
  H   H38       1.0  0.7884383707043768  0.11851544187748429  0.49540512148602295  1.0000
  H   H39       1.0  0.7114987194051778  0.1184963308715581  0.9953896997137621  1.0000
  H   H40       1.0  0.21156396890172863  0.8814923719637945  0.5045986902289528  1.0000
  C   C1        1.0  0.7812780483469268  0.8167788982510868  0.9966974996565909  1.0000
  C   C2        1.0  0.2812626665592645  0.18321732912833255  0.5033018450360274  1.0000
  C   C3        1.0  0.21872017601900498  0.18321074464897436  0.0032947515446294846  1.0000
  C   C4        1.0  0.7187410430788362  0.8167867147925136  0.49669614213750174  1.0000
  C   C5        1.0  0.7585490078363364  0.90918636794548  0.042646227749827334  1.0000
  C   C6        1.0  0.2585663526680975  0.0908048015844614  0.4573528003429744  1.0000
  C   C7        1.0  0.24144510442695835  0.0908036621508472  0.9573510848344143  1.0000
  C   C8        1.0  0.7414442111938867  0.9091993875747874  0.5426470848165793  1.0000
  C   C9        1.0  0.8162850804043985  0.9461013349267587  0.9182478772872428  1.0000
  C   C10       1.0  0.3163250131425245  0.0538904877540958  0.5817414220828426  1.0000
  C   C11       1.0  0.18372411081665518  0.053888646839077105  0.08174880256755301  1.0000
  C   C12       1.0  0.6836828095180253  0.9461165043650294  0.41826033896438014  1.0000
  C   C13       1.0  0.8418814504418677  0.8547614254378214  0.8723242160139223  1.0000
  C   C14       1.0  0.34188621389689894  0.1452333954252651  0.6276748326410131  1.0000
  C   C15       1.0  0.1581332245746196  0.14523203586912106  0.12767449233041364  1.0000
  C   C16       1.0  0.6581147548014459  0.8547749013438662  0.37232660102957743  1.0000
  C   C17       1.0  0.7580404236617826  0.7430839052214466  0.03977997245593914  1.0000
  C   C18       1.0  0.2580084399113716  0.2569040701491971  0.460220827293263  1.0000
  C   C19       1.0  0.2419536879032549  0.2569024517518911  0.9602127809339437  1.0000
  C   C20       1.0  0.7419938992607839  0.7431003609809109  0.5397822212526506  1.0000
  C   C21       1.0  0.7197525986062274  0.9459011631027535  0.13928289787988754  1.0000
  C   C22       1.0  0.2197401736413056  0.054093214755837886  0.3607197255270904  1.0000
  C   C23       1.0  0.2802319172770638  0.05408408275046382  0.860712713634044  1.0000
  C   C24       1.0  0.7802690190111293  0.9459082198260093  0.6392789164316568  1.0000
  C   C25       1.0  0.29704582118688455  0.6601483695656539  0.9496750133790004  1.0000
  C   C26       1.0  0.7970264601946865  0.3398674344997373  0.5503348093105914  1.0000
  C   C27       1.0  0.7029565178570538  0.33985417714366406  0.05032947527811161  1.0000
  C   C28       1.0  0.20297725031524297  0.6601416356285696  0.44966804232492313  1.0000
  C   C29       1.0  0.24567170658300339  0.6469990724563316  0.029178321032631495  1.0000
  C   C30       1.0  0.7456626751025582  0.3530061822389711  0.4708240124954273  1.0000
  C   C31       1.0  0.7543059566451762  0.35299530722722483  0.9708237034436709  1.0000
  C   C32       1.0  0.25434925962314026  0.6469974755904602  0.529177618037636  1.0000
  C   C33       1.0  0.22370793527068863  0.8009755540694954  0.09120054000536729  1.0000
  C   C34       1.0  0.7236725276259294  0.19902558037382787  0.40882035595264204  1.0000
  C   C35       1.0  0.7762834366734951  0.19901766728781206  0.9088124145921271  1.0000
  C   C36       1.0  0.27634214890741765  0.8009805900296528  0.5911793544215058  1.0000
  C   C37       1.0  0.2762590538095537  0.8139483991392993  0.012312720677037741  1.0000
  C   C38       1.0  0.7761932662201758  0.18606439691446033  0.48771463805231013  1.0000
  C   C39       1.0  0.7237597356363779  0.18605071870554468  0.9877077815933077  1.0000
  C   C40       1.0  0.22380907325377558  0.8139432717209087  0.5122872756500243  1.0000
  C   C41       1.0  0.3260522841275347  0.5844240251251093  0.8660932883682123  1.0000
  C   C42       1.0  0.8260344014391522  0.4156035541055303  0.6339101990280869  1.0000
  C   C43       1.0  0.6739514264212048  0.41558741235834157  0.1339057451063894  1.0000
  C   C44       1.0  0.17396108402724048  0.584405950516171  0.36608964191877663  1.0000
  C   C45       1.0  0.2228105064565327  0.5555329661580187  0.04264219549622791  1.0000
  C   C46       1.0  0.7228207912905517  0.44447352067280116  0.45735318137900555  1.0000
  C   C47       1.0  0.7771520768460861  0.44445981727439227  0.9573476556580689  1.0000
  C   C48       1.0  0.27717606451749793  0.5555319731039602  0.5426463764305325  1.0000
  N   N1        1.0  0.8232539454443641  0.7907622649805999  0.9116514565849628  1.0000
  N   N2        1.0  0.3232302014678652  0.2092305915132684  0.5883504423203265  1.0000
  N   N3        1.0  0.1767552456885824  0.20922761998129855  0.0883439579280747  1.0000
  N   N4        1.0  0.6767680249409055  0.7907735007835582  0.4116481775453806  1.0000
  N   N5        1.0  0.7745610172153548  0.9735968467308564  0.002968488681006003  1.0000
  N   N6        1.0  0.274616412497899  0.0263909457953844  0.49701904895261617  1.0000
  N   N7        1.0  0.22543583625068214  0.02638980066729602  0.9970280607235226  1.0000
  N   N8        1.0  0.7253982635587519  0.973611213756662  0.5029803782895286  1.0000
  N   N9        1.0  0.31405997244377204  0.7440523762491293  0.942087345572638  1.0000
  N   N10       1.0  0.8139962678766822  0.2559690991533472  0.5579335363048159  1.0000
  N   N11       1.0  0.6859711542726217  0.2559495435417388  0.0579263277682784  1.0000
  N   N12       1.0  0.18600744254515433  0.7440398741710155  0.4420680499889329  1.0000
  N   N13       1.0  0.21074607912191112  0.7180607794383034  0.09949073709980642  1.0000
  N   N14       1.0  0.7107163199783955  0.2819382003362064  0.40051239209725514  1.0000
  N   N15       1.0  0.7892411791403688  0.2819281879528788  0.9005100662687227  1.0000
  N   N16       1.0  0.28929698551765887  0.7180671483126346  0.5994852676357568  1.0000
  O   O1        1.0  0.0147637032608969  0.6954751225801344  0.7179222626707898  1.0000
  O   O2        1.0  0.5147096264182807  0.3045456877437545  0.7820858903103487  1.0000
  O   O3        1.0  0.9852523439185249  0.3045291150070852  0.28207825513835877  1.0000
  O   O4        1.0  0.48527078127446543  0.6954674910147887  0.21792721464796475  1.0000
  O   O5        1.0  0.5970326787289508  0.6737195843695571  0.7166956361472928  1.0000
  O   O6        1.0  0.09700190829615  0.3262894895264806  0.7833047016251555  1.0000
  O   O7        1.0  0.40296554772255183  0.3262851360675326  0.2833025036813481  1.0000
  O   O8        1.0  0.9029963178483128  0.6737143123585199  0.21669012221526174  1.0000
  O   O9        1.0  0.788171745456566  0.6621194112832425  0.9925530125188331  1.0000
  O   O10       1.0  0.2881251314305331  0.3378738374135252  0.5074499442763027  1.0000
  O   O11       1.0  0.21183744528517684  0.33786771910774854  0.007441158788068903  1.0000
  O   O12       1.0  0.7118593871445498  0.662131801510661  0.4925515115937955  1.0000
  O   O13       1.0  0.4853394433747766  0.5550809412506438  0.8445224421474435  1.0000
  O   O14       1.0  0.9853213144596039  0.4449504209864799  0.6554921340223245  1.0000
  O   O15       1.0  0.5146628967882521  0.4449344586757745  0.15547624179359334  1.0000
  O   O16       1.0  0.0146659471861739  0.5550655112901239  0.34451350935697894  1.0000
  O   O17       1.0  0.7114294377595343  0.7690514355630924  0.11913526526833353  1.0000
  O   O18       1.0  0.2113996652787549  0.23093261835952456  0.3808638680060952  1.0000
  O   O19       1.0  0.28854136984826084  0.2309354526360892  0.8808557428332264  1.0000
  O   O20       1.0  0.788604044232443  0.7690689614022334  0.6191366719865884  1.0000
  O   O21       1.0  0.8417120046130934  0.9683959369797961  0.1942565568416157  1.0000
  O   O22       1.0  0.3417137797814648  0.0316058292230466  0.3057309814066116  1.0000
  O   O23       1.0  0.15829170147056001  0.03157862949457521  0.8057385104694179  1.0000
  O   O24       1.0  0.6582885588298383  0.9683927550368024  0.6942738567893799  1.0000
  O   O25       1.0  0.5409126300693714  0.9593967807868039  0.1545664369471993  1.0000
  O   O26       1.0  0.04091307214628161  0.04058647826719411  0.34543607132302173  1.0000
  O   O27       1.0  0.45908559577853947  0.04060146463976372  0.8454339725686  1.0000
  O   O28       1.0  0.95909612006826  0.9594133128183627  0.6545584693428026  1.0000
  O   O29       1.0  0.18236553919349063  0.5575733895346816  0.8214845938006123  1.0000
  O   O30       1.0  0.6823331904882367  0.4424430641689483  0.6785053720623749  1.0000
  O   O31       1.0  0.8176381710080918  0.44243534177983423  0.17851382913873692  1.0000
  O   O32       1.0  0.3176540690239734  0.5575594813835347  0.3214904118947643  1.0000
  O   O33       1.0  0.27563601424064643  0.48734463230753267  0.9761047566624725  1.0000
  O   O34       1.0  0.7756694741819671  0.5126615920525524  0.5238869510711199  1.0000
  O   O35       1.0  0.7243128606102687  0.5126495998629608  0.023877960395921573  1.0000
  O   O36       1.0  0.22433149425732787  0.4873440953515811  0.4761151374059765  1.0000
  O   O37       1.0  0.1569789076552439  0.5481567487444892  0.11112557142195814  1.0000
  O   O38       1.0  0.6569770613120197  0.45183679087850936  0.3888656714173068  1.0000
  O   O39       1.0  0.8429987534742479  0.4518283507849857  0.8888594373474135  1.0000
  O   O40       1.0  0.3430225360472434  0.548167446630721  0.6111348464557268  1.0000
