data_image0
_chemical_formula_structural       Al4H8C38N2O24
_chemical_formula_sum              "Al4 H8 C38 N2 O24"
_cell_length_a       6.696406977078057
_cell_length_b       19.415168099194606
_cell_length_c       21.476891475535187
_cell_angle_alpha    86.6905449373141
_cell_angle_beta     88.55134068803095
_cell_angle_gamma    88.99577064675579

_space_group_name_H-M_alt    "P 1"
_space_group_IT_number       1

loop_
  _space_group_symop_operation_xyz
  'x, y, z'

loop_
  _atom_site_type_symbol
  _atom_site_label
  _atom_site_symmetry_multiplicity
  _atom_site_fract_x
  _atom_site_fract_y
  _atom_site_fract_z
  _atom_site_occupancy
  Al  Al1       1.0  0.7660343904404529  0.26510351847693414  0.261937080721296  1.0000
  Al  Al2       1.0  0.23397112968832087  0.7348936523419596  0.738054481537425  1.0000
  Al  Al3       1.0  0.2656443957705577  0.2649192001140078  0.2624798326594515  1.0000
  Al  Al4       1.0  0.7343532402530217  0.7350867192389147  0.7375183424147664  1.0000
  H   H1        1.0  0.1615984762599112  0.10262373178249362  0.9511708259492124  1.0000
  H   H2        1.0  0.8384052672850547  0.8973796166870045  0.04882417221973867  1.0000
  H   H3        1.0  0.7893302073018591  0.047694799823965205  0.9151105440999245  1.0000
  H   H4        1.0  0.21067508076586713  0.9523085723185718  0.0848783889429185  1.0000
  H   H5        1.0  0.5212287624667412  0.17560097481932505  0.2548671667038818  1.0000
  H   H6        1.0  0.47875108284542733  0.8243997613944247  0.7451402336564925  1.0000
  H   H7        1.0  0.011081410086553894  0.35538800926076425  0.2658236324213448  1.0000
  H   H8        1.0  0.9889028524343217  0.6446147971894264  0.7341813076187407  1.0000
  C   C1        1.0  0.5177739645823465  0.3496774868278365  0.17491333801487488  1.0000
  C   C2        1.0  0.4822244381940095  0.65031249412975  0.8250716411077974  1.0000
  C   C3        1.0  0.5057053514261654  0.3452437493418685  0.3441977935783953  1.0000
  C   C4        1.0  0.49431686247759643  0.6547451177761021  0.6558029031658279  1.0000
  C   C5        1.0  0.013036121087196801  0.17776864973394174  0.3472824313083294  1.0000
  C   C6        1.0  0.9869602477674847  0.8222315929652098  0.6527164954523386  1.0000
  C   C7        1.0  0.027158413467148503  0.18486497858486936  0.1800931494222056  1.0000
  C   C8        1.0  0.9728453037426237  0.8151394094662338  0.8198999356945506  1.0000
  C   C9        1.0  0.8840338129143674  0.02729656569570691  0.9526329480993211  1.0000
  C   C10       1.0  0.11595938198714609  0.9727088504070662  0.0473629547490404  1.0000
  C   C11       1.0  0.08699581415353923  0.057306306506070805  0.9723780811252709  1.0000
  C   C12       1.0  0.9129898812300965  0.9427001526354105  0.027616426815832488  1.0000
  C   C13       1.0  0.0317625093959109  0.1382260288144437  0.1302396375148049  1.0000
  C   C14       1.0  0.9682544940991139  0.8617819557642009  0.8697545752072742  1.0000
  C   C15       1.0  0.8177097389058617  0.016222479304453  0.0220260718075025  1.0000
  C   C16       1.0  0.18228192411130106  0.9837839717416234  0.9779693256951488  1.0000
  C   C17       1.0  0.021467898702844903  0.0481769243050536  0.0437952833074391  1.0000
  C   C18       1.0  0.9785267651960511  0.9518290048059868  0.9562010497601179  1.0000
  C   C19       1.0  0.0329705163956504  0.0970846493896431  0.08957796976132928  1.0000
  C   C20       1.0  0.9670257120419948  0.9029197345046642  0.91041749646822  1.0000
  C   C21       1.0  0.9894448481198738  0.8754456911838917  0.603118955250693  1.0000
  C   C22       1.0  0.010549772908049702  0.12456021698894668  0.3968825009784567  1.0000
  C   C23       1.0  0.9932429714437279  0.923153877344561  0.5631310949110429  1.0000
  C   C24       1.0  0.006751945478534102  0.07684533445899429  0.4368678924145613  1.0000
  C   C25       1.0  0.9977860072938757  0.9756533050685052  0.5197597348543965  1.0000
  C   C26       1.0  0.0022374927363984004  0.024342826627730598  0.48023035449563883  1.0000
  C   C27       1.0  0.5167153620317962  0.3960505645810671  0.12006913629313229  1.0000
  C   C28       1.0  0.4832899784348754  0.603917780739046  0.8799070720971685  1.0000
  C   C29       1.0  0.5110896223301679  0.435916771621315  0.0736822001529376  1.0000
  C   C30       1.0  0.48892515993204466  0.5640423290470125  0.9262822868218522  1.0000
  C   C31       1.0  0.5039151923134354  0.4797001134211243  0.023125971888141805  1.0000
  C   C32       1.0  0.4961237651183127  0.5202533152091675  0.9768334996994241  1.0000
  C   C33       1.0  0.5015159474186958  0.3923557679139762  0.3935927242455008  1.0000
  C   C34       1.0  0.498563273438478  0.6076252825398286  0.6064167989659595  1.0000
  C   C35       1.0  0.5009066552444779  0.43370751825237625  0.4346743253117181  1.0000
  C   C36       1.0  0.4993193307102217  0.5662636082131982  0.5653383725383492  1.0000
  C   C37       1.0  0.5003153801997088  0.47905548318923524  0.4794556312406115  1.0000
  C   C38       1.0  0.4999451262639739  0.5209135927517535  0.5205476108851883  1.0000
  N   N1        1.0  0.37326544704169623  0.9636564764556111  0.949561888157227  1.0000
  N   N2        1.0  0.6267320739537112  0.0363514916049539  0.0504399126839985  1.0000
  O   O1        1.0  0.33746944254860983  0.3268647201843181  0.3250367990393599  1.0000
  O   O2        1.0  0.662531324027988  0.6731375832339096  0.6749619961108309  1.0000
  O   O3        1.0  0.6881157963308199  0.33177395421055433  0.19600258790092792  1.0000
  O   O4        1.0  0.3118764345616682  0.6682206710832405  0.8039831392485012  1.0000
  O   O5        1.0  0.8543775321879324  0.20278449937103465  0.2000453755272957  1.0000
  O   O6        1.0  0.14561724378809524  0.7972204320348127  0.7999426242692779  1.0000
  O   O7        1.0  0.6781112462963037  0.327398139401538  0.3239154837807803  1.0000
  O   O8        1.0  0.3219111177118775  0.6725886961400463  0.6760773955187531  1.0000
  O   O9        1.0  0.8434405434926404  0.19822267341821492  0.327319262901689  1.0000
  O   O10       1.0  0.15656070321263377  0.8017698662796918  0.6726702274685508  1.0000
  O   O11       1.0  0.34697647877042925  0.3319315912866117  0.19713837382641938  1.0000
  O   O12       1.0  0.6530243238287382  0.6680717821687951  0.802851056400172  1.0000
  O   O13       1.0  0.5180202727328833  0.22428424645657696  0.2626375808038119  1.0000
  O   O14       1.0  0.4819744774371345  0.7757201461237316  0.7373560329384786  1.0000
  O   O15       1.0  0.1844114507747889  0.19788478495866002  0.3275124949688291  1.0000
  O   O16       1.0  0.8155876245428075  0.8021211066735248  0.6724921900122709  1.0000
  O   O17       1.0  0.19470112076793816  0.2027129353938264  0.2000709273809917  1.0000
  O   O18       1.0  0.8052981309892717  0.7972898850803746  0.7999278532076204  1.0000
  O   O19       1.0  0.013884867825005597  0.30602452721269924  0.2613509605406037  1.0000
  O   O20       1.0  0.9861113645100018  0.693979858585081  0.7386440399469835  1.0000
  O   O21       1.0  0.48116421792401814  0.9218933929462951  0.9799552727556886  1.0000
  O   O22       1.0  0.410761371230535  0.9881904250122987  0.8961201178314155  1.0000
  O   O23       1.0  0.5188169847255324  0.07811148529396662  0.0200481908510142  1.0000
  O   O24       1.0  0.5892687621261177  0.011822658362106601  0.10388632517658179  1.0000
