data_image0
_chemical_formula_structural       Li4H12C16O16
_chemical_formula_sum              "Li4 H12 C16 O16"
_cell_length_a       7.688897020799232
_cell_length_b       8.438108672041478
_cell_length_c       8.522569865454116
_cell_angle_alpha    90.00035847551148
_cell_angle_beta     112.7646958023075
_cell_angle_gamma    89.99977786735575

_space_group_name_H-M_alt    "P 1"
_space_group_IT_number       1

loop_
  _space_group_symop_operation_xyz
  'x, y, z'

loop_
  _atom_site_type_symbol
  _atom_site_label
  _atom_site_symmetry_multiplicity
  _atom_site_fract_x
  _atom_site_fract_y
  _atom_site_fract_z
  _atom_site_occupancy
  Li  Li1       1.0  0.3188581554678435  0.48337601077374603  0.8908641062229563  1.0000
  Li  Li2       1.0  0.18114520519502966  0.9833720396010575  0.10913807254954118  1.0000
  Li  Li3       1.0  0.6811433297783225  0.5166243356300413  0.10913648358325638  1.0000
  Li  Li4       1.0  0.8188562800511363  0.016628306802729798  0.8908625172566715  1.0000
  H   H1        1.0  0.6305441004954913  0.4394707009027243  0.4188050680006866  1.0000
  H   H2        1.0  0.8694527430362411  0.9394750082501557  0.5811975162950346  1.0000
  H   H3        1.0  0.3694494490838096  0.5605272752958754  0.5811891647338001  1.0000
  H   H4        1.0  0.1305453893220658  0.0605288934630792  0.4188043499932944  1.0000
  H   H5        1.0  0.5257243622161951  0.08354147077363189  0.37598204350076964  1.0000
  H   H6        1.0  0.9742714404433811  0.5835444800339926  0.6240147803429325  1.0000
  H   H7        1.0  0.4742726758894093  0.916454135235547  0.6240172778085552  1.0000
  H   H8        1.0  0.025733191938435637  0.41646060676681884  0.3759870792915835  1.0000
  H   H9        1.0  0.7920465034329496  0.375530980416471  0.8667452322510626  1.0000
  H   H10       1.0  0.7079532537354749  0.8755306208076236  0.13325445403506112  1.0000
  H   H11       1.0  0.20794944040895297  0.6244693659852844  0.1332515441148345  1.0000
  H   H12       1.0  0.292045425757685  0.12446735541023912  0.8667486847152759  1.0000
  C   C1        1.0  0.6951458154790158  0.2777905086011073  0.6379646102356488  1.0000
  C   C2        1.0  0.8048548594721792  0.777787713090646  0.3620332686700323  1.0000
  C   C3        1.0  0.304856081258549  0.7222086526857507  0.3620308869917891  1.0000
  C   C4        1.0  0.19514737865003431  0.22221144820792196  0.6379660473233599  1.0000
  C   C5        1.0  0.6195198149717454  0.3168687176898004  0.4543172494923269  1.0000
  C   C6        1.0  0.8804755940301447  0.8168632734926077  0.5456808480592912  1.0000
  C   C7        1.0  0.38047332310615894  0.6831422946226624  0.5456820758532787  1.0000
  C   C8        1.0  0.11952349695241786  0.18313588780770831  0.45431719811873705  1.0000
  C   C9        1.0  0.5375172138023243  0.20491093853414094  0.3372724717702695  1.0000
  C   C10       1.0  0.9624798898421004  0.7049059463659331  0.6627224669870629  1.0000
  C   C11       1.0  0.4624794829136361  0.7950905929617917  0.6627230307892801  1.0000
  C   C12       1.0  0.037525289674569286  0.2950932149395129  0.3372806651094535  1.0000
  C   C13       1.0  0.45209092838489073  0.23745451736545684  0.15091082778324247  1.0000
  C   C14       1.0  0.0478995057584156  0.7374499029658992  0.849086203052792  1.0000
  C   C15       1.0  0.5479105568602733  0.7625470141380217  0.8490897620262032  1.0000
  C   C16       1.0  0.9520927438129829  0.2625516285342044  0.15090803102280154  1.0000
  O   O1        1.0  0.7070170668997234  0.13903444544433086  0.6909664900362812  1.0000
  O   O2        1.0  0.7929825421531402  0.6390313512446184  0.30903063273209597  1.0000
  O   O3        1.0  0.2929883183601519  0.8609670860518789  0.30903409577894086  1.0000
  O   O4        1.0  0.2070291373870461  0.36096899514840425  0.690972492710607  1.0000
  O   O5        1.0  0.7466278652574517  0.40353336660206907  0.7372117788461098  1.0000
  O   O6        1.0  0.7533725975434249  0.9035301206283534  0.26278678648727544  1.0000
  O   O7        1.0  0.25337067859125983  0.5964705350939283  0.26278499486667783  1.0000
  O   O8        1.0  0.24662519343922892  0.09646311517592207  0.7372112610059885  1.0000
  O   O9        1.0  0.47984476788513314  0.3693914293724703  0.0936418591262935  1.0000
  O   O10       1.0  0.02015324368201022  0.8693920290766426  0.9063558839777386  1.0000
  O   O11       1.0  0.5201509702135709  0.6306065468385215  0.9063574635209122  1.0000
  O   O12       1.0  0.9798476243305602  0.1306059471536045  0.09365234468531719  1.0000
  O   O13       1.0  0.3502904438557835  0.12616643320988166  0.0576246774666984  1.0000
  O   O14       1.0  0.14970093092630066  0.6261608583985065  0.9423704720366501  1.0000
  O   O15       1.0  0.6497094000018322  0.8738327280849204  0.9423720949017422  1.0000
  O   O16       1.0  0.8502977485738582  0.37382882212150287  0.0576326666910418  1.0000
