data_image0
_chemical_formula_structural       Cd2H22C18N12Cl2O2
_chemical_formula_sum              "Cd2 H22 C18 N12 Cl2 O2"
_cell_length_a       6.9487569466515975
_cell_length_b       9.664526932018722
_cell_length_c       10.386191844725506
_cell_angle_alpha    79.29005411879811
_cell_angle_beta     86.54265478925095
_cell_angle_gamma    75.42844397623311

_space_group_name_H-M_alt    "P 1"
_space_group_IT_number       1

loop_
  _space_group_symop_operation_xyz
  'x, y, z'

loop_
  _atom_site_type_symbol
  _atom_site_label
  _atom_site_symmetry_multiplicity
  _atom_site_fract_x
  _atom_site_fract_y
  _atom_site_fract_z
  _atom_site_occupancy
  Cd  Cd1       1.0  0.7310979459782633  0.5174601724156599  0.6412639145095371  1.0000
  Cd  Cd2       1.0  0.2689023761430178  0.4825387609249389  0.358735702365486  1.0000
  H   H1        1.0  0.13250119012971612  0.7255642585941331  0.9585514251040196  1.0000
  H   H2        1.0  0.8674969588835851  0.2744368475717849  0.04144694323959901  1.0000
  H   H3        1.0  0.8760154827761045  0.7726970985425651  0.13239446439599334  1.0000
  H   H4        1.0  0.1239851848473066  0.22730509400017246  0.8676045775369658  1.0000
  H   H5        1.0  0.5413143913220752  0.7154363077522558  0.11046689543436376  1.0000
  H   H6        1.0  0.4586855673133243  0.28456370954406646  0.8895344752831633  1.0000
  H   H7        1.0  0.4906392377712052  0.6137400134075789  0.9138725031980427  1.0000
  H   H8        1.0  0.5093632376240437  0.3862610924926243  0.08612761516592123  1.0000
  H   H9        1.0  0.4990185219751667  0.7800278449709023  0.3985938625918167  1.0000
  H   H10       1.0  0.5009821654822487  0.21997000218691196  0.6014059263836061  1.0000
  H   H11       1.0  0.8495545368230142  0.9545376594533576  0.5002939510042452  1.0000
  H   H12       1.0  0.15044361589080785  0.04546344225844479  0.49970826922518097  1.0000
  H   H13       1.0  0.7398683070962664  0.12229160105452759  0.3945840542494068  1.0000
  H   H14       1.0  0.26012876759287473  0.8777084160477595  0.6054164707783656  1.0000
  H   H15       1.0  0.9325538134350283  0.987518615200976  0.33367997932153065  1.0000
  H   H16       1.0  0.06744326217923911  0.012481400787784496  0.6663215086776972  1.0000
  H   H17       1.0  0.4443093805908874  0.9424668863228544  0.2250628279029386  1.0000
  H   H18       1.0  0.5556880603595218  0.05753204348312121  0.774938832196696  1.0000
  H   H19       1.0  0.6524849683753117  0.012949158507254298  0.1595523391705669  1.0000
  H   H20       1.0  0.34751354874952517  0.9870508581352906  0.8404490901878106  1.0000
  H   H21       1.0  0.46246077324349955  0.11668585196775882  0.2512834323366633  1.0000
  H   H22       1.0  0.537537744806464  0.883314163561252  0.7487189599931697  1.0000
  C   C1        1.0  0.09794900409403344  0.6049019085387711  0.7469850292305864  1.0000
  C   C2        1.0  0.9020520279403929  0.39509919893471585  0.253013221831317  1.0000
  C   C3        1.0  0.947466268964398  0.6423636173810862  0.8474555864562917  1.0000
  C   C4        1.0  0.052533685045340055  0.3576364054828927  0.1525409694039581  1.0000
  C   C5        1.0  0.9880130505350098  0.7028174655019369  0.9520783445453987  1.0000
  C   C6        1.0  0.011988697888483623  0.29718580830971314  0.047925281503580726  1.0000
  C   C7        1.0  0.8423697717128747  0.7300443591871895  0.04855418670787515  1.0000
  C   C8        1.0  0.15763054763300496  0.26995457749399776  0.9514425412527815  1.0000
  C   C9        1.0  0.6604283813523965  0.6972059505160357  0.03744932132930506  1.0000
  C   C10       1.0  0.3395755364785487  0.3027951549244249  0.9625517013652568  1.0000
  C   C11       1.0  0.6311770580965972  0.6385092995368706  0.9294201264919907  1.0000
  C   C12       1.0  0.36882722229510284  0.36149072306139357  0.07057817938861184  1.0000
  C   C13       1.0  0.6119604084114344  0.82198386310921  0.439379461486226  1.0000
  C   C14       1.0  0.3880377406018667  0.1780172430567077  0.5606189068573855  1.0000
  C   C15       1.0  0.8029231572000413  0.005292884672961397  0.4003197985559552  1.0000
  C   C16       1.0  0.19707355307809146  0.9947082174985835  0.5996815173428731  1.0000
  C   C17       1.0  0.5470277840039516  0.006442385387316597  0.2424694111979164  1.0000
  C   C18       1.0  0.4529725399675827  0.9935565457262212  0.7575321316200174  1.0000
  N   N1        1.0  0.0691361201949121  0.5447288676560689  0.6450408164513419  1.0000
  N   N2        1.0  0.9308627594906727  0.4552700661442799  0.3549578960930759  1.0000
  N   N3        1.0  0.24195245487830877  0.5230573839758107  0.579851392488493  1.0000
  N   N4        1.0  0.758048596990122  0.4769393781127532  0.42014760561587394  1.0000
  N   N5        1.0  0.37115982744661846  0.5687875839054043  0.6405475309170257  1.0000
  N   N6        1.0  0.6288404946746555  0.4312113494351947  0.3594520859579902  1.0000
  N   N7        1.0  0.28489730491349974  0.6205739817209375  0.7457786426186318  1.0000
  N   N8        1.0  0.7151008431746676  0.3794271255585143  0.2542187627535242  1.0000
  N   N9        1.0  0.770719910100766  0.6112903386143597  0.836155665623501  1.0000
  N   N10       1.0  0.2292807593729123  0.3887118517013234  0.16384530225236202  1.0000
  N   N11       1.0  0.6537822184203818  0.9385973131330233  0.3631878306378482  1.0000
  N   N12       1.0  0.3462166640405898  0.061401617326737275  0.636813770820929  1.0000
  Cl  Cl1       1.0  0.778770581874092  0.2549311151771292  0.746313228190033  1.0000
  Cl  Cl2       1.0  0.22122793340047772  0.7450689036924697  0.25368627522544074  1.0000
  O   O1        1.0  0.6914947437749107  0.7649605121156493  0.5483586775544256  1.0000
  O   O2        1.0  0.3085059446076314  0.23503733392863776  0.4516420743924456  1.0000
