data_image0
_chemical_formula_structural       Cu2H22C34N16
_chemical_formula_sum              "Cu2 H22 C34 N16"
_cell_length_a       7.729079788962449
_cell_length_b       10.752138928894942
_cell_length_c       11.550502093740658
_cell_angle_alpha    61.81702034312655
_cell_angle_beta     78.42366956800963
_cell_angle_gamma    85.88157742375873

_space_group_name_H-M_alt    "P 1"
_space_group_IT_number       1

loop_
  _space_group_symop_operation_xyz
  'x, y, z'

loop_
  _atom_site_type_symbol
  _atom_site_label
  _atom_site_symmetry_multiplicity
  _atom_site_fract_x
  _atom_site_fract_y
  _atom_site_fract_z
  _atom_site_occupancy
  Cu  Cu1       1.0  0.6021295073156098  0.9764974216093024  0.7216403815203022  1.0000
  Cu  Cu2       1.0  0.39789743615705225  0.0234871328067356  0.2783770458622641  1.0000
  H   H1        1.0  0.8751685912771808  0.07735616802442992  0.4551668190448481  1.0000
  H   H2        1.0  0.12483283640018783  0.9226551197168575  0.5448235566337444  1.0000
  H   H3        1.0  0.03629156304927511  0.3073177401490881  0.29273543556187315  1.0000
  H   H4        1.0  0.9636796685008377  0.6926990202111726  0.707252434361422  1.0000
  H   H5        1.0  0.9696919646467634  0.5175125360665547  0.3351675020347996  1.0000
  H   H6        1.0  0.030268601588453205  0.48250328962801353  0.6648161890848313  1.0000
  H   H7        1.0  0.7684157209432031  0.48113780045849813  0.547902220089945  1.0000
  H   H8        1.0  0.23155247238351256  0.5188683778879907  0.4520941025099958  1.0000
  H   H9        1.0  0.8480465132508501  0.29804599759047085  0.8487526034428116  1.0000
  H   H10       1.0  0.1519405822289102  0.7019301720782851  0.15128522312092932  1.0000
  H   H11       1.0  0.8241472825912554  0.4936873318326036  0.9089063664109958  1.0000
  H   H12       1.0  0.17582031991530303  0.5062996275626476  0.09111738292608602  1.0000
  H   H13       1.0  0.5658038732983715  0.6500620818529583  0.8692716244570416  1.0000
  H   H14       1.0  0.4341839475559937  0.34994200136554093  0.13071335774959178  1.0000
  H   H15       1.0  0.3195236850268231  0.5996953806732463  0.7865653492687414  1.0000
  H   H16       1.0  0.680498464550276  0.4003151823791883  0.2133852364128471  1.0000
  H   H17       1.0  0.3363739766257083  0.39658421375260394  0.7369148816897777  1.0000
  H   H18       1.0  0.6636588119847462  0.6034262084365382  0.26304208238420296  1.0000
  H   H19       1.0  0.3260381649306581  0.9952989566346772  0.9567890480089074  1.0000
  H   H20       1.0  0.6740361285317461  0.004676736192507703  0.04324209172400368  1.0000
  H   H21       1.0  0.4042108819973366  0.139852727172304  0.9689037953500517  1.0000
  H   H22       1.0  0.5958567851966875  0.8601241329886948  0.031120832427625086  1.0000
  C   C1        1.0  0.8591713096399051  0.16901467563799605  0.4724819221226609  1.0000
  C   C2        1.0  0.14082350017995543  0.830997769396369  0.5275028105907038  1.0000
  C   C3        1.0  0.9448294821054761  0.2983694660143287  0.3813538655925868  1.0000
  C   C4        1.0  0.05514680823385022  0.7016431075520873  0.618629915566693  1.0000
  C   C5        1.0  0.9106371491765943  0.4134995123017547  0.40598018433695415  1.0000
  C   C6        1.0  0.08932714597111872  0.586511037300589  0.5940035359021323  1.0000
  C   C7        1.0  0.7983533776440411  0.39438281851169427  0.5240572499972059  1.0000
  C   C8        1.0  0.2016199522676204  0.6056212939766824  0.47593319163127024  1.0000
  C   C9        1.0  0.7241528766865032  0.26061064704266806  0.6134580491043948  1.0000
  C   C10       1.0  0.2758439610611419  0.7393859134921429  0.3865367230703781  1.0000
  C   C11       1.0  0.614585213962158  0.22652984587026742  0.7449217659507141  1.0000
  C   C12       1.0  0.3854379606414185  0.7734622461441063  0.2550816742448346  1.0000
  C   C13       1.0  0.5938915653335785  0.3370119644174565  0.788580776651216  1.0000
  C   C14       1.0  0.4061197265665371  0.6629812900568199  0.21141947981796244  1.0000
  C   C15       1.0  0.731781187064037  0.36371002455061335  0.8370014331315047  1.0000
  C   C16       1.0  0.2682036754801018  0.6362789536418846  0.16301991788691336  1.0000
  C   C17       1.0  0.7192811199497839  0.4753211235797893  0.8676525653058531  1.0000
  C   C18       1.0  0.28070398439243155  0.5246742073791636  0.13236427808023166  1.0000
  C   C19       1.0  0.5727030783171686  0.561528771629142  0.8476425074772179  1.0000
  C   C20       1.0  0.4272857601820733  0.43846681149360495  0.15235033223450492  1.0000
  C   C21       1.0  0.43486457123108124  0.5333537350118149  0.8009381118434502  1.0000
  C   C22       1.0  0.5651366808667078  0.4666588692362482  0.19902920848620917  1.0000
  C   C23       1.0  0.4438038513390766  0.4204462063979977  0.7723645167883147  1.0000
  C   C24       1.0  0.5562064859879499  0.5795599004916524  0.2276147388707912  1.0000
  C   C25       1.0  0.4448972032737758  0.05101856527425501  0.9487522093568187  1.0000
  C   C26       1.0  0.5551679587093687  0.9489592525102423  0.0512818763316504  1.0000
  C   C27       1.0  0.23171047145354615  0.8258692439319334  0.8444597505073758  1.0000
  C   C28       1.0  0.7682970442351477  0.17412380858225873  0.15556016468612197  1.0000
  C   C29       1.0  0.9309302503752052  0.8128137807014256  0.8606381785274094  1.0000
  C   C30       1.0  0.06907824931484191  0.18717081187998733  0.13938611821113508  1.0000
  C   C31       1.0  0.6601438543693876  0.8374759042961986  0.5322060154447567  1.0000
  C   C32       1.0  0.3398486552474438  0.16254057433746993  0.46779461126332217  1.0000
  C   C33       1.0  0.786049751823555  0.77652450551183  0.366492187199263  1.0000
  C   C34       1.0  0.21388775233267418  0.22350719522738424  0.6334939083844233  1.0000
  N   N1        1.0  0.7510380332058589  0.1511307298201388  0.5853795036840523  1.0000
  N   N2        1.0  0.2489655180656953  0.8488678799270489  0.4146160506697569  1.0000
  N   N3        1.0  0.5472678067104938  0.09982280442365271  0.8141569945862343  1.0000
  N   N4        1.0  0.45278279177874486  0.9001584499510145  0.18586030993772337  1.0000
  N   N5        1.0  0.37561061627022957  0.8737179115261141  0.8160353178201164  1.0000
  N   N6        1.0  0.6243970308261879  0.12628051863297426  0.1839735994296988  1.0000
  N   N7        1.0  0.08252076882480001  0.7583705030819772  0.8853982287890715  1.0000
  N   N8        1.0  0.9174868824868769  0.24162349443155756  0.11463078368579718  1.0000
  N   N9        1.0  0.78629359656464  0.8479020875791646  0.8434681811192705  1.0000
  N   N10       1.0  0.21371329990490306  0.1520773144027814  0.1565516520575159  1.0000
  N   N11       1.0  0.6428582969043504  0.8951129841007204  0.598812578705413  1.0000
  N   N12       1.0  0.35716642625882145  0.10487993615275572  0.4012093373468914  1.0000
  N   N13       1.0  0.664084294215755  0.7689959716351211  0.46597509090019423  1.0000
  N   N14       1.0  0.3358730088324436  0.23103675011487473  0.5340026244140644  1.0000
  N   N15       1.0  0.8858379767094533  0.7721174230818377  0.27649762171474634  1.0000
  N   N16       1.0  0.11410708618269894  0.22791246023439277  0.7234596385278421  1.0000
