data_image0
_chemical_formula_structural       Zn2H32C28N4O12
_chemical_formula_sum              "Zn2 H32 C28 N4 O12"
_cell_length_a       8.630947508001684
_cell_length_b       9.16466885478031
_cell_length_c       9.495025054247611
_cell_angle_alpha    107.00416775125757
_cell_angle_beta     90.0000104051224
_cell_angle_gamma    90.00006440100286

_space_group_name_H-M_alt    "P 1"
_space_group_IT_number       1

loop_
  _space_group_symop_operation_xyz
  'x, y, z'

loop_
  _atom_site_type_symbol
  _atom_site_label
  _atom_site_symmetry_multiplicity
  _atom_site_fract_x
  _atom_site_fract_y
  _atom_site_fract_z
  _atom_site_occupancy
  Zn  Zn1       1.0  0.4999998624709364  0.49999882270910934  0.99999989271344  1.0000
  Zn  Zn2       1.0  4.9068162900000014e-08  8.002172649023641e-07  0.5000007540156519  1.0000
  H   H1        1.0  0.3488773736279144  0.31627179602259053  0.7966612203880957  1.0000
  H   H2        1.0  0.8488768506803769  0.1837264052235312  0.7033380665977803  1.0000
  H   H3        1.0  0.6511224494493534  0.6837262850901669  0.2033376490225934  1.0000
  H   H4        1.0  0.15112297239841876  0.8162739697093856  0.2966624814644662  1.0000
  H   H5        1.0  0.5194924601666032  0.301830663862944  0.7141689816960197  1.0000
  H   H6        1.0  0.019491681862199104  0.19816828939826786  0.785831504382614  1.0000
  H   H7        1.0  0.4805085215320091  0.6981674172505166  0.285829887714968  1.0000
  H   H8        1.0  0.9805081412173069  0.8018332265014365  0.2141693547648417  1.0000
  H   H9        1.0  0.5267143404832028  0.6238037050818476  0.7341359114186262  1.0000
  H   H10       1.0  0.026712611432394312  0.8761956930481744  0.765862928334272  1.0000
  H   H11       1.0  0.47328779983675445  0.3761943760323234  0.26586295799265264  1.0000
  H   H12       1.0  0.9732860530256606  0.12380581096422112  0.23413687433173896  1.0000
  H   H13       1.0  0.3235941598670707  0.7959255130320813  0.14336066939011272  1.0000
  H   H14       1.0  0.8235960084559156  0.7040726578339901  0.3566378706614232  1.0000
  H   H15       1.0  0.6764079804545206  0.2040748737888549  0.8566409351538838  1.0000
  H   H16       1.0  0.1764049732442318  0.2959277170996373  0.6433626774011217  1.0000
  H   H17       1.0  0.5373715279427316  0.9576878867752753  0.6295133836996172  1.0000
  H   H18       1.0  0.03736942221437541  0.54231268906355  0.8704878855516186  1.0000
  H   H19       1.0  0.46263061237946373  0.042313629125843  0.37048747544842814  1.0000
  H   H20       1.0  0.9626292422422583  0.4576865330152842  0.12951129494398123  1.0000
  H   H21       1.0  0.5341272615853968  0.756998420727264  0.5559686230098464  1.0000
  H   H22       1.0  0.03412540904690792  0.743003268357242  0.944030842704983  1.0000
  H   H23       1.0  0.4658737201154537  0.24300309517314395  0.44403223613790044  1.0000
  H   H24       1.0  0.9658732554096123  0.25699594183498686  0.05596728130946364  1.0000
  H   H25       1.0  0.23089587948894066  0.028265183058181306  0.08331654990131912  1.0000
  H   H26       1.0  0.7308968996697518  0.4717335561128309  0.4166817908790038  1.0000
  H   H27       1.0  0.7691051022104889  0.9717340509086653  0.9166836870760237  1.0000
  H   H28       1.0  0.2691040820302818  0.5282668069341907  0.5833177007023949  1.0000
  H   H29       1.0  0.29606958167406827  0.06030674695907828  0.8365166250748004  1.0000
  H   H30       1.0  0.7960670381773342  0.43969367195602876  0.6634832570708868  1.0000
  H   H31       1.0  0.7039314000260718  0.9396936279745488  0.16348392298774433  1.0000
  H   H32       1.0  0.20393162628071343  0.5603078320563669  0.3365165455951243  1.0000
  C   C1        1.0  0.3277328383575124  0.8737593614045381  0.5178641714276753  1.0000
  C   C2        1.0  0.8277311431200193  0.6262438378306712  0.9821368120266954  1.0000
  C   C3        1.0  0.6722681433425209  0.12624100164248384  0.48213532015371646  1.0000
  C   C4        1.0  0.17226867995937317  0.3737576661824207  0.01786299063960683  1.0000
  C   C5        1.0  0.464168610763416  0.8557469724399167  0.6150594731961975  1.0000
  C   C6        1.0  0.9641680764984604  0.6442541346683371  0.8849430708344246  1.0000
  C   C7        1.0  0.5358323709374346  0.14425454346049094  0.3849413859515494  1.0000
  C   C8        1.0  0.035831746579745506  0.3557451111844117  0.11505822262377313  1.0000
  C   C9        1.0  0.4180809789212035  0.8445069323703648  0.7644197965697828  1.0000
  C   C10       1.0  0.91808158733204  0.6554906600930365  0.7355786211891984  1.0000
  C   C11       1.0  0.5819200027789365  0.15549344256326236  0.23558075149276192  1.0000
  C   C12       1.0  0.08191939436668601  0.3445074329070295  0.2644213047029354  1.0000
  C   C13       1.0  0.46176209084088543  0.717361134046918  0.8079101770280277  1.0000
  C   C14       1.0  0.9617628419771197  0.7826353824932184  0.6920890084689193  1.0000
  C   C15       1.0  0.5382388908571301  0.28263581798636755  0.19208943777890408  1.0000
  C   C16       1.0  0.03823698110096531  0.2173638514729248  0.3079112285081251  1.0000
  C   C17       1.0  0.3474177311811034  0.8122599331610445  0.036635271312256634  1.0000
  C   C18       1.0  0.8474184226644683  0.6877405486294778  0.46336390309465275  1.0000
  C   C19       1.0  0.6525820918969815  0.1877393008050987  0.9633649656647877  1.0000
  C   C20       1.0  0.15258140041503765  0.3122609672702198  0.5366369560528029  1.0000
  C   C21       1.0  0.2968671557682045  0.9420394829779186  0.00218884825468297  1.0000
  C   C22       1.0  0.7968653823747335  0.5579609610678417  0.49781241325833053  1.0000
  C   C23       1.0  0.7031315086884294  0.057959739100908785  0.9978103322409169  1.0000
  C   C24       1.0  0.20313212346208337  0.4420405548304487  0.5021884458885354  1.0000
  C   C25       1.0  0.3336210370898841  0.9594228984660308  0.8654193191411182  1.0000
  C   C26       1.0  0.8336214889666069  0.5405768850356694  0.6345807340698784  1.0000
  C   C27       1.0  0.6663787859872702  0.040575170760121196  0.1345784937884176  1.0000
  C   C28       1.0  0.166379492732709  0.45942233704457175  0.3654184464263111  1.0000
  N   N1        1.0  0.42834861358248605  0.7015497015977417  0.9412029120081729  1.0000
  N   N2        1.0  0.9283493573682976  0.7984479033607246  0.5587955110025222  1.0000
  N   N3        1.0  0.5716535267382881  0.29844953236980837  0.05879732496946131  1.0000
  N   N4        1.0  0.07165046570907663  0.2015501896386382  0.4412044148893132  1.0000
  O   O1        1.0  0.2258877691559747  0.9718264163463746  0.5772463261265274  1.0000
  O   O2        1.0  0.7258859455951809  0.5281755298703317  0.922755350632123  1.0000
  O   O3        1.0  0.7741132125434548  0.0281728176204723  0.4227539108508153  1.0000
  O   O4        1.0  0.27411387748290394  0.47182370409581154  0.07724488634492134  1.0000
  O   O5        1.0  0.4423538161621823  0.37158795405817097  0.7786619856574363  1.0000
  O   O6        1.0  0.9423543895614872  0.12841151379623034  0.7213387167063346  1.0000
  O   O7        1.0  0.5576448482943448  0.6284112561340577  0.22133613835701743  1.0000
  O   O8        1.0  0.05764543351752852  0.8715888849099046  0.27866394431821123  1.0000
  O   O9        1.0  0.3268892999948748  0.7916632386185827  0.3834516658330431  1.0000
  O   O10       1.0  0.8268899479125482  0.708338371043652  0.11654886564034686  1.0000
  O   O11       1.0  0.6731105230838141  0.2083371244277359  0.6165478257480573  1.0000
  O   O12       1.0  0.17311103378676762  0.2916608510365889  0.8834503148558427  1.0000
