data_image0
_chemical_formula_structural       Ag4H64C52S4N12O12
_chemical_formula_sum              "Ag4 H64 C52 S4 N12 O12"
_cell_length_a       7.945564067544648
_cell_length_b       12.495547266141426
_cell_length_c       14.225123323883288
_cell_angle_alpha    89.99970151646441
_cell_angle_beta     89.99875283974114
_cell_angle_gamma    90.00046844274935

_space_group_name_H-M_alt    "P 1"
_space_group_IT_number       1

loop_
  _space_group_symop_operation_xyz
  'x, y, z'

loop_
  _atom_site_type_symbol
  _atom_site_label
  _atom_site_symmetry_multiplicity
  _atom_site_fract_x
  _atom_site_fract_y
  _atom_site_fract_z
  _atom_site_occupancy
  Ag  Ag1       1.0  0.284749879008679  0.6794661188070067  0.490823402732353  1.0000
  Ag  Ag2       1.0  0.7152519963578073  0.17946429516168647  0.5091795620036307  1.0000
  Ag  Ag3       1.0  0.784735673142201  0.17946038038368778  0.0091750363169325  1.0000
  Ag  Ag4       1.0  0.21527878791113153  0.6794668324886571  0.9908244134413522  1.0000
  H   H1        1.0  0.44694246813440236  0.9913567525550845  0.2570592351741254  1.0000
  H   H2        1.0  0.5530117343259277  0.49134946190442724  0.7429437280466402  1.0000
  H   H3        1.0  0.9469506643091067  0.4913584120448816  0.2429358136610773  1.0000
  H   H4        1.0  0.0530035383328524  0.9913550050014448  0.7570601197273915  1.0000
  H   H5        1.0  0.7610545302290818  0.722357176862438  0.18580722236856664  1.0000
  H   H6        1.0  0.23893655825531818  0.22232378305541536  0.8141864101461849  1.0000
  H   H7        1.0  0.2610529245776974  0.22236055713349145  0.31419482749239347  1.0000
  H   H8        1.0  0.7389608178007663  0.7223252045105395  0.6858135674867539  1.0000
  H   H9        1.0  0.6311688044563939  0.826225411680646  0.059534711185826  1.0000
  H   H10       1.0  0.36880723098988716  0.3262287608812143  0.9404668882867355  1.0000
  H   H11       1.0  0.13116104514947582  0.3262296334110174  0.4404663483673161  1.0000
  H   H12       1.0  0.868808697431824  0.8262389442443947  0.559542280927225  1.0000
  H   H13       1.0  0.6681784244623474  0.9616992808982157  0.0885708344021907  1.0000
  H   H14       1.0  0.3317905077674581  0.4616890035294431  0.9114034403546184  1.0000
  H   H15       1.0  0.16818689371631731  0.46170367725110134  0.411421428442182  1.0000
  H   H16       1.0  0.8318109846909252  0.9617038139536048  0.5885999458618157  1.0000
  H   H17       1.0  0.4599638745231475  0.911275976373986  0.08547488363004162  1.0000
  H   H18       1.0  0.540000646678301  0.41127958948654  0.9145171932583479  1.0000
  H   H19       1.0  0.9599603845930249  0.4112894088641852  0.414532318253741  1.0000
  H   H20       1.0  0.040011687656516415  0.9112821626502877  0.5854822539636898  1.0000
  H   H21       1.0  0.8701103363329495  0.6539835943734998  0.4240028877505253  1.0000
  H   H22       1.0  0.12988995919922536  0.15394225079788978  0.5760037070128945  1.0000
  H   H23       1.0  0.37011041324725374  0.15398840657839938  0.0760002468063092  1.0000
  H   H24       1.0  0.6298999510483869  0.6539342375216534  0.9239922882707461  1.0000
  H   H25       1.0  0.8847193522444597  0.6197469999860202  0.3033290537300246  1.0000
  H   H26       1.0  0.11529687349806748  0.11973526432759479  0.6966826162743159  1.0000
  H   H27       1.0  0.3847172682808663  0.11975428789343567  0.1966712448940413  1.0000
  H   H28       1.0  0.6153291634955735  0.6197295771465292  0.8033151175843827  1.0000
  H   H29       1.0  0.7152583606948469  0.5710225848079987  0.37298161649913897  1.0000
  H   H30       1.0  0.284752216986803  0.07101136655766278  0.6270366003005776  1.0000
  H   H31       1.0  0.21526275248411517  0.0710302914371894  0.1270244880310756  1.0000
  H   H32       1.0  0.7847729971302757  0.571012463224058  0.8729627974044121  1.0000
  H   H33       1.0  0.39821546672853003  0.5339078642571166  0.3260293874464466  1.0000
  H   H34       1.0  0.60177702406979  0.033913251115670597  0.6739700164479103  1.0000
  H   H35       1.0  0.8981873210287363  0.0339131393898384  0.1739725398108689  1.0000
  H   H36       1.0  0.10180516979515632  0.5339271828099964  0.8260317849113576  1.0000
  H   H37       1.0  0.1194023940697591  0.8143221911063635  0.3335783718596517  1.0000
  H   H38       1.0  0.8806112483759423  0.31432189996252186  0.6664218751557272  1.0000
  H   H39       1.0  0.6193984537562471  0.3143339139630257  0.1664242911502569  1.0000
  H   H40       1.0  0.38061644746501605  0.8143437890824144  0.8335759557815691  1.0000
  H   H41       1.0  0.11933414044751343  0.8203976893609376  0.15578165743501418  1.0000
  H   H42       1.0  0.8806909055552907  0.3203955294807912  0.8442199680550999  1.0000
  H   H43       1.0  0.6193157561618037  0.3204067427613352  0.3442237910067689  1.0000
  H   H44       1.0  0.380701738695116  0.8204176871846869  0.6557757255142391  1.0000
  H   H45       1.0  0.3809278148999624  0.5138286629952517  0.0607249843208635  1.0000
  H   H46       1.0  0.6190795257900561  0.013826944721472499  0.9392709952223441  1.0000
  H   H47       1.0  0.8809208485572528  0.013826741316151499  0.4392681059794795  1.0000
  H   H48       1.0  0.11907516534262191  0.5138632786393841  0.5607243586472563  1.0000
  H   H49       1.0  0.3984268946928111  0.43461217929876006  0.1644626453940745  1.0000
  H   H50       1.0  0.6015844870661696  0.9346144117454003  0.8355405735840051  1.0000
  H   H51       1.0  0.8984075934509975  0.934626305451992  0.3355227079307497  1.0000
  H   H52       1.0  0.10156854925008223  0.4346362984053228  0.6644545008620781  1.0000
  H   H53       1.0  0.5597948351418224  0.5282724609163978  0.134446945384525  1.0000
  H   H54       1.0  0.4402152044421754  0.028261433779320593  0.8655538898393899  1.0000
  H   H55       1.0  0.05980130703377991  0.028261927631980696  0.3655464895593212  1.0000
  H   H56       1.0  0.9402049571066303  0.5282983764739199  0.6344501277384396  1.0000
  H   H57       1.0  0.6509022939833785  0.6917842162771207  0.5112434559752685  1.0000
  H   H58       1.0  0.34909470238770984  0.19177657150226673  0.4887517204057801  1.0000
  H   H59       1.0  0.15090273109904467  0.1917841462987582  0.9887570326049655  1.0000
  H   H60       1.0  0.8491106264022934  0.691768638650025  0.011245876491798899  1.0000
  H   H61       1.0  0.5768775809954363  0.816670822100512  0.5394788825751391  1.0000
  H   H62       1.0  0.423120988303701  0.31666373977461854  0.46051713605702815  1.0000
  H   H63       1.0  0.0768753369046564  0.31666932127075137  0.9605261649251702  1.0000
  H   H64       1.0  0.9231181978346755  0.8166580379851921  0.0394832104044767  1.0000
  C   C1        1.0  0.5195197574740433  0.8893338632056852  0.369992313493853  1.0000
  C   C2        1.0  0.4804759513732222  0.3893340691300438  0.6300033771598663  1.0000
  C   C3        1.0  0.019511447688401504  0.38933194841118984  0.1300133406791417  1.0000
  C   C4        1.0  0.9804767096529047  0.889335983885495  0.8699886768551506  1.0000
  C   C5        1.0  0.5190611393821599  0.920616487467086  0.2761329539569246  1.0000
  C   C6        1.0  0.48092237778323016  0.4206089289836611  0.7238625955883009  1.0000
  C   C7        1.0  0.019049191208615902  0.4206228115771253  0.223865534808283  1.0000
  C   C8        1.0  0.9809292916687442  0.9206234122468967  0.7761384504999924  1.0000
  C   C9        1.0  0.6025715885850501  0.8608636309004678  0.2072136680688743  1.0000
  C   C10       1.0  0.39743005437402706  0.3608528142562973  0.7927849630060777  1.0000
  C   C11       1.0  0.10254564162545421  0.3608751426551605  0.2927847728140875  1.0000
  C   C12       1.0  0.8974484500171231  0.8608757147166269  0.7072215910269861  1.0000
  C   C13       1.0  0.6934853202643582  0.7710501884776592  0.2372531250717529  1.0000
  C   C14       1.0  0.3065126744692392  0.27103026699124644  0.7627374756581274  1.0000
  C   C15       1.0  0.1934743820496365  0.27105467830168806  0.262741798074714  1.0000
  C   C16       1.0  0.8065336809516596  0.7710433834106707  0.7372670800755898  1.0000
  C   C17       1.0  0.6976957014440189  0.7379413229472432  0.3313374199167071  1.0000
  C   C18       1.0  0.3023018763334946  0.23791874358848727  0.6686498153573267  1.0000
  C   C19       1.0  0.19769092760839868  0.23794077638508068  0.16865830417042818  1.0000
  C   C20       1.0  0.802315459578381  0.737916088953412  0.8313556443579271  1.0000
  C   C21       1.0  0.6042627452402556  0.7954989750301775  0.3989921074900025  1.0000
  C   C22       1.0  0.39573429895916956  0.2954965048818252  0.6009990858333082  1.0000
  C   C23       1.0  0.1042505255145869  0.29550043571263973  0.1010094196259885  1.0000
  C   C24       1.0  0.8957452597459509  0.7954982452750556  0.8990021601642866  1.0000
  C   C25       1.0  0.589752764889461  0.8915924489565085  0.10541842599445769  1.0000
  C   C26       1.0  0.4102240938286458  0.3915890911460664  0.894582175459135  1.0000
  C   C27       1.0  0.08974552581850051  0.39160014766796536  0.39458073573214136  1.0000
  C   C28       1.0  0.9102363671857675  0.8916013995600877  0.6054247865167497  1.0000
  C   C29       1.0  0.7964830006913246  0.6407444772458671  0.359396546292075  1.0000
  C   C30       1.0  0.2035133525780211  0.14071594044897745  0.6406051873527758  1.0000
  C   C31       1.0  0.2964856073538868  0.14074569994068037  0.14060332998064948  1.0000
  C   C32       1.0  0.7035233315750488  0.6407115166535817  0.8593962946497058  1.0000
  C   C33       1.0  0.3332973734727035  0.5967101803157674  0.28714562099703755  1.0000
  C   C34       1.0  0.6667009425659032  0.09671567783190228  0.7128542023719859  1.0000
  C   C35       1.0  0.8333017017006769  0.09671922321611251  0.2128533010873852  1.0000
  C   C36       1.0  0.166712975808089  0.5967266421039809  0.7871458191549008  1.0000
  C   C37       1.0  0.1782922814569972  0.7520450895948798  0.2914428412054448  1.0000
  C   C38       1.0  0.8217168009689575  0.25204263216119216  0.708554172035086  1.0000
  C   C39       1.0  0.6782955176767941  0.2520549586047948  0.20855797716410507  1.0000
  C   C40       1.0  0.32172740903946817  0.7520639742890795  0.7914446597742142  1.0000
  C   C41       1.0  0.17854841539595867  0.7548479811381764  0.1941220601609075  1.0000
  C   C42       1.0  0.8214707707854317  0.2548449373122637  0.8058777522941938  1.0000
  C   C43       1.0  0.6785491374025625  0.25485806537263755  0.3058794454233009  1.0000
  C   C44       1.0  0.3214687903898438  0.7548604621990335  0.6941196640000982  1.0000
  C   C45       1.0  0.3335371631995869  0.5980813658665625  0.1884765245685003  1.0000
  C   C46       1.0  0.6664662042036087  0.09807426467787647  0.8115275104985927  1.0000
  C   C47       1.0  0.8335401835568633  0.09808741475938379  0.31151957648448564  1.0000
  C   C48       1.0  0.1664719939749801  0.5980970260711799  0.6884844584637406  1.0000
  C   C49       1.0  0.42293977173476094  0.5139205864822497  0.1341617005667217  1.0000
  C   C50       1.0  0.5770637942411343  0.013911884205242595  0.865841308416428  1.0000
  C   C51       1.0  0.922938169436506  0.013924708285259197  0.3658308758123638  1.0000
  C   C52       1.0  0.07706036274880292  0.5139469763914377  0.6341608854073967  1.0000
  S   S1        1.0  0.39518761250974427  0.962323286426297  0.45229588570958873  1.0000
  S   S2        1.0  0.6047964299516195  0.46231744412071407  0.5477001785580029  1.0000
  S   S3        1.0  0.8951970844441419  0.4623197173218257  0.047698520750152795  1.0000
  S   S4        1.0  0.1047995434623417  0.9623162115227543  0.9523059792306015  1.0000
  N   N1        1.0  0.584218106695076  0.7574955100604299  0.4902730709670776  1.0000
  N   N2        1.0  0.41578475149113814  0.2574864924217194  0.509725323687924  1.0000
  N   N3        1.0  0.08421445980386012  0.25749111722671353  0.0097288726268445  1.0000
  N   N4        1.0  0.9157921739534416  0.7574868838252796  0.9902744428853366  1.0000
  N   N5        1.0  0.2551173850497647  0.6717205397588372  0.3381816908723465  1.0000
  N   N6        1.0  0.7448869100947493  0.17172115687467476  0.6618114670621508  1.0000
  N   N7        1.0  0.7551098475609451  0.1717282888674205  0.1618164422465398  1.0000
  N   N8        1.0  0.24489948173197723  0.6717310140173252  0.838187963323108  1.0000
  N   N9        1.0  0.253661278805545  0.6778000889969675  0.1426726604441342  1.0000
  N   N10       1.0  0.746346868374438  0.17779473678938024  0.8573303117814532  1.0000
  N   N11       1.0  0.7536801433635745  0.1778090637081604  0.3573268688287428  1.0000
  N   N12       1.0  0.24634688252783124  0.6778129718335533  0.6426718853304506  1.0000
  O   O1        1.0  0.34562815649351813  0.062476353021253296  0.4055928246446995  1.0000
  O   O2        1.0  0.6543546258840962  0.5624747131327011  0.5943902817982547  1.0000
  O   O3        1.0  0.8456383398972136  0.5624799245453787  0.0943941505465773  1.0000
  O   O4        1.0  0.15436709620237113  0.06247674359236299  0.905612857119813  1.0000
  O   O5        1.0  0.2501057919539136  0.8932334234495796  0.4746524461774512  1.0000
  O   O6        1.0  0.749879897430631  0.3932316863517613  0.5253460388668287  1.0000
  O   O7        1.0  0.7501085791835395  0.39323158929377655  0.025342639361980397  1.0000
  O   O8        1.0  0.24988843720338144  0.893226317967702  0.9746572515925465  1.0000
  O   O9        1.0  0.5049114838164642  0.9790380820159611  0.5353243346371173  1.0000
  O   O10       1.0  0.49507654485357483  0.47902255334600596  0.464668842255918  1.0000
  O   O11       1.0  0.004935508676112502  0.47902215118880054  0.9646675027591199  1.0000
  O   O12       1.0  0.9950651052716212  0.979020077611757  0.0353383277674055  1.0000
