data_image0
_chemical_formula_structural       Gd2H38C60N10O14
_chemical_formula_sum              "Gd2 H38 C60 N10 O14"
_cell_length_a       10.500482623052099
_cell_length_b       11.181542966570186
_cell_length_c       13.476
_cell_angle_alpha    110.01630023788661
_cell_angle_beta     101.34168517247535
_cell_angle_gamma    107.87503003265716

_space_group_name_H-M_alt    "P 1"
_space_group_IT_number       1

loop_
  _space_group_symop_operation_xyz
  'x, y, z'

loop_
  _atom_site_type_symbol
  _atom_site_label
  _atom_site_symmetry_multiplicity
  _atom_site_fract_x
  _atom_site_fract_y
  _atom_site_fract_z
  _atom_site_occupancy
  Gd  Gd1       1.0  0.4996017663099507  0.9169904429536685  0.6229472392225333  1.0000
  Gd  Gd2       1.0  0.5003982282931645  0.0830095515255564  0.3770529067945105  1.0000
  H   H1        1.0  0.4177000876588862  0.5688471963678623  0.9946689705677088  1.0000
  H   H2        1.0  0.5822975325018901  0.4311517564555558  0.0053305157578549  1.0000
  H   H3        1.0  0.267639058314046  0.3259872274999935  0.9592892235073338  1.0000
  H   H4        1.0  0.7323619075940399  0.6740127669792314  0.04071107134943471  1.0000
  H   H5        1.0  0.9623387790155533  0.44976822909784886  0.386452038305535  1.0000
  H   H6        1.0  0.03766218689253975  0.5502317653813762  0.6135482565512406  1.0000
  H   H7        1.0  0.031130477590224373  0.30509577856792447  0.4751245727469496  1.0000
  H   H8        1.0  0.9688704883178687  0.6949042159113005  0.524876464169779  1.0000
  H   H9        1.0  0.2371555752951906  0.2436766270231701  0.444475738205334  1.0000
  H   H10       1.0  0.7628444193079176  0.756323367456055  0.5555244078117029  1.0000
  H   H11       1.0  0.0658064827570399  0.6837564154291016  0.29274072419913477  1.0000
  H   H12       1.0  0.9341935118460752  0.3162435790501235  0.7072586797579419  1.0000
  H   H13       1.0  0.8000042560295029  0.5580004344148506  0.21532732023025153  1.0000
  H   H14       1.0  0.19999573857360528  0.4419995600643745  0.7846713416668722  1.0000
  H   H15       1.0  0.6558891198638505  0.6779606425004019  0.3000678445580505  1.0000
  H   H16       1.0  0.3441122778766185  0.3220403936346372  0.6999320702507746  1.0000
  H   H17       1.0  0.8486329862861908  0.0711836331108273  0.77406391738743  1.0000
  H   H18       1.0  0.15136797962190227  0.9288163613683977  0.2259363774693384  1.0000
  H   H19       1.0  0.030007846460534907  0.22618305934441446  0.9691679785168361  1.0000
  H   H20       1.0  0.9699931194475508  0.7738169351348105  0.030832316339932213  1.0000
  H   H21       1.0  0.9461951765255278  0.3162769120360522  0.1282175142043727  1.0000
  H   H22       1.0  0.053804818077580245  0.6837230824431728  0.871782631812664  1.0000
  H   H23       1.0  0.7385848054971759  0.3156612934521448  0.1970869319382444  1.0000
  H   H24       1.0  0.26141518910593214  0.6843387010270803  0.8029132140787996  1.0000
  H   H25       1.0  0.480542372652053  0.2452818186268928  0.15513484753400775  1.0000
  H   H26       1.0  0.5194576219510623  0.7547181758523251  0.8448645564230759  1.0000
  H   H27       1.0  0.2335880763090968  0.1147415124757742  0.014684956182947009  1.0000
  H   H28       1.0  0.7664119182940182  0.8852584820034507  0.9853151898340968  1.0000
  H   H29       1.0  0.074913465781158  0.9608722772756265  0.8126696492779005  1.0000
  H   H30       1.0  0.92508652882195  0.0391277172035913  0.18732901261922313  1.0000
  H   H31       1.0  0.1881209063012932  0.8941094314238569  0.6668536842562818  1.0000
  H   H32       1.0  0.8118804914391758  0.1058916047111751  0.33314697261249643  1.0000
  H   H33       1.0  0.4952257728423745  0.7598733304576726  0.1900560880708113  1.0000
  H   H34       1.0  0.5047732504557557  0.2401266640215525  0.8099431670465407  1.0000
  H   H35       1.0  0.3665689599746215  0.6475151264759447  0.6324924437754831  1.0000
  H   H36       1.0  0.6334310346284866  0.3524848680032804  0.36750770224155366  1.0000
  H   H37       1.0  0.25756982221285796  0.6503400970335704  0.5350812398577319  1.0000
  H   H38       1.0  0.74243017239025  0.3496598974456546  0.464918906159312  1.0000
  C   C1        1.0  0.427230579938822  0.7418724763992799  0.36372660320964917  1.0000
  C   C2        1.0  0.572769414664293  0.2581275180799381  0.6362735428073947  1.0000
  C   C3        1.0  0.37990941560526176  0.6237424575724901  0.25011585758127813  1.0000
  C   C4        1.0  0.6200896076928757  0.3762575369067349  0.7498848816559942  1.0000
  C   C5        1.0  0.38483753100449997  0.5476307508229681  0.06080183037705209  1.0000
  C   C6        1.0  0.6151614922936304  0.452369243656257  0.9391981668002602  1.0000
  C   C7        1.0  0.3013580468639958  0.4129300713653734  0.04156266562273461  1.0000
  C   C8        1.0  0.6986409764341345  0.5870699231138516  0.9584373315545776  1.0000
  C   C9        1.0  0.2949634028377445  0.48451786693060933  0.2222878841842757  1.0000
  C   C10       1.0  0.7050371312379652  0.5154810858928016  0.7777120486604902  1.0000
  C   C11       1.0  0.23227471218669382  0.44060686624595746  0.3011759770374455  1.0000
  C   C12       1.0  0.7677230156143081  0.5593900032658324  0.6988229341038306  1.0000
  C   C13       1.0  0.052729587988466164  0.4235539189749744  0.3772170091264969  1.0000
  C   C14       1.0  0.9472699747822657  0.5764450338484436  0.6227835169384903  1.0000
  C   C15       1.0  0.09042912516721908  0.3420453934721123  0.42601357751405544  1.0000
  C   C16       1.0  0.9095718407408666  0.6579546010071127  0.5739874594026732  1.0000
  C   C17       1.0  0.20452835347560946  0.3088644892897108  0.40988667394491785  1.0000
  C   C18       1.0  0.7954712092951297  0.6911344635337002  0.5901131100601164  1.0000
  C   C19       1.0  0.2786115585618986  0.3601420798650494  0.3474162172167682  1.0000
  C   C20       1.0  0.7213894073461944  0.6398579146141756  0.6525848196999604  1.0000
  C   C21       1.0  0.40316764690749096  0.3262132668108322  0.3317212780282404  1.0000
  C   C22       1.0  0.5968323476956171  0.6737867276683858  0.6682781259288434  1.0000
  C   C23       1.0  0.22214447828311273  0.9350871293466056  0.45517836382210675  1.0000
  C   C24       1.0  0.7778564876249802  0.0649128651326123  0.5448211889747085  1.0000
  C   C25       1.0  0.06193212873845505  0.86970343578772  0.41117533271629014  1.0000
  C   C26       1.0  0.9380684053372618  0.130295517035691  0.5888246001284685  1.0000
  C   C27       1.0  0.9989148865261797  0.7346360934848875  0.32401182909180903  1.0000
  C   C28       1.0  0.0010855399093116986  0.2653649426501445  0.6759886789372446  1.0000
  C   C29       1.0  0.8516619447255919  0.663983704837328  0.2816677879629381  1.0000
  C   C30       1.0  0.1483384817098994  0.3360173312977039  0.7183312359461953  1.0000
  C   C31       1.0  0.7712629984064066  0.7313246696638345  0.3283128441542687  1.0000
  C   C32       1.0  0.22873688855648305  0.2686774081270115  0.6716856508671896  1.0000
  C   C33       1.0  0.9719542656429353  0.9295840617006093  0.45291510360291193  1.0000
  C   C34       1.0  0.028045728960172798  0.0704159327786158  0.5470850424141247  1.0000
  C   C35       1.0  0.8168821316006074  0.11195612483894019  0.8466012050984162  1.0000
  C   C36       1.0  0.18311786300250082  0.8880438696402848  0.15339819885866754  1.0000
  C   C37       1.0  0.9170309416167228  0.1981593930789813  0.9548970819610645  1.0000
  C   C38       1.0  0.08296959245898704  0.8018395597444297  0.04510210882373404  1.0000
  C   C39       1.0  0.8706241467743681  0.2474838790099412  0.043508594588495014  1.0000
  C   C40       1.0  0.1293758478287472  0.7525161154692838  0.9564915514285488  1.0000
  C   C41       1.0  0.723393751890434  0.207798875947816  0.023720066714275807  1.0000
  C   C42       1.0  0.27660527140769625  0.7922011185314018  0.9762799304630293  1.0000
  C   C43       1.0  0.6300019537549132  0.11976021016996438  0.9115082462486586  1.0000
  C   C44       1.0  0.369998472680578  0.8802408259650675  0.08849151972043506  1.0000
  C   C45       1.0  0.6660218831859481  0.2514650875170402  0.11094399982196282  1.0000
  C   C46       1.0  0.3339790827221449  0.7485349069621847  0.8890562950348058  1.0000
  C   C47       1.0  0.5227500332580987  0.2113196725867468  0.08791729587483126  1.0000
  C   C48       1.0  0.4772499613450094  0.7886803218924712  0.9120828501422057  1.0000
  C   C49       1.0  0.4257356553203024  0.1237528768909826  0.9757110623464059  1.0000
  C   C50       1.0  0.5742653105877906  0.8762471175882425  0.024289232510369622  1.0000
  C   C51       1.0  0.4787082718343143  0.0769325315280653  0.8870841634970079  1.0000
  C   C52       1.0  0.521292154601177  0.9230685046069665  0.1129156024720857  1.0000
  C   C53       1.0  0.2769193998904456  0.0805658269945084  0.948010080880792  1.0000
  C   C54       1.0  0.7230819978500235  0.9194352091405236  0.051989833928033136  1.0000
  C   C55       1.0  0.19020347745022542  0.9974458544322856  0.8374458666195184  1.0000
  C   C56       1.0  0.8097973808176417  0.0025562233585603  0.1625542613615849  1.0000
  C   C57       1.0  0.2523253805788173  0.9579743908112803  0.7550841688411725  1.0000
  C   C58       1.0  0.7476746140242978  0.0420256036679447  0.24491523511591137  1.0000
  C   C59       1.0  0.42581966219182726  0.6532275669398189  0.16744919057756394  1.0000
  C   C60       1.0  0.5741783898013324  0.3467724275394062  0.8325506577600166  1.0000
  N   N1        1.0  0.25781981810522575  0.380933529839325  0.11995775759904603  1.0000
  N   N2        1.0  0.7421801764978896  0.6190664646399  0.8800423884179909  1.0000
  N   N3        1.0  0.12097730119889855  0.47165237601716825  0.3151696815492003  1.0000
  N   N4        1.0  0.8790226934042095  0.5283476184620568  0.6848304644678437  1.0000
  N   N5        1.0  0.8295443449927902  0.8604243658292603  0.41048230628406673  1.0000
  N   N6        1.0  0.17045564961032506  0.1395756286499577  0.5895170976730171  1.0000
  N   N7        1.0  0.677538139471551  0.0750554677578421  0.8249510055381465  1.0000
  N   N8        1.0  0.3224618551315643  0.9249445267213829  0.17504914047889747  1.0000
  N   N9        1.0  0.3921106142886969  0.9960635771719666  0.7785635486610191  1.0000
  N   N10       1.0  0.607889380314411  0.0039364173072514  0.2214358552960647  1.0000
  O   O1        1.0  0.46067758037315787  0.8636597487761647  0.3683819457430033  1.0000
  O   O2        1.0  0.5393224142299573  0.1363402457030602  0.6316189423340007  1.0000
  O   O3        1.0  0.43393017467798956  0.716944611202166  0.44907821561715633  1.0000
  O   O4        1.0  0.5660693880927495  0.283054341621245  0.5509208263279106  1.0000
  O   O5        1.0  0.5140473280365043  0.41720294349936177  0.3366748050907519  1.0000
  O   O6        1.0  0.48595363787158863  0.5827970509798632  0.6633254897660238  1.0000
  O   O7        1.0  0.3856812383124293  0.2012468609008167  0.3142254366250654  1.0000
  O   O8        1.0  0.6143197275956637  0.7987531335784083  0.68577485823171  1.0000
  O   O9        1.0  0.2781160575073044  0.8946667172823907  0.5228098053919582  1.0000
  O   O10       1.0  0.7218829657908328  0.10533327719683429  0.4771901917853469  1.0000
  O   O11       1.0  0.2851403807802555  0.008681159523327198  0.4118400124907069  1.0000
  O   O12       1.0  0.7148596138228527  0.9913188349558979  0.58816087558629  1.0000
  O   O13       1.0  0.3114440296544529  0.7022197646672765  0.6151777426437877  1.0000
  O   O14       1.0  0.6885559649486622  0.2977802298119414  0.38482240337325635  1.0000
