data_image0
_chemical_formula_structural       Nd2Fe2H36C32N16O12
_chemical_formula_sum              "Nd2 Fe2 H36 C32 N16 O12"
_cell_length_a       9.420603386385404
_cell_length_b       9.730857526233025
_cell_length_c       15.066590740863349
_cell_angle_alpha    77.88133688352654
_cell_angle_beta     71.76899842610106
_cell_angle_gamma    61.0337667164814

_space_group_name_H-M_alt    "P 1"
_space_group_IT_number       1

loop_
  _space_group_symop_operation_xyz
  'x, y, z'

loop_
  _atom_site_type_symbol
  _atom_site_label
  _atom_site_symmetry_multiplicity
  _atom_site_fract_x
  _atom_site_fract_y
  _atom_site_fract_z
  _atom_site_occupancy
  Nd  Nd1       1.0  0.3899873588610915  0.7500129911869564  0.24999201539579022  1.0000
  Nd  Nd2       1.0  0.6100135587910672  0.24998715037686747  0.7500084583579181  1.0000
  Fe  Fe1       1.0  0.5000020093995942  3.0496668231001513e-06  0.499999896096746  1.0000
  Fe  Fe2       1.0  7.060303915352231e-07  0.49999992634644747  2.7401134019990297e-06  1.0000
  H   H1        1.0  0.6373670525616147  0.9319889693067936  0.026926598892657666  1.0000
  H   H2        1.0  0.5962917422773868  0.5683586010716085  0.47284021318431263  1.0000
  H   H3        1.0  0.36262891446023815  0.06800882751506522  0.9730733444345676  1.0000
  H   H4        1.0  0.40370841398895146  0.43163800485299225  0.5271606279458254  1.0000
  H   H5        1.0  0.8182796248250814  0.06940058705114893  0.9876684616090473  1.0000
  H   H6        1.0  0.8754186117660936  0.431173533805044  0.5120653885654676  1.0000
  H   H7        1.0  0.181718299806228  0.930597239691444  0.01232948445836258  1.0000
  H   H8        1.0  0.12458211186392987  0.5688218946583278  0.4879354955716978  1.0000
  H   H9        1.0  0.7533293585382168  0.2723297427406237  0.0923365452383536  1.0000
  H   H10       1.0  0.11825772142101705  0.2281210365138904  0.4074958426039359  1.0000
  H   H11       1.0  0.24667012409977945  0.7276680906165327  0.9076609487747618  1.0000
  H   H12       1.0  0.8817416145479204  0.7718767602045203  0.5925040760669305  1.0000
  H   H13       1.0  0.5107277126713965  0.32477854371217063  0.23597150275249132  1.0000
  H   H14       1.0  0.07181832717454024  0.17522494764106267  0.2640035842838699  1.0000
  H   H15       1.0  0.48927187881592743  0.6752228153106399  0.7640262896374639  1.0000
  H   H16       1.0  0.9281815761580817  0.8247716716161194  0.7359963773940238  1.0000
  H   H17       1.0  0.34102886393372966  0.17838824155693803  0.26380544056318916  1.0000
  H   H18       1.0  0.7834538325645185  0.3212677862496847  0.23626111181076942  1.0000
  H   H19       1.0  0.6589708953145109  0.8216119166984869  0.7361939400393069  1.0000
  H   H20       1.0  0.21654533564350203  0.6787312112361124  0.7637372186475562  1.0000
  H   H21       1.0  0.1891776738930486  0.5807392294031077  0.23940780607107118  1.0000
  H   H22       1.0  0.009258131897183983  0.9192680222336094  0.26055899133440624  1.0000
  H   H23       1.0  0.8108291140027928  0.4192574262859239  0.7605896816363541  1.0000
  H   H24       1.0  0.990742509144724  0.0807297944319529  0.7394395958299145  1.0000
  H   H25       1.0  0.2570089946027352  0.49434750955490614  0.3306681988869827  1.0000
  H   H26       1.0  0.08201014706056506  0.005682050570563  0.16931479725426613  1.0000
  H   H27       1.0  0.7429926607587022  0.5056538294172983  0.6693309003531525  1.0000
  H   H28       1.0  0.9179908320878527  0.9943169401972087  0.8306839606019951  1.0000
  H   H29       1.0  0.3762976888867869  0.5846620516750248  0.0963472344708833  1.0000
  H   H30       1.0  0.05727079513722815  0.9151989032647238  0.40370345678127256  1.0000
  H   H31       1.0  0.6237007037922315  0.4153392374293006  0.9036551935355988  1.0000
  H   H32       1.0  0.9427325859918129  0.08480124155466481  0.5962967786171021  1.0000
  H   H33       1.0  0.5491198605095206  0.5968880136104457  0.05435608492594208  1.0000
  H   H34       1.0  0.2004226849557468  0.9029744729324635  0.4455965482187452  1.0000
  H   H35       1.0  0.45087922252570706  0.4031097964405462  0.9456429542926799  1.0000
  H   H36       1.0  0.7995833037345577  0.09702213614423981  0.5544040298997005  1.0000
  C   C1        1.0  0.5148452190655918  0.9033372240874441  0.39835108044598405  1.0000
  C   C2        1.0  0.8163424769412443  0.5967847847516268  0.10156894970955922  1.0000
  C   C3        1.0  0.4851582709127912  0.09666644639759882  0.6016494533292374  1.0000
  C   C4        1.0  0.18365577165339192  0.4032200433509344  0.8984328972215252  1.0000
  C   C5        1.0  0.2833145787596294  0.013292469680465  0.5581787243387881  1.0000
  C   C6        1.0  0.8550753811658751  0.48640179095038877  0.9417439136370903  1.0000
  C   C7        1.0  0.7166895874317734  0.9867135490090035  0.4418221508203076  1.0000
  C   C8        1.0  0.14491378646555836  0.5135971568744181  0.05825779490029254  1.0000
  C   C9        1.0  0.6076869919723864  0.7991983452152384  0.5618169124112385  1.0000
  C   C10       1.0  0.9685199745616659  0.7007861320813974  0.938161785499098  1.0000
  C   C11       1.0  0.39231533960207804  0.20080534196139874  0.43818252821277076  1.0000
  C   C12       1.0  0.03148062866052478  0.2992151736110671  0.06183952469981341  1.0000
  C   C13       1.0  0.6163090136234147  0.0206729396502539  0.06917817294452532  1.0000
  C   C14       1.0  0.7062826412384311  0.4796248498581194  0.4306412026516426  1.0000
  C   C15       1.0  0.3836904075183159  0.9793260445029546  0.9308210369660372  1.0000
  C   C16       1.0  0.29371793830721776  0.5203741176034953  0.5693591004101324  1.0000
  C   C17       1.0  0.7140509673176539  0.09828385731474752  0.04953139936438326  1.0000
  C   C18       1.0  0.8620263134300858  0.40211383877828416  0.4502604751820627  1.0000
  C   C19       1.0  0.28594788646039154  0.90171630429969  0.950467767539138  1.0000
  C   C20       1.0  0.13797523308201695  0.5978839745282656  0.5497383256812328  1.0000
  C   C21       1.0  0.677564055844897  0.21031858293580544  0.10828625958867377  1.0000
  C   C22       1.0  0.996412329420892  0.2900164989972397  0.39154060149112985  1.0000
  C   C23       1.0  0.32243445982663865  0.7896804045764086  0.8917127366229212  1.0000
  C   C24       1.0  0.0035879735144988562  0.7099801435661066  0.6084578149812572  1.0000
  C   C25       1.0  0.5436309887445533  0.23995235179876326  0.1871235354839769  1.0000
  C   C26       1.0  0.9709574574445696  0.26010473675557216  0.3128114758399292  1.0000
  C   C27       1.0  0.4563684323971844  0.7600466323544453  0.8128756744265859  1.0000
  C   C28       1.0  0.029043039512963467  0.7398966189082258  0.6871865302489938  1.0000
  C   C29       1.0  0.4477554265033346  0.16103718446978377  0.20452438905791587  1.0000
  C   C30       1.0  0.8135184089710704  0.33887152051153174  0.2954518044651806  1.0000
  C   C31       1.0  0.5522439946383959  0.8389617996834247  0.7954748208526469  1.0000
  C   C32       1.0  0.18647970709768902  0.661127443694518  0.7045487369519137  1.0000
  N   N1        1.0  0.5125846578725375  0.8424764519551786  0.33962830319218545  1.0000
  N   N2        1.0  0.694516693036796  0.6578041352052112  0.16030300223819433  1.0000
  N   N3        1.0  0.48741415808578387  0.1575271986861537  0.6603735867459337  1.0000
  N   N4        1.0  0.30548113227852997  0.34219833136033634  0.8396993827612534  1.0000
  N   N5        1.0  0.1479561710184214  0.0229856000695463  0.5897711893422085  1.0000
  N   N6        1.0  0.7611555446965642  0.4766964770165174  0.9100656183777575  1.0000
  N   N7        1.0  0.8520452172661237  0.9770215794930053  0.4102307606174236  1.0000
  N   N8        1.0  0.23884744119370532  0.5233046587113392  0.08994691100129873  1.0000
  N   N9        1.0  0.6775157242128105  0.6757043329974977  0.599276897071995  1.0000
  N   N10       1.0  0.952344933805165  0.8242977614180731  0.9007471967286876  1.0000
  N   N11       1.0  0.3224819948378654  0.3242981835393835  0.40072218381747154  1.0000
  N   N12       1.0  0.04765760334993268  0.1757012359642758  0.09925110907327911  1.0000
  N   N13       1.0  0.4838487713083524  0.0542365235694291  0.1454641268604746  1.0000
  N   N14       1.0  0.6837023721383277  0.44578500093228274  0.35446409530722894  1.0000
  N   N15       1.0  0.5161499972969003  0.9457624506101963  0.8545357488033575  1.0000
  N   N16       1.0  0.3162966494006342  0.5542139599147617  0.6455366598088405  1.0000
  O   O1        1.0  0.38646993309228606  0.9843391420211491  0.1617522541992216  1.0000
  O   O2        1.0  0.532691133144688  0.5156622316783485  0.3381689005288352  1.0000
  O   O3        1.0  0.6135276156127889  0.01566099964612991  0.8382482442108454  1.0000
  O   O4        1.0  0.46730862610355933  0.48433792657707647  0.661830480073661  1.0000
  O   O5        1.0  0.22244366609262287  0.596008086977946  0.29049041502640455  1.0000
  O   O6        1.0  0.10890466767037321  0.9040133277911483  0.20947615339795086  1.0000
  O   O7        1.0  0.7775567456921094  0.40399208125105457  0.7095082998228223  1.0000
  O   O8        1.0  0.8910959970480692  0.09598682710526422  0.7905234409035133  1.0000
  O   O9        1.0  0.44996251180885605  0.6244995932265667  0.10652162140814171  1.0000
  O   O10       1.0  0.1810401301911356  0.8751096454298734  0.3935441320495628  1.0000
  O   O11       1.0  0.5500378384796178  0.3755017257984861  0.8934788093385323  1.0000
  O   O12       1.0  0.8189649530289673  0.12488696700584263  0.6064562323699079  1.0000
