data_image0
_chemical_formula_structural       Zn2H40C46N4O10
_chemical_formula_sum              "Zn2 H40 C46 N4 O10"
_cell_length_a       9.564126891895986
_cell_length_b       11.452851181218037
_cell_length_c       11.5626
_cell_angle_alpha    100.50350381982744
_cell_angle_beta     100.80877210291058
_cell_angle_gamma    113.63033537248181

_space_group_name_H-M_alt    "P 1"
_space_group_IT_number       1

loop_
  _space_group_symop_operation_xyz
  'x, y, z'

loop_
  _atom_site_type_symbol
  _atom_site_label
  _atom_site_symmetry_multiplicity
  _atom_site_fract_x
  _atom_site_fract_y
  _atom_site_fract_z
  _atom_site_occupancy
  Zn  Zn1       1.0  0.18648632481924224  0.8799781508516135  0.1187345723495668  1.0000
  Zn  Zn2       1.0  0.8135142911844255  0.12002369489401592  0.881265164596016  1.0000
  H   H1        1.0  0.5077417843378386  0.1064727769498859  0.26069901081133656  1.0000
  H   H2        1.0  0.492258285065148  0.8935260848883857  0.7392992376985037  1.0000
  H   H3        1.0  0.7302870358734522  0.8870748771824495  0.07564435290477431  1.0000
  H   H4        1.0  0.26971250609057057  0.1129249792916056  0.9243539933861201  1.0000
  H   H5        1.0  0.0413349025631504  0.0469318895474018  0.20252382372399322  1.0000
  H   H6        1.0  0.9586657134405172  0.9530699561982275  0.7974750483642056  1.0000
  H   H7        1.0  0.6270758887242708  0.5072304330810411  0.8439630468587681  1.0000
  H   H8        1.0  0.3729257821573313  0.492769423393014  0.15603562966732912  1.0000
  H   H9        1.0  0.2433373667436456  0.6076677600834088  0.8798631875246841  1.0000
  H   H10       1.0  0.7566594997021171  0.3923291124832886  0.12013506981002567  1.0000
  H   H11       1.0  0.12484277017885151  0.2725888887881922  0.3433179013513837  1.0000
  H   H12       1.0  0.8751594377225728  0.7274119623216535  0.6566844975029086  1.0000
  H   H13       1.0  0.6134074985708368  0.33523900765671755  0.40353962408497074  1.0000
  H   H14       1.0  0.3865915063733638  0.664759854181554  0.5964593241646484  1.0000
  H   H15       1.0  0.3258039515602463  0.4765588493579713  0.48055942629783743  1.0000
  H   H16       1.0  0.6741993207999643  0.5234420017518744  0.5194414079592848  1.0000
  H   H17       1.0  0.02975299049187191  0.4356803132022335  0.20970108935123483  1.0000
  H   H18       1.0  0.9702470980728325  0.5643225271791792  0.7902987453753952  1.0000
  H   H19       1.0  0.23599652619245856  0.9148073121588355  0.39555525762548893  1.0000
  H   H20       1.0  0.7639998223951994  0.0851925443152268  0.6044443230273587  1.0000
  H   H21       1.0  0.9580443905782943  0.3838060784357822  0.38718356022943123  1.0000
  H   H22       1.0  0.0419572898841594  0.616195767309847  0.6128172066911335  1.0000
  H   H23       1.0  0.11881233087480329  0.5980834496525844  0.09412162321410024  1.0000
  H   H24       1.0  0.8811851013333581  0.40192038536461894  0.9058779790583745  1.0000
  H   H25       1.0  0.4164994975034802  0.3079113894451098  0.806844728493097  1.0000
  H   H26       1.0  0.5835000348796839  0.6920864777573783  0.193154121975475  1.0000
  H   H27       1.0  0.428684790855371  0.3569558854012982  0.6694405638392952  1.0000
  H   H28       1.0  0.5713147511086518  0.6430439710727569  0.3305577824515923  1.0000
  H   H29       1.0  0.15190126657424227  0.7672073401067863  0.5259298028739253  1.0000
  H   H30       1.0  0.8480993494294256  0.23279450563884302  0.47407079892903436  1.0000
  H   H31       1.0  0.1307028467714915  0.2185990637055895  0.5822797500565358  1.0000
  H   H32       1.0  0.8692972226314951  0.7813997981326822  0.4177193633106883  1.0000
  H   H33       1.0  0.12604990260892632  0.1676150279673223  0.7176593239960668  1.0000
  H   H34       1.0  0.8739496297742377  0.8323828392351587  0.28233952647250504  1.0000
  H   H35       1.0  0.31062881568626477  0.1150475320582487  0.5383333776158494  1.0000
  H   H36       1.0  0.6893696522381064  0.8849503351442323  0.4616661725925015  1.0000
  H   H37       1.0  0.13024884286173935  0.9951271357600007  0.5513961166613797  1.0000
  H   H38       1.0  0.8697528280198555  0.0048727207140544  0.4486042895794854  1.0000
  H   H39       1.0  0.3095950734096037  0.0653982975443697  0.6755212059212781  1.0000
  H   H40       1.0  0.69040499599339  0.9346005642939019  0.32447790744594585  1.0000
  C   C1        1.0  0.4249932985536447  0.8470636634318254  0.04946222798256635  1.0000
  C   C2        1.0  0.5750030308722955  0.1529322144990886  0.9505374961682592  1.0000
  C   C3        1.0  0.4292466686998324  0.1488392882410068  0.2843862420643006  1.0000
  C   C4        1.0  0.5707534007031542  0.8511595735972649  0.7156137361603073  1.0000
  C   C5        1.0  0.07520823439453041  0.5851253346367216  0.37852726538164927  1.0000
  C   C6        1.0  0.9247929186289668  0.41487750574469834  0.6214735993199697  1.0000
  C   C7        1.0  0.6440894114101852  0.7914008609577081  0.011269492048555188  1.0000
  C   C8        1.0  0.3559101305538378  0.208598995516347  0.9887305839570999  1.0000
  C   C9        1.0  0.8665230860639639  0.7305341240529089  0.9943566908828174  1.0000
  C   C10       1.0  0.1334769833390297  0.2694647377853627  0.005641557627022609  1.0000
  C   C11       1.0  0.4202033023884156  0.5432949320340796  0.8485298163097712  1.0000
  C   C12       1.0  0.5797989055130088  0.4567059190757591  0.15146912311497832  1.0000
  C   C13       1.0  0.48131870939150195  0.7575752871582395  0.9824279694220763  1.0000
  C   C14       1.0  0.5186781570542607  0.2424215854084579  0.017572882484785207  1.0000
  C   C15       1.0  0.1661266298940873  0.1143204532989159  0.25140969301587296  1.0000
  C   C16       1.0  0.8338739861095804  0.8856813924467133  0.7485909087870937  1.0000
  C   C17       1.0  0.582388462167053  0.5757757582513108  0.8792084875169978  1.0000
  C   C18       1.0  0.41761054277714044  0.4242231035869608  0.12079046073262133  1.0000
  C   C19       1.0  0.6938774990844863  0.700265367823036  0.9600107466697169  1.0000
  C   C20       1.0  0.3061209784207506  0.2997344886510191  0.039987434503572686  1.0000
  C   C21       1.0  0.376901273258362  0.3235291605518853  0.3880655954571567  1.0000
  C   C22       1.0  0.623102536121678  0.6764726851937439  0.6119363665560018  1.0000
  C   C23       1.0  0.3699122526537408  0.6345398351051799  0.900325320326715  1.0000
  C   C24       1.0  0.6300851508118441  0.3654580320973082  0.09967492962141482  1.0000
  C   C25       1.0  0.21405350202945073  0.2394446405019082  0.32922743636142127  1.0000
  C   C26       1.0  0.7859503073505821  0.760557205243714  0.6707745256517371  1.0000
  C   C27       1.0  0.4853043037810139  0.2750466338146111  0.3630009145498364  1.0000
  C   C28       1.0  0.5146952286021502  0.7249512333878769  0.6369979359187354  1.0000
  C   C29       1.0  0.42424354130636033  0.45413379093398737  0.46958350695056345  1.0000
  C   C30       1.0  0.5757608050934948  0.5458690494474254  0.5304187179612541  1.0000
  C   C31       1.0  0.0735426595205624  0.5407645785953079  0.2564272234315013  1.0000
  C   C32       1.0  0.9264553001265626  0.4592382617861048  0.7435731459173028  1.0000
  C   C33       1.0  0.18914977918971226  0.8076333169800378  0.3582702481161064  1.0000
  C   C34       1.0  0.8108508272331036  0.1923665394940173  0.6417282632923857  1.0000
  C   C35       1.0  0.006235845686809677  0.48716465074069504  0.4421954632209976  1.0000
  C   C36       1.0  0.9937663717954737  0.5128381896407177  0.5578055665982262  1.0000
  C   C37       1.0  0.12445575071521382  0.6314962496009926  0.18998598925836066  1.0000
  C   C38       1.0  0.8755437912488021  0.3685036068730625  0.8100140867472947  1.0000
  C   C39       1.0  0.34987344487234406  0.3239389504955881  0.7277062532798199  1.0000
  C   C40       1.0  0.6501260970916789  0.676060905978467  0.27229382272584257  1.0000
  C   C41       1.0  0.14113204289013484  0.7237586650808439  0.4306823850898455  1.0000
  C   C42       1.0  0.8588696471531848  0.2762451699363524  0.5693170127956577  1.0000
  C   C43       1.0  0.2000065729053233  0.1974938869692053  0.6558772173815158  1.0000
  C   C44       1.0  0.799992441619736  0.8025069641406333  0.3441229564051867  1.0000
  C   C45       1.0  0.23989592429570913  0.08661885203189  0.6024747967219285  1.0000
  C   C46       1.0  0.7601041546881363  0.9133819990779486  0.3975264070397699  1.0000
  N   N1        1.0  0.2719577695115376  0.0691202246543909  0.23016507974000433  1.0000
  N   N2        1.0  0.7280417724524852  0.9308796318196642  0.769834131408274  1.0000
  N   N3        1.0  0.17739714470777562  0.7630000307333518  0.23874394321163095  1.0000
  N   N4        1.0  0.822601342378313  0.23700181501227746  0.761254598641358  1.0000
  O   O1        1.0  0.27936381711818115  0.823786202139516  0.9983598385115189  1.0000
  O   O2        1.0  0.7206319944496544  0.1762126596987557  0.0016394792426766265  1.0000
  O   O3        1.0  0.9647385297257429  0.8514201681731137  0.061885918577360144  1.0000
  O   O4        1.0  0.0352626041360367  0.1485786936651579  0.9381116301927008  1.0000
  O   O5        1.0  0.5121768949213319  0.9308617283755254  0.15070887771550906  1.0000
  O   O6        1.0  0.48782157300304624  0.0691361388269627  0.8492906724928417  1.0000
  O   O7        1.0  0.30279486071881223  0.4246726789620894  0.7702333074225436  1.0000
  O   O8        1.0  0.6972041442253883  0.5753261828761822  0.22976650568445936  1.0000
  O   O9        1.0  0.9080181718229454  0.6426441274869177  0.9598953635991451  1.0000
  O   O10       1.0  0.09198137014107742  0.3573557289871374  0.04010384754912622  1.0000
