data_image0
_chemical_formula_structural       Sm4H36C40N4O28
_chemical_formula_sum              "Sm4 H36 C40 N4 O28"
_cell_length_a       8.78133182830787
_cell_length_b       9.168315827621798
_cell_length_c       15.509978325007191
_cell_angle_alpha    90.00008496196537
_cell_angle_beta     89.99991740713587
_cell_angle_gamma    99.1535476722005

_space_group_name_H-M_alt    "P 1"
_space_group_IT_number       1

loop_
  _space_group_symop_operation_xyz
  'x, y, z'

loop_
  _atom_site_type_symbol
  _atom_site_label
  _atom_site_symmetry_multiplicity
  _atom_site_fract_x
  _atom_site_fract_y
  _atom_site_fract_z
  _atom_site_occupancy
  Sm  Sm1       1.0  0.9696413526206129  0.895994580157428  0.11466940259547438  1.0000
  Sm  Sm2       1.0  0.5303590711418239  0.1040041535189573  0.6146686446250911  1.0000
  Sm  Sm3       1.0  0.0303593133351328  0.1040024701030546  0.8853313799314649  1.0000
  Sm  Sm4       1.0  0.46964098643540814  0.8959962048666837  0.3853308484110869  1.0000
  H   H1        1.0  0.4903462259258904  0.20145296529785384  0.09918055565183441  1.0000
  H   H2        1.0  0.009654091829574428  0.7985483933297672  0.5991791320950027  1.0000
  H   H3        1.0  0.5096540087859722  0.798548497852913  0.9008195821309783  1.0000
  H   H4        1.0  0.9903459657490714  0.20145196505446714  0.4008190714487228  1.0000
  H   H5        1.0  0.3970134273568391  0.27466227477492566  0.0100231831964308  1.0000
  H   H6        1.0  0.1029840204701458  0.7253410803136121  0.5100222643873238  1.0000
  H   H7        1.0  0.6029833879972629  0.7253391698757313  0.9899769545877676  1.0000
  H   H8        1.0  0.897014288942657  0.27466258003047966  0.48997593915855486  1.0000
  H   H9        1.0  0.4114284225092816  0.0526532835632167  0.9238057886391075  1.0000
  H   H10       1.0  0.08857022201190287  0.9473498820946984  0.42380625710693925  1.0000
  H   H11       1.0  0.588571026688733  0.9473503829482864  0.0761930596525389  1.0000
  H   H12       1.0  0.911428087399493  0.0526537782508001  0.5761932359313916  1.0000
  H   H13       1.0  0.5968158017611388  0.13618791948458409  0.9573228822415629  1.0000
  H   H14       1.0  0.903183263576217  0.8638148700929448  0.4573230214640986  1.0000
  H   H15       1.0  0.40318347030083873  0.8638146422632005  0.04267661079590109  1.0000
  H   H16       1.0  0.09681486869984471  0.1361876854881316  0.5426764715738202  1.0000
  H   H17       1.0  0.7077294599771093  0.23115267884247  0.217695797246293  1.0000
  H   H18       1.0  0.7922724094635996  0.7688496001248453  0.7176915385708682  1.0000
  H   H19       1.0  0.29227287716772576  0.7688476918808007  0.7823075642663185  1.0000
  H   H20       1.0  0.2077295734148095  0.23114856106536052  0.2823079544635618  1.0000
  H   H21       1.0  0.8955860217315889  0.5245516039345973  0.0133860856887722  1.0000
  H   H22       1.0  0.6044146237332697  0.47544690871052353  0.5133849473059371  1.0000
  H   H23       1.0  0.10441350443965548  0.47544544015777745  0.9866134073461694  1.0000
  H   H24       1.0  0.3955852567086353  0.5245523449106957  0.4866145457298288  1.0000
  H   H25       1.0  0.6160795196508033  0.45103508217020777  0.2883936439000507  1.0000
  H   H26       1.0  0.8839200925982951  0.5489684435147454  0.7883916973861318  1.0000
  H   H27       1.0  0.38391843548922105  0.5489663686471572  0.7116064938836858  1.0000
  H   H28       1.0  0.11607961070757258  0.451029705342755  0.2116084403954517  1.0000
  H   H29       1.0  0.9167386460569986  0.0147476979026635  0.2934971419335355  1.0000
  H   H30       1.0  0.5832604236128062  0.9852525246284928  0.7934971111037186  1.0000
  H   H31       1.0  0.08326158865556718  0.9852537652474068  0.7065023511030475  1.0000
  H   H32       1.0  0.41673981109975944  0.014748938521570696  0.2065023819328715  1.0000
  H   H33       1.0  0.09063950204688348  0.9776769574931022  0.2839975634985521  1.0000
  H   H34       1.0  0.4093587399643254  0.022321484002212295  0.783997070207718  1.0000
  H   H35       1.0  0.909359238607692  0.022322289962815503  0.716003219030128  1.0000
  H   H36       1.0  0.5906413176129135  0.9776788743834288  0.2160024228284598  1.0000
  C   C1        1.0  0.2623695535786937  0.0916712039721261  0.0734197650286745  1.0000
  C   C2        1.0  0.23762757834228415  0.9083311847025757  0.5734188964969391  1.0000
  C   C3        1.0  0.7376306811331688  0.9083302591786406  0.9265803727541382  1.0000
  C   C4        1.0  0.7623703767991473  0.09167026611338258  0.4265799517943378  1.0000
  C   C5        1.0  0.4148365997507497  0.172932633855936  0.0433036422073414  1.0000
  C   C6        1.0  0.08516173787814549  0.8270696952630345  0.543302826826924  1.0000
  C   C7        1.0  0.5851626723105241  0.8270699278925521  0.9566964955763453  1.0000
  C   C8        1.0  0.9148362172632859  0.17293175555292348  0.456696021464353  1.0000
  C   C9        1.0  0.48726596858171695  0.0734244636980463  0.9802197721703862  1.0000
  C   C10       1.0  0.01273483202504618  0.9265788374057137  0.4802202842484107  1.0000
  C   C11       1.0  0.512734443266183  0.9265781042164389  0.0197797208666088  1.0000
  C   C12       1.0  0.9872657569581805  0.07342483527319393  0.5197792087889964  1.0000
  C   C13       1.0  0.8554413679929169  0.23132693607595198  0.0628831417123408  1.0000
  C   C14       1.0  0.6445612715654789  0.7686705921531426  0.5628796479314389  1.0000
  C   C15       1.0  0.1445627173177684  0.7686701326874612  0.9371202197981177  1.0000
  C   C16       1.0  0.3554395715277181  0.23132756286965872  0.4371192003572233  1.0000
  C   C17       1.0  0.8051285962384327  0.3606592650763503  0.10886394061780888  1.0000
  C   C18       1.0  0.6948759681325924  0.6393438934868171  0.608861582315349  1.0000
  C   C19       1.0  0.1948758433450308  0.639340013213797  0.8911374866547916  1.0000
  C   C20       1.0  0.30512391230860897  0.3606553601351051  0.3911385554666396  1.0000
  C   C21       1.0  0.730230166324489  0.34070350911370173  0.1887518883527974  1.0000
  C   C22       1.0  0.7697719436078075  0.659299811453586  0.6887475522538864  1.0000
  C   C23       1.0  0.2697723479570939  0.6592979663725841  0.8112501836677736  1.0000
  C   C24       1.0  0.23022679704818227  0.34069943600093205  0.3112519407823413  1.0000
  C   C25       1.0  0.6663242619882369  0.7353040138477951  0.227068065576205  1.0000
  C   C26       1.0  0.8336777640674528  0.2646993903421872  0.727068490511492  1.0000
  C   C27       1.0  0.3336746558016657  0.2646963383725519  0.7729327169528873  1.0000
  C   C28       1.0  0.16632079945178896  0.7352987523493154  0.272932292016776  1.0000
  C   C29       1.0  0.8355854941174599  0.5037017704989283  0.07465891391132123  1.0000
  C   C30       1.0  0.6644150172262541  0.4962968758613115  0.5746571001384667  1.0000
  C   C31       1.0  0.1644140320530738  0.4962952735941499  0.9253412238698503  1.0000
  C   C32       1.0  0.3355846860796063  0.5037012729961886  0.4253430376431169  1.0000
  C   C33       1.0  0.716124160165748  0.5994277641387029  0.1891008148704927  1.0000
  C   C34       1.0  0.7838779489994963  0.4005755571933065  0.6890994648845209  1.0000
  C   C35       1.0  0.2838758974121873  0.40057259424624186  0.8108980334194554  1.0000
  C   C36       1.0  0.21612079165578282  0.599423690261915  0.3109006728979296  1.0000
  C   C37       1.0  0.680643016485604  0.46120158177106424  0.22815369260569443  1.0000
  C   C38       1.0  0.8193575131396856  0.5387996090899919  0.7281517897879937  1.0000
  C   C39       1.0  0.3193570410902211  0.5387987766159837  0.7718470899229359  1.0000
  C   C40       1.0  0.1806412275155935  0.4611996383652297  0.2718483479944638  1.0000
  N   N1        1.0  0.7973923987079273  0.6217448128872077  0.11503556874609443  1.0000
  N   N2        1.0  0.702609164039522  0.3782539277543719  0.6150342654412242  1.0000
  N   N3        1.0  0.20260598767810478  0.3782522250377554  0.8849632795430865  1.0000
  N   N4        1.0  0.2973893994811334  0.621744214935724  0.3849652275945914  1.0000
  O   O1        1.0  0.7232026421221746  0.8579354963447513  0.1915715924985903  1.0000
  O   O2        1.0  0.7767943710838807  0.14206449142032082  0.6915713118303088  1.0000
  O   O3        1.0  0.2767964528044757  0.142065960638611  0.8084279005384546  1.0000
  O   O4        1.0  0.2232030526501489  0.8579336451037705  0.3084288259521983  1.0000
  O   O5        1.0  0.0082591391538998  0.022129916290658996  0.2548346628867293  1.0000
  O   O6        1.0  0.4917414462652303  0.9778684738952207  0.7548336481736229  1.0000
  O   O7        1.0  0.9917418810725068  0.9778693434986677  0.7451661196410271  1.0000
  O   O8        1.0  0.5082574715267897  0.022131878323016  0.2451652001167872  1.0000
  O   O9        1.0  0.8513224410909644  0.11516664278442329  0.1075665851162313  1.0000
  O   O10       1.0  0.6486814175789775  0.8848320938894005  0.607563834253142  1.0000
  O   O11       1.0  0.14868374665411474  0.8848293335500798  0.8924387106315735  1.0000
  O   O12       1.0  0.35131977978417694  0.11516827066294162  0.3924356587825741  1.0000
  O   O13       1.0  0.2525813752436506  0.012363942010701102  0.1410297579186874  1.0000
  O   O14       1.0  0.24741771112028488  0.9876375017785219  0.6410289507298046  1.0000
  O   O15       1.0  0.7474198221188003  0.9876364225423513  0.8589703798632513  1.0000
  O   O16       1.0  0.7525813838070688  0.0123639552041368  0.35896989756101766  1.0000
  O   O17       1.0  0.14110737714251798  0.09456381236900313  0.0273681716908101  1.0000
  O   O18       1.0  0.3588917808841217  0.905436278610928  0.5273665571216455  1.0000
  O   O19       1.0  0.8588936430838885  0.9054354474203311  0.9726326108369464  1.0000
  O   O20       1.0  0.6411071369071949  0.09456407360800509  0.4726329359149872  1.0000
  O   O21       1.0  0.8970882203171014  0.24847903528636547  0.9843376759317125  1.0000
  O   O22       1.0  0.6029113942686664  0.7515205051171066  0.4843360273243746  1.0000
  O   O23       1.0  0.1029132311503744  0.7515158116154909  0.0156663303250753  1.0000
  O   O24       1.0  0.39708734638661264  0.248478742338115  0.5156641104580828  1.0000
  O   O25       1.0  0.571589588938302  0.7207489081169883  0.28887476056974043  1.0000
  O   O26       1.0  0.9284096679858892  0.27925240909017646  0.7888738315781865  1.0000
  O   O27       1.0  0.42841160842555587  0.2792514564346575  0.711124087719746  1.0000
  O   O28       1.0  0.0715875786128137  0.7207446226694927  0.2111263062039086  1.0000
