data_image0
_chemical_formula_structural       Al4H28C46O25
_chemical_formula_sum              "Al4 H28 C46 O25"
_cell_length_a       6.679057030331916
_cell_length_b       18.0511215118349
_cell_length_c       20.828294123972903
_cell_angle_alpha    72.22194562284726
_cell_angle_beta     90.65993486982033
_cell_angle_gamma    91.2510099275764

_space_group_name_H-M_alt    "P 1"
_space_group_IT_number       1

loop_
  _space_group_symop_operation_xyz
  'x, y, z'

loop_
  _atom_site_type_symbol
  _atom_site_label
  _atom_site_symmetry_multiplicity
  _atom_site_fract_x
  _atom_site_fract_y
  _atom_site_fract_z
  _atom_site_occupancy
  Al  Al1       1.0  0.11805063306391618  0.5006263060936078  0.49921015228029125  1.0000
  Al  Al2       1.0  0.6181489044467623  0.5014964732057124  0.4988326790135105  1.0000
  Al  Al3       1.0  0.6259684850423852  0.0006181948255701014  0.9997734223879818  1.0000
  Al  Al4       1.0  0.1259716994140021  0.0006850499087605003  0.0002058817654316  1.0000
  H   H1        1.0  0.223384957603372  0.7244827345046191  0.7274452503822032  1.0000
  H   H2        1.0  0.03271600263238379  0.6849348276115566  0.855013546873785  1.0000
  H   H3        1.0  0.5284512619052393  0.7848344308832866  0.7662013100817902  1.0000
  H   H4        1.0  0.026382060862680096  0.2128428474629942  0.22585848395307553  1.0000
  H   H5        1.0  0.5428856645448406  0.3187060880850368  0.14808935898889788  1.0000
  H   H6        1.0  0.15134444856774823  0.894197937507329  0.6527952890121043  1.0000
  H   H7        1.0  0.11492292048176718  0.3834152188450872  0.15035828746393784  1.0000
  H   H8        1.0  0.7787556781364485  0.3325426117735476  0.281292365214334  1.0000
  H   H9        1.0  0.5420384041375428  0.9593017449737361  0.5115084180580354  1.0000
  H   H10       1.0  0.33568266899093396  0.908074163387241  0.5578483251343158  1.0000
  H   H11       1.0  0.39926119800176  0.0035978304689621003  0.5605211039155193  1.0000
  H   H12       1.0  0.5142227534422261  0.9058123710131839  0.6670946345728411  1.0000
  H   H13       1.0  0.7210295287204431  0.9550430690127175  0.6208926279121202  1.0000
  H   H14       1.0  0.7916574463526445  0.8439148228824039  0.5789545093082892  1.0000
  H   H15       1.0  0.5654637275484475  0.7966922353045406  0.6120197384645394  1.0000
  H   H16       1.0  0.5991695778701854  0.615932595215874  0.8398111778206213  1.0000
  H   H17       1.0  0.035547070933404305  0.043639648004209206  0.487245794002412  1.0000
  H   H18       1.0  0.8208540610914099  0.08503868746956302  0.43980868968416337  1.0000
  H   H19       1.0  0.8961482558647019  0.9904690000744625  0.44211425778776453  1.0000
  H   H20       1.0  0.9989982393360891  0.08736998798844552  0.3321173466627698  1.0000
  H   H21       1.0  0.21073367796923043  0.046620874891075914  0.3789885321179867  1.0000
  H   H22       1.0  0.2631486631591287  0.16251232701789323  0.4181176266058486  1.0000
  H   H23       1.0  0.036278539224880994  0.2025900303526313  0.3799065579055281  1.0000
  H   H24       1.0  0.7034729480331733  0.117840783044926  0.3092095051677006  1.0000
  H   H25       1.0  0.37229488101805686  0.591206192333054  0.5121272251906248  1.0000
  H   H26       1.0  0.8618844834106909  0.4008663906061046  0.5376497818676  1.0000
  H   H27       1.0  0.37016742415985965  0.9066177677760481  0.993486649176866  1.0000
  H   H28       1.0  0.8806445140825828  0.0952119412187145  0.005600659163505398  1.0000
  C   C1        1.0  0.3642813450110721  0.42424093385448464  0.4231201543152423  1.0000
  C   C2        1.0  0.36373414533183995  0.3931414472150224  0.6034040532313583  1.0000
  C   C3        1.0  0.8722855747649233  0.5812249164617853  0.5740857455784436  1.0000
  C   C4        1.0  0.8744394887812206  0.6058478312681146  0.3950695268446863  1.0000
  C   C5        1.0  0.8740662383594896  0.6675633132028909  0.3318876378087978  1.0000
  C   C6        1.0  0.8728125439073935  0.7203735752971668  0.2786275448264206  1.0000
  C   C7        1.0  0.8717687452910851  0.7785033443422338  0.21971661595499367  1.0000
  C   C8        1.0  0.8709279279064502  0.8310769096419719  0.1662708170389068  1.0000
  C   C9        1.0  0.7864325979519221  0.794383043906791  0.6865335054419077  1.0000
  C   C10       1.0  0.9799801032434202  0.8218299220075451  0.7184757951706756  1.0000
  C   C11       1.0  0.8691033707211344  0.8822823333832092  0.8739934834798219  1.0000
  C   C12       1.0  0.8774672379594362  0.6263455642739614  0.6202835605541567  1.0000
  C   C13       1.0  0.6824337487764751  0.771197953356122  0.757118260271625  1.0000
  C   C14       1.0  0.872292164422376  0.7997464376097201  0.78949032529696  1.0000
  C   C15       1.0  0.7721180608191459  0.6878395214323733  0.7748671796205714  1.0000
  C   C16       1.0  0.8799673073022235  0.7096725316380486  0.7040843314664257  1.0000
  C   C17       1.0  0.964181350736702  0.7155022618994664  0.8064776167356486  1.0000
  C   C18       1.0  0.0695565017483446  0.7382396116423282  0.7364280750041985  1.0000
  C   C19       1.0  0.8711076815998098  0.8447173323386822  0.8343491509454707  1.0000
  C   C20       1.0  0.8794003507095525  0.6644026250621665  0.6595754363737072  1.0000
  C   C21       1.0  0.4683046874696615  0.18150616658691382  0.2853017528248003  1.0000
  C   C22       1.0  0.269703886899201  0.20714178198884534  0.3108095831756685  1.0000
  C   C23       1.0  0.358901951043471  0.3792479834911333  0.3767695110421556  1.0000
  C   C24       1.0  0.3857693044915891  0.11903698995951834  0.12594540757958578  1.0000
  C   C25       1.0  0.5579733322061529  0.2662024176006099  0.2676270243377559  1.0000
  C   C26       1.0  0.36046735429193427  0.2936736505896107  0.29497459284010574  1.0000
  C   C27       1.0  0.4656193193546939  0.2872984622941175  0.19483946039100178  1.0000
  C   C28       1.0  0.37417989336687907  0.201938685973829  0.2099961000168307  1.0000
  C   C29       1.0  0.2676565531486972  0.3127782294949314  0.22174621627091534  1.0000
  C   C30       1.0  0.17833148939276805  0.22803788131069783  0.2380026182230921  1.0000
  C   C31       1.0  0.35460935229629353  0.3400306779620479  0.3383908236091457  1.0000
  C   C32       1.0  0.3816897795218709  0.1571541266630021  0.1652157036252362  1.0000
  C   C33       1.0  0.3665992440785003  0.33178957151844907  0.666769987757732  1.0000
  C   C34       1.0  0.37024327538650675  0.2794097574848636  0.7203253658337373  1.0000
  C   C35       1.0  0.3742105162125496  0.22177029935146214  0.7795375641776375  1.0000
  C   C36       1.0  0.3782855109279666  0.16965877006465038  0.8332314168327101  1.0000
  C   C37       1.0  0.3806758536784045  0.10866277339707152  0.8969792561981932  1.0000
  C   C38       1.0  0.38139054476146583  0.0758688035649939  0.07824152718016822  1.0000
  C   C39       1.0  0.8704190293478861  0.8924943526905482  0.10283232319568472  1.0000
  C   C40       1.0  0.871996399817533  0.9254853450947494  0.9217091384506375  1.0000
  C   C41       1.0  0.6856803379296608  0.8354741053708568  0.6210252575322386  1.0000
  C   C42       1.0  0.5981783288674833  0.913684112982807  0.6201241488756822  1.0000
  C   C43       1.0  0.46155411119848827  0.948156577651176  0.5594077076940351  1.0000
  C   C44       1.0  0.16208333990204693  0.1661036514060115  0.3750232915332319  1.0000
  C   C45       1.0  0.08365550753457998  0.08448773091221541  0.37870666720765916  1.0000
  C   C46       1.0  0.9516280702777421  0.0488306399017873  0.4403410421634959  1.0000
  O   O1        1.0  0.5332127257714916  0.4144766873553891  0.5756476227743477  1.0000
  O   O2        1.0  0.19697009493092565  0.43695961742884754  0.446070363894755  1.0000
  O   O3        1.0  0.04399746026923169  0.5784817435411327  0.4173437143682435  1.0000
  O   O4        1.0  0.19242947990608883  0.4192800345366622  0.5813204498270395  1.0000
  O   O5        1.0  0.0404108356022306  0.5671295041772523  0.5521114498274287  1.0000
  O   O6        1.0  0.5364360520610986  0.44628440951966303  0.4378310711667339  1.0000
  O   O7        1.0  0.3701003991492229  0.5471232645024102  0.4946912671945327  1.0000
  O   O8        1.0  0.6991850715676832  0.5602237598492011  0.5587866436978999  1.0000
  O   O9        1.0  0.7049435935840195  0.5854986739371953  0.4227436443085609  1.0000
  O   O10       1.0  0.8654137433750506  0.4541692758527704  0.5082971925439566  1.0000
  O   O11       1.0  0.20886022768932117  0.05564589792925291  0.061869305638872205  1.0000
  O   O12       1.0  0.55177920305659  0.08295806559471693  0.9193645849802508  1.0000
  O   O13       1.0  0.7036174578396697  0.9389488114235008  0.9437726612118168  1.0000
  O   O14       1.0  0.5489632333893866  0.06246678511808312  0.055649217726916306  1.0000
  O   O15       1.0  0.6997147821048697  0.9183021500580113  0.08003802735711216  1.0000
  O   O16       1.0  0.21101061742982807  0.08770756901943601  0.9244578672142012  1.0000
  O   O17       1.0  0.37347108840021553  0.9547496497847875  0.0049963624484163855  1.0000
  O   O18       1.0  0.0406917581627297  0.9137945307908242  0.07591199111995907  1.0000
  O   O19       1.0  0.04387983947629688  0.9456446183300998  0.9385640008244918  1.0000
  O   O20       1.0  0.8783440469495218  0.046633195673180715  0.9948442597119467  1.0000
  O   O21       1.0  0.08334060478240699  0.8919790529802898  0.6945734474675547  1.0000
  O   O22       1.0  0.16755965557568692  0.381934502043265  0.19457300462647  1.0000
  O   O23       1.0  0.7531098329076896  0.27775531360302363  0.2857181067432819  1.0000
  O   O24       1.0  0.6694999502479958  0.6175264403453086  0.7986590821842299  1.0000
  O   O25       1.0  0.5625736294392779  0.1147586185149265  0.3218934380828244  1.0000
