data_image0
_chemical_formula_structural       Hg2H18C20N6O6
_chemical_formula_sum              "Hg2 H18 C20 N6 O6"
_cell_length_a       5.672776211135882
_cell_length_b       8.152752857619246
_cell_length_c       12.40337962071024
_cell_angle_alpha    96.04107260720855
_cell_angle_beta     89.99987345295634
_cell_angle_gamma    89.99792009650527

_space_group_name_H-M_alt    "P 1"
_space_group_IT_number       1

loop_
  _space_group_symop_operation_xyz
  'x, y, z'

loop_
  _atom_site_type_symbol
  _atom_site_label
  _atom_site_symmetry_multiplicity
  _atom_site_fract_x
  _atom_site_fract_y
  _atom_site_fract_z
  _atom_site_occupancy
  Hg  Hg1       1.0  0.7184588086270693  0.7753924022188698  0.5216648493005778  1.0000
  Hg  Hg2       1.0  0.21846109102170172  0.22460433663075458  0.47833703712660025  1.0000
  H   H1        1.0  0.12399203937145128  0.5759835141837326  0.18686465081589884  1.0000
  H   H2        1.0  0.6239322144809165  0.424035882974941  0.8131491165150352  1.0000
  H   H3        1.0  0.9856381236970365  0.6354911989547175  0.004355263487191492  1.0000
  H   H4        1.0  0.48559511505180813  0.36451526331721595  0.9956445069609288  1.0000
  H   H5        1.0  0.36949268726311146  0.8773026061828659  0.1474193771715946  1.0000
  H   H6        1.0  0.8694750875337506  0.12269215569012457  0.852574185901716  1.0000
  H   H7        1.0  0.5036235889537437  0.8178006173637512  0.33006246775558873  1.0000
  H   H8        1.0  0.0036107546225636993  0.18219940768347695  0.6699301392970582  1.0000
  H   H9        1.0  0.6174240951397537  0.8757634170217585  0.7266991535722696  1.0000
  H   H10       1.0  0.11745892578623088  0.12422745132375468  0.2733000726251902  1.0000
  H   H11       1.0  0.5519808533720295  0.031926611114570805  0.635022344721861  1.0000
  H   H12       1.0  0.05202444999889621  0.9680822941733139  0.36498443596419605  1.0000
  H   H13       1.0  0.0917735580190353  0.7785749091892312  0.7762598277435514  1.0000
  H   H14       1.0  0.591776571931284  0.22143634427174413  0.22373818009743465  1.0000
  H   H15       1.0  0.35313871972512345  0.662545403913107  0.7507919841525419  1.0000
  H   H16       1.0  0.8531395932690629  0.3374584480691921  0.2492021190696576  1.0000
  H   H17       1.0  0.09788924405269478  0.6235324476079995  0.6649329152670092  1.0000
  H   H18       1.0  0.5978912289967654  0.37648354598688627  0.3350645537572774  1.0000
  C   C1        1.0  0.10410274088274458  0.603503653258379  0.39256438667445076  1.0000
  C   C2        1.0  0.604089644400446  0.3965075371599482  0.6074440882725582  1.0000
  C   C3        1.0  0.8246546712720428  0.6958367671858027  0.2715270963895335  1.0000
  C   C4        1.0  0.3246039409023851  0.30418291999908575  0.7284768177418356  1.0000
  C   C5        1.0  0.9587845869943266  0.6418573194379247  0.17835846393643348  1.0000
  C   C6        1.0  0.458725397135872  0.3581527079010982  0.821654439792617  1.0000
  C   C7        1.0  0.8821955700616825  0.6735087491355073  0.07652159735256697  1.0000
  C   C8        1.0  0.38214602391979463  0.3265007166458105  0.9234824779692303  1.0000
  C   C9        1.0  0.670796194333974  0.7593485870191046  0.06641720162525638  1.0000
  C   C10       1.0  0.17075946415536694  0.24063821375013109  0.9335777066744058  1.0000
  C   C11       1.0  0.5331054773972709  0.8108629780748872  0.1574301636834576  1.0000
  C   C12       1.0  0.033094703860975  0.18912871402446288  0.8425579024372352  1.0000
  C   C13       1.0  0.6087496741205954  0.7774452420206829  0.25878615140644  1.0000
  C   C14       1.0  0.1087344577693088  0.22257414758098548  0.7412115030486391  1.0000
  C   C15       1.0  0.5309774667221276  0.9038227776627535  0.6520058810459659  1.0000
  C   C16       1.0  0.031016660645256898  0.09618533053623679  0.3479952294355044  1.0000
  C   C17       1.0  0.28448048945533344  0.8470726890971959  0.6421758092758978  1.0000
  C   C18       1.0  0.7844946814700221  0.1529157755374726  0.3578158598452248  1.0000
  C   C19       1.0  0.2046899352622162  0.7180655607452023  0.7117014191095521  1.0000
  C   C20       1.0  0.7046967080444305  0.2819437006927927  0.2882939457781859  1.0000
  N   N1        1.0  0.2844249751330636  0.5432192807619813  0.4151941139904949  1.0000
  N   N2        1.0  0.7843792029068126  0.4567961247245123  0.5848378144403981  1.0000
  N   N3        1.0  0.9016665303152677  0.6736326292371757  0.3755861640847797  1.0000
  N   N4        1.0  0.40164363798284347  0.32636653370956736  0.624421329882594  1.0000
  N   N5        1.0  0.5946532627283004  0.7973879367336636  0.9608384965097301  1.0000
  N   N6        1.0  0.0946577162647557  0.2025689302596092  0.0391547584805991  1.0000
  O   O1        1.0  0.71687181789072  0.7452616640404273  0.8801890168216815  1.0000
  O   O2        1.0  0.21684859126895617  0.25468810477976694  0.11980451712384617  1.0000
  O   O3        1.0  0.4110569235321933  0.8797695562275366  0.9539817688991548  1.0000
  O   O4        1.0  0.9110500384133432  0.1202041370141842  0.0460040878333885  1.0000
  O   O5        1.0  0.1449197727919653  0.9058991702209978  0.5782321527249009  1.0000
  O   O6        1.0  0.6449627736837158  0.09409196664584837  0.42175980521640344  1.0000
