data_image0
_chemical_formula_structural       Ag2H62C60N8O8
_chemical_formula_sum              "Ag2 H62 C60 N8 O8"
_cell_length_a       9.598506866709503
_cell_length_b       10.103963344986534
_cell_length_c       14.136564976103259
_cell_angle_alpha    97.99664203766186
_cell_angle_beta     91.6170235677993
_cell_angle_gamma    100.57504450670791

_space_group_name_H-M_alt    "P 1"
_space_group_IT_number       1

loop_
  _space_group_symop_operation_xyz
  'x, y, z'

loop_
  _atom_site_type_symbol
  _atom_site_label
  _atom_site_symmetry_multiplicity
  _atom_site_fract_x
  _atom_site_fract_y
  _atom_site_fract_z
  _atom_site_occupancy
  Ag  Ag1       1.0  0.7254836066710767  0.5428417837684307  0.7079773215393742  1.0000
  Ag  Ag2       1.0  0.2745161206522369  0.4571509861746391  0.2920215108659434  1.0000
  H   H1        1.0  0.7550293273878809  0.5185666774327515  0.38659278630708366  1.0000
  H   H2        1.0  0.2449707629902633  0.4814332241080167  0.6134053647860753  1.0000
  H   H3        1.0  0.6794186601042328  0.5632270406387576  0.49772466410765054  1.0000
  H   H4        1.0  0.3205816304078369  0.43677387873956536  0.5022735946560672  1.0000
  H   H5        1.0  0.6122454445156651  0.40392709939505533  0.4255411891373058  1.0000
  H   H6        1.0  0.3877567306788095  0.5960728038256137  0.5744570041286607  1.0000
  H   H7        1.0  0.99907659298151  0.42796817945887966  0.7679633437696296  1.0000
  H   H8        1.0  0.0009228529935327742  0.5720337531296308  0.2320357085380849  1.0000
  H   H9        1.0  0.1643648418626285  0.2632956192959383  0.7671663512178242  1.0000
  H   H10       1.0  0.8356341993190173  0.736704270042658  0.2328338996684423  1.0000
  H   H11       1.0  0.2024670283626264  0.1184040178551982  0.6168516667516641  1.0000
  H   H12       1.0  0.7975318126850937  0.8815948536458506  0.3831484764640436  1.0000
  H   H13       1.0  0.0781660189720199  0.1331489127064884  0.46272480261252713  1.0000
  H   H14       1.0  0.921832817550147  0.8668499512197414  0.537276754522857  1.0000
  H   H15       1.0  0.9808409447499432  0.2365747155249167  0.34393782757127417  1.0000
  H   H16       1.0  0.019159143365420975  0.7634251822284455  0.6560610304817232  1.0000
  H   H17       1.0  0.8747782825723932  0.3521303285370935  0.3167743501262024  1.0000
  H   H18       1.0  0.1252205652636675  0.6478685543261804  0.6832236722099907  1.0000
  H   H19       1.0  0.7462282206298455  0.0819943714878875  0.38368531054152305  1.0000
  H   H20       1.0  0.2537729053681304  0.9180055195306093  0.616314982517558  1.0000
  H   H21       1.0  0.6548233868073369  0.19199612013700568  0.3317207223697451  1.0000
  H   H22       1.0  0.3451766967824739  0.8080037700415375  0.6682795496029286  1.0000
  H   H23       1.0  0.7982585185523733  0.14989576785743708  0.181169569788274  1.0000
  H   H24       1.0  0.2017424073116842  0.8501031053235123  0.8188306156002413  1.0000
  H   H25       1.0  0.8580556265606278  0.021646151625049  0.23309044302325083  1.0000
  H   H26       1.0  0.14194738411975294  0.9783527232358011  0.766909784538079  1.0000
  H   H27       1.0  0.611169430330385  0.8932732155023327  0.23204789714794316  1.0000
  H   H28       1.0  0.3888308579188973  0.1067277000885838  0.767951068575613  1.0000
  H   H29       1.0  0.5431038599285858  0.028029933362077507  0.1923525391926262  1.0000
  H   H30       1.0  0.4568981128691902  0.9719689482336379  0.8076462533626199  1.0000
  H   H31       1.0  0.7516693674534666  0.877351896515883  0.0807473568482635  1.0000
  H   H32       1.0  0.24833156293614417  0.1226469842398856  0.9192514146205824  1.0000
  H   H33       1.0  0.6682330849296038  0.0013134685646321001  0.0406837184800253  1.0000
  H   H34       1.0  0.3317668007890617  0.9986854075637764  0.9593157388622516  1.0000
  H   H35       1.0  0.43017974288181193  0.8469004119556371  0.03789344196596286  1.0000
  H   H36       1.0  0.5698203407079916  0.15309947822291287  0.9621068300067107  1.0000
  H   H37       1.0  0.5492984691290205  0.7732113050501113  0.9639444983234357  1.0000
  H   H38       1.0  0.45070101179625516  0.22678552782838324  0.0360561575973932  1.0000
  H   H39       1.0  0.32239717598197604  0.842555252584276  0.18938117327663656  1.0000
  H   H40       1.0  0.6776014649318256  0.15744260107923222  0.8106188622685124  1.0000
  H   H41       1.0  0.22073051269699562  0.6919407497160391  0.22276082815456988  1.0000
  H   H42       1.0  0.7792698127652998  0.3080550699522604  0.7772390342222694  1.0000
  H   H43       1.0  0.21730764630342486  0.7186246776226284  0.10119950550483735  1.0000
  H   H44       1.0  0.7826914411423475  0.2813701309429959  0.8987988141953664  1.0000
  H   H45       1.0  0.7651631982572554  0.6529558843934423  0.9926731990492641  1.0000
  H   H46       1.0  0.23483668293584972  0.3470429841601473  0.007327672212689191  1.0000
  H   H47       1.0  0.8920019366258388  0.47347743274310267  0.033432611255996385  1.0000
  H   H48       1.0  0.10799358385180821  0.526520429762776  0.9665652401504303  1.0000
  H   H49       1.0  0.8019492203823332  0.3236240289829552  0.1474345587214998  1.0000
  H   H50       1.0  0.19805403669609933  0.67637078294247  0.8525638453243118  1.0000
  H   H51       1.0  0.5739514243086745  0.34399979108475515  0.2298495235478271  1.0000
  H   H52       1.0  0.4260513862377878  0.6559980659385403  0.7701505963429441  1.0000
  H   H53       1.0  0.03995194748242876  0.7716139424676028  0.025375116856537285  1.0000
  H   H54       1.0  0.9600503838446173  0.22839206315099148  0.9746244083062194  1.0000
  H   H55       1.0  0.12371259205635  0.9731439121005749  0.15118168278694813  1.0000
  H   H56       1.0  0.8762893412656325  0.026860061630330292  0.848816920074853  1.0000
  H   H57       1.0  0.768344721289971  0.8684458518863564  0.7359796323155408  1.0000
  H   H58       1.0  0.2316539173610508  0.13155199798973877  0.2640211101894465  1.0000
  H   H59       1.0  0.4776631432555476  0.7487462811977464  0.46336226161994887  1.0000
  H   H60       1.0  0.5223329245713871  0.2512597042315221  0.5366399648637454  1.0000
  H   H61       1.0  0.6494812375422186  0.1279305033545057  0.6418354570734266  1.0000
  H   H62       1.0  0.3505138341406849  0.8720704004618443  0.35816481713778364  1.0000
  C   C1        1.0  0.7092166201794897  0.47921745666285887  0.449834469493446  1.0000
  C   C2        1.0  0.2907838704664912  0.5207844805530044  0.5501638969408376  1.0000
  C   C3        1.0  0.8118307859066219  0.4189659403387152  0.5021020478241809  1.0000
  C   C4        1.0  0.18816741978911725  0.5810349773597069  0.4978961687667294  1.0000
  C   C5        1.0  0.9420323712277608  0.3683194359794655  0.6165027837974718  1.0000
  C   C6        1.0  0.057965636596833306  0.631680467668815  0.3834946181630485  1.0000
  C   C7        1.0  0.013766049259359595  0.36157488866332693  0.7027366940752984  1.0000
  C   C8        1.0  0.9862335968495942  0.6384280617627313  0.2972624659029747  1.0000
  C   C9        1.0  0.1064721731005989  0.2699139556457055  0.7010244826311977  1.0000
  C   C10       1.0  0.8935293182149807  0.7300930707579028  0.29897442215588654  1.0000
  C   C11       1.0  0.1284048601283629  0.18812041112460068  0.6155909042216122  1.0000
  C   C12       1.0  0.8715968707969282  0.811882540981351  0.3844082979294683  1.0000
  C   C13       1.0  0.0599654929401296  0.19603793143959797  0.5286465285135122  1.0000
  C   C14       1.0  0.940034188119064  0.8039599192764442  0.4713542350778823  1.0000
  C   C15       1.0  0.9674802281838383  0.2880022908147595  0.5307251486833735  1.0000
  C   C16       1.0  0.032518617389442284  0.7119965882611153  0.4692735806126649  1.0000
  C   C17       1.0  0.8794725717091154  0.2690714823110767  0.3585954179075515  1.0000
  C   C18       1.0  0.12052647173531031  0.7309284108149328  0.6414041260188839  1.0000
  C   C19       1.0  0.7539190364065151  0.15174266866245734  0.329949513053883  1.0000
  C   C20       1.0  0.24608124957999422  0.8482582431410465  0.6700501596295112  1.0000
  C   C21       1.0  0.7686665075375317  0.0759534307861429  0.23077601518178883  1.0000
  C   C22       1.0  0.23133565634304895  0.9240464534974823  0.7692257128833759  1.0000
  C   C23       1.0  0.6350631973087106  0.9763195356234818  0.18850884881477012  1.0000
  C   C24       1.0  0.3649381288231838  0.0236813732325629  0.8114915519148626  1.0000
  C   C25       1.0  0.6532383948469944  0.918618316728285  0.08475585830970542  1.0000
  C   C26       1.0  0.3467616887428093  0.0813815734502654  0.9152444136629684  1.0000
  C   C27       1.0  0.53001544483201  0.8085970533877216  0.03868707297294087  1.0000
  C   C28       1.0  0.4699846387577935  0.19140283679082867  0.9613131989997328  1.0000
  C   C29       1.0  0.2852479696000074  0.7328282640516549  0.1671335974283679  1.0000
  C   C30       1.0  0.7147515135880411  0.2671685726142528  0.8328663515326298  1.0000
  C   C31       1.0  0.4040032105373684  0.6587804125436207  0.15147454624803203  1.0000
  C   C32       1.0  0.5959962658623397  0.3412164127600548  0.8485275235924803  1.0000
  C   C33       1.0  0.600764320813191  0.6012239532327754  0.09243996453945867  1.0000
  C   C34       1.0  0.3992347113173339  0.3987759209561831  0.9075631141861678  1.0000
  C   C35       1.0  0.7240498995523622  0.5884834263144184  0.04491481163699259  1.0000
  C   C36       1.0  0.2759487390986593  0.41151442356167683  0.9550859308680018  1.0000
  C   C37       1.0  0.7934309879502236  0.4861055351296101  0.06680901638193149  1.0000
  C   C38       1.0  0.2065701403105251  0.5138943596762929  0.9331905697173113  1.0000
  C   C39       1.0  0.740341746435071  0.3992452325968543  0.132499680517931  1.0000
  C   C40       1.0  0.259661710777273  0.6007505971661118  0.8674988311984392  1.0000
  C   C41       1.0  0.615852862735686  0.4108314599347765  0.17879862708795  1.0000
  C   C42       1.0  0.38414955433128034  0.5891643727756489  0.8211991565821819  1.0000
  C   C43       1.0  0.5458650572787748  0.5142157250458794  0.158444822114383  1.0000
  C   C44       1.0  0.45413402337865716  0.4857790721575198  0.8415556184653283  1.0000
  C   C45       1.0  0.9046549121910206  0.7607918691302444  0.856895639481067  1.0000
  C   C46       1.0  0.0953505440977409  0.23921413522078439  0.1431046559007427  1.0000
  C   C47       1.0  0.9535032456132767  0.886045673597039  0.9296687146999005  1.0000
  C   C48       1.0  0.04650136840123759  0.11396134775159077  0.0703316672660677  1.0000
  C   C49       1.0  0.023859496289212186  0.8727826461185656  0.01515258852462858  1.0000
  C   C50       1.0  0.9761438797087721  0.1272233641273885  0.9848462507646972  1.0000
  C   C51       1.0  0.07007533041986848  0.9851912756310739  0.08484927947858269  1.0000
  C   C52       1.0  0.9299270031699579  0.014814733774933598  0.9151495387243429  1.0000
  C   C53       1.0  0.6372043878866194  0.8525006536208154  0.6243469276436713  1.0000
  C   C54       1.0  0.3627929224824058  0.14750635048594773  0.37565542759698184  1.0000
  C   C55       1.0  0.5702866032914997  0.9305740522584928  0.559387286259799  1.0000
  C   C56       1.0  0.42970801733388  0.06942988908091512  0.4406161177160399  1.0000
  C   C57       1.0  0.4868289668020154  0.8587707012398127  0.47891073479815555  1.0000
  C   C58       1.0  0.513164609152419  0.14123323547224234  0.5210933550511214  1.0000
  C   C59       1.0  0.5836508695627103  0.0724519193420363  0.5798712036766461  1.0000
  C   C60       1.0  0.41634792974644347  0.9275520405068036  0.4201294568054621  1.0000
  N   N1        1.0  0.8438297288550771  0.447417109076106  0.5962286412542639  1.0000
  N   N2        1.0  0.15617076405368377  0.5525848319271701  0.4037690182201743  1.0000
  N   N3        1.0  0.8855460871821637  0.3242705919748304  0.4597009608240938  1.0000
  N   N4        1.0  0.11445295852503531  0.6757293049385851  0.5402978761425032  1.0000
  N   N5        1.0  0.5080253756124122  0.6911157867294265  0.08947308116378141  1.0000
  N   N6        1.0  0.49197553893774437  0.308883067514479  0.9105306390239251  1.0000
  N   N7        1.0  0.4231869895201612  0.5525679216039022  0.1935035240752256  1.0000
  N   N8        1.0  0.5768154184956842  0.4474278959568919  0.8064970874342663  1.0000
  O   O1        1.0  0.8253674395584982  0.7715447079164691  0.7837780451389236  1.0000
  O   O2        1.0  0.17463368643947774  0.22845518310202106  0.2162222479201574  1.0000
  O   O3        1.0  0.9399392791753772  0.6512735715380414  0.8704130116610075  1.0000
  O   O4        1.0  0.0600723852982483  0.3487375186256543  0.12958934142529438  1.0000
  O   O5        1.0  0.6091161169274032  0.7263567935281401  0.6142827488686038  1.0000
  O   O6        1.0  0.3908839666624005  0.2736430966504032  0.3857175231040699  1.0000
  O   O7        1.0  0.7247051450418669  0.9298422981687011  0.6931277110680725  1.0000
  O   O8        1.0  0.2752882239903088  0.0701606093435743  0.3068783919901605  1.0000
