data_image0
_chemical_formula_structural       Al6H41C84N9O28F12
_chemical_formula_sum              "Al6 H41 C84 N9 O28 F12"
_cell_length_a       12.612203982129891
_cell_length_b       12.952728099616579
_cell_length_c       27.772429050245012
_cell_angle_alpha    89.50479882782655
_cell_angle_beta     88.09251825298132
_cell_angle_gamma    60.05993728714962

_space_group_name_H-M_alt    "P 1"
_space_group_IT_number       1

loop_
  _space_group_symop_operation_xyz
  'x, y, z'

loop_
  _atom_site_type_symbol
  _atom_site_label
  _atom_site_symmetry_multiplicity
  _atom_site_fract_x
  _atom_site_fract_y
  _atom_site_fract_z
  _atom_site_occupancy
  Al  Al1       1.0  0.19424937061477004  0.4097670518638452  0.4926110068527693  1.0000
  Al  Al2       1.0  0.9322384442270959  0.6474746526791363  0.4978559250930133  1.0000
  Al  Al3       1.0  0.9347980074266782  0.4166422705080279  0.4975641897614552  1.0000
  Al  Al4       1.0  0.15764304388609657  0.9074680341774837  0.9840199466142608  1.0000
  Al  Al5       1.0  0.4057727525473566  0.9171217939363245  0.9833259090538818  1.0000
  Al  Al6       1.0  0.4261716125208821  0.6759707496330805  0.9848311960479992  1.0000
  H   H1        1.0  0.7223273759742099  0.8270251954430844  0.20897997555537273  1.0000
  H   H2        1.0  0.33737856251679677  0.9698614512640588  0.21720410180061123  1.0000
  H   H3        1.0  0.3229392440109677  0.4524582637563483  0.21557603865293373  1.0000
  H   H4        1.0  0.3500277139131568  0.6107328231660388  0.27793586258036385  1.0000
  H   H5        1.0  0.09795854261949437  0.5132344955469249  0.26405811420553965  1.0000
  H   H6        1.0  0.9734290077693329  0.701050971586703  0.19755822579365656  1.0000
  H   H7        1.0  0.9982613477752548  0.8575022032689358  0.2602144122226377  1.0000
  H   H8        1.0  0.22794740693452548  0.7954108085298299  0.21118710184361336  1.0000
  H   H9        1.0  0.4274836710368744  0.8874784978209718  0.8484933044965715  1.0000
  H   H10       1.0  0.7656138605725004  0.5134842262583132  0.7773523038011305  1.0000
  H   H11       1.0  0.7319201332528137  0.532922626052759  0.8664093804739252  1.0000
  H   H12       1.0  0.9359619618592203  0.3367611703425766  0.6332186753366217  1.0000
  H   H13       1.0  0.8887312574658989  0.599084206453888  0.2463880677371577  1.0000
  H   H14       1.0  0.0167497078172545  0.1425555858094327  0.7760421438641671  1.0000
  H   H15       1.0  0.05588949160974719  0.07717171754397609  0.8612941113955871  1.0000
  H   H16       1.0  0.351005679576069  0.11104546658567929  0.6994956629986007  1.0000
  H   H17       1.0  0.3168368274721444  0.5645564944301  0.5977675234956905  1.0000
  H   H18       1.0  0.1661866129508382  0.8669263986829279  0.8478741387107364  1.0000
  H   H19       1.0  0.004277799815710596  0.6991950338639581  0.7312536041664972  1.0000
  H   H20       1.0  0.6113228825454086  0.5372701265704335  0.27305264631468873  1.0000
  H   H21       1.0  0.9721477843213362  0.17067874108901282  0.21316652413813847  1.0000
  H   H22       1.0  0.4187134771679126  0.1734237445692344  0.25169401614239467  1.0000
  H   H23       1.0  0.3515907015849323  0.1992499328892093  0.30627451627388785  1.0000
  H   H24       1.0  0.6779214041609833  0.9045051786664543  0.6318011623137706  1.0000
  H   H25       1.0  0.7256590520414576  0.8235935383096373  0.5780061575148708  1.0000
  H   H26       1.0  0.5023796300458012  0.967384490937171  0.28514240041902644  1.0000
  H   H27       1.0  0.5358384616238536  0.8730381291867175  0.3317912249203872  1.0000
  H   H28       1.0  0.43307068583781216  0.8729220431666459  0.7184848806407942  1.0000
  H   H29       1.0  0.36198486553787707  0.9554505180181324  0.7694043088350073  1.0000
  H   H30       1.0  0.39540355719645254  0.12087523680866495  0.8998278844799188  1.0000
  H   H31       1.0  0.4221459071758177  0.18397016704994934  0.8474147454793199  1.0000
  H   H32       1.0  0.14134263131774114  0.8553366968436648  0.7177797463492015  1.0000
  H   H33       1.0  0.13334171359721836  0.9412197339408334  0.7652429322167933  1.0000
  H   H34       1.0  0.42655459316613786  0.5675310237437755  0.7170558517541465  1.0000
  H   H35       1.0  0.4659019250099376  0.5300911920906941  0.6584428141180184  1.0000
  H   H36       1.0  0.8265141589214906  0.40061565376871755  0.20262486794236886  1.0000
  H   H37       1.0  0.8097267031660919  0.48256837569891076  0.153493328131141  1.0000
  H   H38       1.0  0.11774158011196073  0.9332366632643739  0.2668511688925364  1.0000
  H   H39       1.0  0.17620919226877854  0.9559683639845744  0.31591311931504157  1.0000
  H   H40       1.0  0.3955380076638945  0.2874778362879695  0.5160566382425317  1.0000
  H   H41       1.0  0.9624474928893396  0.9591111410135222  0.9580072407814628  1.0000
  C   C1        1.0  0.1052057874764003  0.6217933630305054  0.42921970720482966  1.0000
  C   C2        1.0  0.75775928643975  0.6198206836905057  0.3794905748503439  1.0000
  C   C3        1.0  0.5462022631475346  0.7263015153050745  0.23870920617642355  1.0000
  C   C4        1.0  0.6347284969971483  0.7069853940449491  0.19327802920629011  1.0000
  C   C5        1.0  0.6356442629472381  0.6018190229393099  0.25874483923453084  1.0000
  C   C6        1.0  0.7000971303901833  0.657204580166578  0.2882614121917086  1.0000
  C   C7        1.0  0.7251444087645351  0.5789134679429964  0.21462652777314165  1.0000
  C   C8        1.0  0.7902377746907165  0.6368377648090017  0.24344455578369661  1.0000
  C   C9        1.0  0.6065160245389617  0.7247809276266182  0.1440361587205956  1.0000
  C   C10       1.0  0.7323363180766974  0.635017278252313  0.3370131230733193  1.0000
  C   C11       1.0  0.14585309736148128  0.0746298110515013  0.26220758403833605  1.0000
  C   C12       1.0  0.8056284351085663  0.595812523219692  0.4269260892203307  1.0000
  C   C13       1.0  0.054835115945081676  0.16760402307689753  0.22577225587481567  1.0000
  C   C14       1.0  0.19167308316080778  0.10050299268137759  0.09882458905826043  1.0000
  C   C15       1.0  0.13184054959588554  0.22161065664575827  0.3826545749420163  1.0000
  C   C16       1.0  0.25915507932202786  0.0552883666404824  0.2283262207375572  1.0000
  C   C17       1.0  0.16640705184147464  0.14802292245754237  0.1915972709204397  1.0000
  C   C18       1.0  0.26532179571058373  0.1575074689067222  0.2556729493936984  1.0000
  C   C19       1.0  0.15344330422731636  0.17723939220920928  0.28978506923455444  1.0000
  C   C20       1.0  0.17241263602049628  0.25085657326527405  0.21928264776089185  1.0000
  C   C21       1.0  0.06170796470281906  0.2686505659559941  0.2526272006670284  1.0000
  C   C22       1.0  0.17767016817015954  0.12682310113714823  0.1414319288329011  1.0000
  C   C23       1.0  0.11044197117565345  0.27628166795937403  0.42948372234159393  1.0000
  C   C24       1.0  0.14348528927765603  0.1976507514406123  0.33980620921745  1.0000
  C   C25       1.0  0.2669322086322339  0.6299435510823911  0.2595753379465719  1.0000
  C   C26       1.0  0.25165094963310236  0.5425927163070413  0.2258537868942341  1.0000
  C   C27       1.0  0.22371420200094858  0.659332298906385  0.09625621477544401  1.0000
  C   C28       1.0  0.11701067793431727  0.6560327073202996  0.38098916234243774  1.0000
  C   C29       1.0  0.19711107045505818  0.7344994682777679  0.22401527052269196  1.0000
  C   C30       1.0  0.1825062876673371  0.6468045960136164  0.1888363000953177  1.0000
  C   C31       1.0  0.07153152454748118  0.7680779006583689  0.24989569521412855  1.0000
  C   C32       1.0  0.14122538722474323  0.6640355683848114  0.2869044897933151  1.0000
  C   C33       1.0  0.0568484157834207  0.6807156603339946  0.21595340193722737  1.0000
  C   C34       1.0  0.10044112708712293  0.6080930433904044  0.5674901707316309  1.0000
  C   C35       1.0  0.12661390531319233  0.5761645562415224  0.2517445470022253  1.0000
  C   C36       1.0  0.2044171695642021  0.6480810422551925  0.1387323707226429  1.0000
  C   C37       1.0  0.1249032411996253  0.6648567097467079  0.33743900262219034  1.0000
  C   C38       1.0  0.7090363076069577  0.6383902565274936  0.608134150053651  1.0000
  C   C39       1.0  0.6776906280558704  0.7480736124023863  0.6320335460108454  1.0000
  C   C40       1.0  0.6460131847436089  0.7583712688923611  0.6817516501000966  1.0000
  C   C41       1.0  0.6392498304929146  0.6721903385870859  0.7097120283279708  1.0000
  C   C42       1.0  0.6647786937090955  0.5678330169872723  0.6844431987728897  1.0000
  C   C43       1.0  0.6962753266300294  0.552385032729127  0.6358612948927345  1.0000
  C   C44       1.0  0.5104721749263206  0.790625759921454  0.782244306557992  1.0000
  C   C45       1.0  0.7709568735539919  0.6079646744063041  0.5603779127326263  1.0000
  C   C46       1.0  0.5010456799807058  0.8050322303618956  0.8326393916610828  1.0000
  C   C47       1.0  0.6726870923103332  0.6053706723951463  0.8429606771344214  1.0000
  C   C48       1.0  0.6895191317385353  0.5943887751076459  0.7931713924991186  1.0000
  C   C49       1.0  0.612147155331918  0.6859580037847194  0.7621673140913715  1.0000
  C   C50       1.0  0.580063163097989  0.7138781163578116  0.8626249826104841  1.0000
  C   C51       1.0  0.13000985914447932  0.24888689362380492  0.6167941347222482  1.0000
  C   C52       1.0  0.02699152791635835  0.2874978162139783  0.6478210714746455  1.0000
  C   C53       1.0  0.04101995582605158  0.26590831040098806  0.6966779801080492  1.0000
  C   C54       1.0  0.15605219618051797  0.2023869780781452  0.7175416987330225  1.0000
  C   C55       1.0  0.2589110157321243  0.1614984895852984  0.6859700141781815  1.0000
  C   C56       1.0  0.11011164127501154  0.28957490545888476  0.5658646922114984  1.0000
  C   C57       1.0  0.24544518192573864  0.18522899134256932  0.6370973371102694  1.0000
  C   C58       1.0  0.2612120285664973  0.17663656840689151  0.7952874879457639  1.0000
  C   C59       1.0  0.28482998200268367  0.14308534273399687  0.8441954346394669  1.0000
  C   C60       1.0  0.1133465978156494  0.10555703167140958  0.8419322147177442  1.0000
  C   C61       1.0  0.09224305642152328  0.140991397327852  0.7945107377269665  1.0000
  C   C62       1.0  0.16942778252547436  0.17521734084229476  0.7694083419408744  1.0000
  C   C63       1.0  0.20977267627223029  0.102558686647086  0.8672256198954785  1.0000
  C   C64       1.0  0.12903355992408902  0.6262236146897705  0.6172922420653536  1.0000
  C   C65       1.0  0.2488292567611764  0.596521370977456  0.6274301891052759  1.0000
  C   C66       1.0  0.28250642895880407  0.6063446463960459  0.6741244268721474  1.0000
  C   C67       1.0  0.6092309546451915  0.7862848618787833  0.2680299191350528  1.0000
  C   C68       1.0  0.19295871837066875  0.6435263844670301  0.7121006600557609  1.0000
  C   C69       1.0  0.07339735458047866  0.672005690802763  0.7021891349509704  1.0000
  C   C70       1.0  0.042530114945158494  0.6640731656233355  0.655557773141787  1.0000
  C   C71       1.0  0.1837372436968535  0.7696674799034966  0.7823267671027311  1.0000
  C   C72       1.0  0.1983739764464687  0.7796936216091764  0.8315316217730881  1.0000
  C   C73       1.0  0.2959982179503483  0.5667761945817205  0.8412446563512574  1.0000
  C   C74       1.0  0.2772032935398627  0.556943995260525  0.7926822794023992  1.0000
  C   C75       1.0  0.22106899920993348  0.6555470699001302  0.7625821716408084  1.0000
  C   C76       1.0  0.2538813536932664  0.6798047698684754  0.8611682837863982  1.0000
  C   C77       1.0  0.22140432239370963  0.045983674707748896  0.051773625466943016  1.0000
  C   C78       1.0  0.6988122754044284  0.7620313034200378  0.22348558127012555  1.0000
  C   C79       1.0  0.5470270120575831  0.7439426831256453  0.052454795943340606  1.0000
  C   C80       1.0  0.24847101112513292  0.6948052474314109  0.05009008696610811  1.0000
  C   C81       1.0  0.23364327369617402  0.04834578018814279  0.915513830481629  1.0000
  C   C82       1.0  0.5531514543276826  0.7344127733765828  0.915324526056523  1.0000
  C   C83       1.0  0.2672304791340068  0.7021825500785752  0.9126521071277411  1.0000
  C   C84       1.0  0.5879041918749548  0.7316737606998699  0.10090617543968251  1.0000
  N   N1        1.0  0.3715707410159295  0.1494288619024218  0.27545301755477425  1.0000
  N   N2        1.0  0.6787628884207918  0.8416135551700918  0.6101398556036415  1.0000
  N   N3        1.0  0.5635841062544384  0.8855117294849604  0.29848145392570313  1.0000
  N   N4        1.0  0.4189629860386432  0.8740872295483441  0.7545833313163897  1.0000
  N   N5        1.0  0.376833114756863  0.1486934142343515  0.8653233975149989  1.0000
  N   N6        1.0  0.12727705562873104  0.8700742279405774  0.7538696255850967  1.0000
  N   N7        1.0  0.399452789611338  0.5846102820728377  0.6824977977641  1.0000
  N   N8        1.0  0.7697106109169662  0.4771006220500027  0.18518843678744193  1.0000
  N   N9        1.0  0.11934647387020884  0.9961285792624538  0.2880831578615074  1.0000
  O   O1        1.0  0.18465139327013702  0.3089112885067208  0.4415795872874854  1.0000
  O   O2        1.0  0.7946388406011305  0.68411942393422  0.5393269136453825  1.0000
  O   O3        1.0  0.8058519110476678  0.5049874574639972  0.5421859779108473  1.0000
  O   O4        1.0  0.006762204030366112  0.31292181341370195  0.5488580098659241  1.0000
  O   O5        1.0  0.019360121277905786  0.49110237719808936  0.4963796135890419  1.0000
  O   O6        1.0  0.17003017076179824  0.7963643565193335  0.0354394442429395  1.0000
  O   O7        1.0  0.14954807886291377  0.015489815653559398  0.0347608274745639  1.0000
  O   O8        1.0  0.32337230707105397  0.0285910885567517  0.032324578197240314  1.0000
  O   O9        1.0  0.5280346148947291  0.8371692034578397  0.029016313865476203  1.0000
  O   O10       1.0  0.52754460007435  0.6624549678089479  0.03683033012409711  1.0000
  O   O11       1.0  0.3514041190150364  0.6220400297996774  0.028337939737284008  1.0000
  O   O12       1.0  0.18297067846491893  0.5171626153710065  0.44105559587166  1.0000
  O   O13       1.0  0.18021356160230076  0.7953268623594096  0.9319277423432626  1.0000
  O   O14       1.0  0.16585831889516814  0.009278744877001097  0.9315403549732509  1.0000
  O   O15       1.0  0.32742327570969115  0.038307595930241696  0.938150095550917  1.0000
  O   O16       1.0  0.519690437620376  0.8388442218021053  0.9315942256527024  1.0000
  O   O17       1.0  0.5556904150580165  0.6505763693655026  0.9410011520769787  1.0000
  O   O18       1.0  0.3679940760294968  0.6297698707944832  0.9326828586435596  1.0000
  O   O19       1.0  0.33174544627257774  0.8325809142293537  0.9842311727643323  1.0000
  O   O20       1.0  0.013774553732588431  0.6978897729001972  0.4560130723325885  1.0000
  O   O21       1.0  0.8284365715981037  0.6726577497952917  0.4454209500550307  1.0000
  O   O22       1.0  0.8264328400776365  0.49789889346049404  0.44661012097940045  1.0000
  O   O23       1.0  0.01426649807434193  0.29186290367827167  0.4537151652553321  1.0000
  O   O24       1.0  0.1905775203737434  0.3053952504134755  0.5445183657610215  1.0000
  O   O25       1.0  0.18302911056370866  0.5199469819704345  0.5440626120543399  1.0000
  O   O26       1.0  0.993255602093917  0.6820900566707095  0.5520856209007121  1.0000
  O   O27       1.0  0.35440949585063214  0.3350273601538233  0.48847702812760474  1.0000
  O   O28       1.0  0.9975441841760928  0.9795820107415594  0.9841091630904444  1.0000
  F   F1        1.0  0.18503709613163008  0.3391237652779536  0.1974534524813194  1.0000
  F   F2        1.0  0.628311172829157  0.8607178341137001  0.7035993965205591  1.0000
  F   F3        1.0  0.6537279198492953  0.4806037049383319  0.7078661368225384  1.0000
  F   F4        1.0  0.7144004259489236  0.44967656188217825  0.6156745379159576  1.0000
  F   F5        1.0  0.336706084926547  0.21224575671439536  0.773682320379294  1.0000
  F   F6        1.0  0.937176892437577  0.3116906491884563  0.7254223200674161  1.0000
  F   F7        1.0  0.3489046648703322  0.1419503926258443  0.608929823021356  1.0000
  F   F8        1.0  0.31300943277796  0.446804882489289  0.7744547142352405  1.0000
  F   F9        1.0  0.3486787531021207  0.4665460793235425  0.8682489754358758  1.0000
  F   F10       1.0  0.9259481892366638  0.6875001908365589  0.6483750108868166  1.0000
  F   F11       1.0  0.4219325115755195  0.7709771214143191  0.23613721196622353  1.0000
  F   F12       1.0  0.96325121695957  0.37615516724304826  0.26635868502072674  1.0000
