data_image0
_chemical_formula_structural       Hg8H60C40S8I12N16
_chemical_formula_sum              "Hg8 H60 C40 S8 I12 N16"
_cell_length_a       8.341912916
_cell_length_b       11.837528433379156
_cell_length_c       21.188
_cell_angle_alpha    97.99104310541792
_cell_angle_beta     90.0
_cell_angle_gamma    90.0

_space_group_name_H-M_alt    "P 1"
_space_group_IT_number       1

loop_
  _space_group_symop_operation_xyz
  'x, y, z'

loop_
  _atom_site_type_symbol
  _atom_site_label
  _atom_site_symmetry_multiplicity
  _atom_site_fract_x
  _atom_site_fract_y
  _atom_site_fract_z
  _atom_site_occupancy
  Hg  Hg1       1.0  0.1487668371147493  0.1912052866693656  0.626767213966282  1.0000
  Hg  Hg2       1.0  0.6487684604834101  0.8087943873786045  0.8732338462377313  1.0000
  Hg  Hg3       1.0  0.8512280182618994  0.8087960934871106  0.3732335067827747  1.0000
  Hg  Hg4       1.0  0.3512347862539116  0.1912061397236258  0.1267658643256482  1.0000
  Hg  Hg5       1.0  0.7711360769137059  0.4694400214176113  0.5247359821958425  1.0000
  Hg  Hg6       1.0  0.2711416461399097  0.5305605056846119  0.9752642003327949  1.0000
  Hg  Hg7       1.0  0.2288587784629428  0.5305596526303589  0.4752650780081709  1.0000
  Hg  Hg8       1.0  0.7288604018316038  0.46943831530910535  0.0247344337897459  1.0000
  H   H1        1.0  0.4479464168024165  0.3602755215479192  0.5980187505829448  1.0000
  H   H2        1.0  0.9479492389368858  0.639727564717063  0.9019821026764204  1.0000
  H   H3        1.0  0.5520544324032812  0.6397258586085571  0.4019814982008469  1.0000
  H   H4        1.0  0.0520480139713797  0.36027722765643233  0.09801793916273031  1.0000
  H   H5        1.0  0.533491543823736  0.192063459249205  0.49857541847435255  1.0000
  H   H6        1.0  0.0334971130499397  0.8079387739615314  0.001424424599328198  1.0000
  H   H7        1.0  0.46650690785034504  0.8079370678530182  0.5014252360195499  1.0000
  H   H8        1.0  0.9664989410925173  0.192064312303458  0.998575484729514  1.0000
  H   H9        1.0  0.7242751226054622  0.2031872867253952  0.7976987778089395  1.0000
  H   H10       1.0  0.2242699029393691  0.7968149464853413  0.7023024811605366  1.0000
  H   H11       1.0  0.275726925366051  0.796814093431081  0.2023024149053825  1.0000
  H   H12       1.0  0.7757297475005203  0.20318558061688924  0.2976977013681008  1.0000
  H   H13       1.0  0.4691873482031923  0.1090442192198324  0.8557087391734655  1.0000
  H   H14       1.0  0.9691889715718531  0.8909546017738847  0.6442931987059167  1.0000
  H   H15       1.0  0.5308111034708887  0.890955454828138  0.1442913771000178  1.0000
  H   H16       1.0  0.0308118776338446  0.1090442192198324  0.35570826720820037  1.0000
  H   H17       1.0  0.7454105626148931  0.3598959124047525  0.7290544926382125  1.0000
  H   H18       1.0  0.24541013801204062  0.6401020555347047  0.7709454911249621  1.0000
  H   H19       1.0  0.2545902865908047  0.6401046146974707  0.27094616185569714  1.0000
  H   H20       1.0  0.7545871148962249  0.35989505935049954  0.2290553703135814  1.0000
  H   H21       1.0  0.5660272466934515  0.4265689268130474  0.7049115491192238  1.0000
  H   H22       1.0  0.0660256233247907  0.5734324533434291  0.7950882276993099  1.0000
  H   H23       1.0  0.4339736025122534  0.573433306397682  0.2950887659197221  1.0000
  H   H24       1.0  0.9339716295834821  0.42656722070454123  0.20491141660891535  1.0000
  H   H25       1.0  0.8722639607090346  0.0188345848808922  0.5602008124608915  1.0000
  H   H26       1.0  0.3722671324036143  0.9811676483298372  0.9397990306127967  1.0000
  H   H27       1.0  0.1277344909650466  0.981166795275584  0.43980038025343043  1.0000
  H   H28       1.0  0.6277325180362752  0.01883031960962  0.0602014251156362  1.0000
  H   H29       1.0  0.8046847368935062  0.0605489379166144  0.486316845872686  1.0000
  H   H30       1.0  0.3046891073539015  0.9394541483483749  0.013682591490891096  1.0000
  H   H31       1.0  0.1953149135463832  0.9394524422398689  0.5136834029111057  1.0000
  H   H32       1.0  0.6953129406176117  0.060544672645342204  0.9863179304927029  1.0000
  H   H33       1.0  0.6791739565074126  0.9753762629973368  0.52944220151997  1.0000
  H   H34       1.0  0.1791771282019923  0.0246251171591396  0.9705566313680335  1.0000
  H   H35       1.0  0.320825693932477  0.024627676321905802  0.4705591899598218  1.0000
  H   H36       1.0  0.8208249197695139  0.9753745568888236  0.029443956870714803  1.0000
  H   H37       1.0  0.08544922575645593  0.23674217581864812  0.7972088322172437  1.0000
  H   H38       1.0  0.5854508491251167  0.7632574982293221  0.7027903401257163  1.0000
  H   H39       1.0  0.9145504246834335  0.7632583512835752  0.2027899344156054  1.0000
  H   H40       1.0  0.4145488013147728  0.23674217581864812  0.29720883221724387  1.0000
  H   H41       1.0  0.1616703523017193  0.1881291730283294  0.8678969971398018  1.0000
  H   H42       1.0  0.6616719756703802  0.8118705010196408  0.6321031191336814  1.0000
  H   H43       1.0  0.8383304969039784  0.8118713540738939  0.1321027134235706  1.0000
  H   H44       1.0  0.3383312710669415  0.18812831997407645  0.3678974028499127  1.0000
  H   H45       1.0  0.14846354936462805  0.0914337671938767  0.794941307561288  1.0000
  H   H46       1.0  0.6484639739674805  0.9085659068540936  0.7050583367469301  1.0000
  H   H47       1.0  0.8515361010752616  0.9085676129625997  0.2050579972919806  1.0000
  H   H48       1.0  0.3515356764724089  0.0914337671938767  0.2949413075612881  1.0000
  H   H49       1.0  0.7760090599344238  0.5416433865565935  0.6497411851590158  1.0000
  H   H50       1.0  0.2760122316290108  0.4583562874913768  0.8502575152186721  1.0000
  H   H51       1.0  0.22398939173965005  0.4583579935998828  0.3502585916595109  1.0000
  H   H52       1.0  0.7239898163425025  0.5416425335023405  0.1497401749733385  1.0000
  H   H53       1.0  0.9668070239058794  0.5710183098037334  0.6151607784697575  1.0000
  H   H54       1.0  0.4668089968346507  0.4289813642442368  0.8848374499426725  1.0000
  H   H55       1.0  0.0331914277681946  0.4289830703527429  0.3848380544182461  1.0000
  H   H56       1.0  0.5331930511368554  0.5710166036952273  0.1151597020289188  1.0000
  H   H57       1.0  0.9212934823689309  0.4290171925229204  0.6301347389835286  1.0000
  H   H58       1.0  0.4212942565318941  0.570983334579303  0.8698644996145787  1.0000
  H   H59       1.0  0.0787061680709584  0.5709824815250499  0.3698653772899547  1.0000
  H   H60       1.0  0.5787077914396193  0.4290163394686601  0.1301337287978512  1.0000
  C   C1        1.0  0.7355495150556166  0.1877905104893713  0.6307208920685382  1.0000
  C   C2        1.0  0.2355514879843881  0.812211722721365  0.8692784790398846  1.0000
  C   C3        1.0  0.2644501353842728  0.812210869667112  0.36927982868051856  1.0000
  C   C4        1.0  0.764446963689686  0.18778965743511125  0.1307217697439071  1.0000
  C   C5        1.0  0.537003927649252  0.293151241439098  0.5952104661555211  1.0000
  C   C6        1.0  0.0370059005780234  0.7068501387173853  0.9047893106630127  1.0000
  C   C7        1.0  0.462994524024829  0.7068501387173853  0.40479025459353574  1.0000
  C   C8        1.0  0.9629973461592982  0.2931486822763318  0.0952121552511045  1.0000
  C   C9        1.0  0.3679024260866513  0.284742685654372  0.756021897301373  1.0000
  C   C10       1.0  0.8679004531578869  0.7152535761765791  0.7439774819862279  1.0000
  C   C11       1.0  0.6320984231190467  0.7152561353393453  0.2439772087864327  1.0000
  C   C12       1.0  0.1320979985161941  0.284742685654372  0.2560218973013733  1.0000
  C   C13       1.0  0.5789007927351548  0.2103427058105396  0.5467442372093244  1.0000
  C   C14       1.0  0.0789027656639263  0.7896586743459366  0.9532560115744743  1.0000
  C   C15       1.0  0.4210952614073023  0.7896561151831776  0.4532562847742696  1.0000
  C   C16       1.0  0.9210980835417786  0.21034099970203363  0.046744104699008894  1.0000
  C   C17       1.0  0.5967576082521617  0.21581419579767674  0.7935336493521419  1.0000
  C   C18       1.0  0.09675358735188412  0.7841871843587995  0.7064680153274452  1.0000
  C   C19       1.0  0.4032444397193444  0.7841888904673057  0.2064676758724957  1.0000
  C   C20       1.0  0.903244864322197  0.21581419579767674  0.29353270542161164  1.0000
  C   C21       1.0  0.4713067661566086  0.16981836345958362  0.8220624269829669  1.0000
  C   C22       1.0  0.9713035944620286  0.8301830166968928  0.677940181627143  1.0000
  C   C23       1.0  0.5286940830490892  0.8301838697511528  0.1779388319865092  1.0000
  C   C24       1.0  0.0286936584462438  0.1698175104053306  0.32206141679728256  1.0000
  C   C25       1.0  0.6243843651268364  0.34520887730830924  0.7094891976775272  1.0000
  C   C26       1.0  0.1243851392897923  0.6547916497939141  0.7905109848511103  1.0000
  C   C27       1.0  0.3756164840788685  0.6547933559024202  0.2905111173614188  1.0000
  C   C28       1.0  0.8756133123842818  0.34520802425405617  0.20948913142237297  1.0000
  C   C29       1.0  0.7685707180786849  0.0440457503127476  0.5338598801314162  1.0000
  C   C30       1.0  0.2685738897732719  0.9559556298437287  0.9661398966871176  1.0000
  C   C31       1.0  0.2314301311270128  0.9559564828979887  0.466140906872802  1.0000
  C   C32       1.0  0.7314269594324332  0.0440431911499815  0.0338610972617417  1.0000
  C   C33       1.0  0.171798724636794  0.1800789000304164  0.8158662346844351  1.0000
  C   C34       1.0  0.6718003480054549  0.8199207740175539  0.6841334096237901  1.0000
  C   C35       1.0  0.8282009258030953  0.8199224801260672  0.1841335421340986  1.0000
  C   C36       1.0  0.3282005012002429  0.1800789000304164  0.3158667066496932  1.0000
  C   C37       1.0  0.8714020480910991  0.508020253123  0.6169291529737393  1.0000
  C   C38       1.0  0.3714040210198704  0.49197942092497027  0.8830704913344861  1.0000
  C   C39       1.0  0.1285988011145989  0.4919802739792232  0.3830710295548982  1.0000
  C   C40       1.0  0.6285992257174515  0.508018547014494  0.11692713260237039  1.0000
  S   S1        1.0  0.23980710661257382  0.3610057359896075  0.71576613896233  1.0000
  S   S2        1.0  0.7398051336838025  0.6389913788955965  0.7842342505109555  1.0000
  S   S3        1.0  0.7601949413589395  0.6389939380583627  0.2842335053458953  1.0000
  S   S4        1.0  0.26019331799027884  0.3610057359896075  0.215766610927588  1.0000
  S   S5        1.0  0.8737288525297728  0.137945697355832  0.6787699637425317  1.0000
  S   S6        1.0  0.3737332229901682  0.8620531236378853  0.8212291423452669  1.0000
  S   S7        1.0  0.1262707979101165  0.8620556828006514  0.3212302850412597  1.0000
  S   S8        1.0  0.6262700237471535  0.13794399124731882  0.1787712471280116  1.0000
  I   I1        1.0  0.3539679723024349  0.011122121367684201  0.6441878860653532  1.0000
  I   I2        1.0  0.8539600055446073  0.9888843771143172  0.8558132322146363  1.0000
  I   I3        1.0  0.646030479371646  0.988879258788792  0.3558123627184457  1.0000
  I   I4        1.0  0.1460408436610905  0.0111204152591711  0.1441863376592494  1.0000
  I   I5        1.0  0.1049519467316387  0.2588652848499038  0.5066994173731983  1.0000
  I   I6        1.0  0.6049583651635402  0.7411284178182882  0.9932992911836678  1.0000
  I   I7        1.0  0.89504290864501  0.7411284178182882  0.4932978752878796  1.0000
  I   I8        1.0  0.3950460803395899  0.2588652848499038  0.006698945407940497  1.0000
  I   I9        1.0  0.6342717855339473  0.4031312611759078  0.4108776716406766  1.0000
  I   I10       1.0  0.13427136093109485  0.5968701189805757  0.0891221051778501  1.0000
  I   I11       1.0  0.3657290636717576  0.5968692659263155  0.5891220389226959  1.0000
  I   I12       1.0  0.8657270907429864  0.40313040812165474  0.9108785493160522  1.0000
  N   N1        1.0  0.6347285153078419  0.27915262112588124  0.6464962604002835  1.0000
  N   N2        1.0  0.1347304882366132  0.7208496120848481  0.8535035826734045  1.0000
  N   N3        1.0  0.3652711351320477  0.720848759030595  0.35350398838350827  1.0000
  N   N4        1.0  0.8652679634374678  0.2791517680716282  0.1464966661103944  1.0000
  N   N5        1.0  0.332229553090194  0.2127781757065961  0.7989241451587005  1.0000
  N   N6        1.0  0.8322275801614225  0.7872189391786152  0.7010753003840547  1.0000
  N   N7        1.0  0.6677712961155038  0.7872214983413742  0.20107502718425246  1.0000
  N   N8        1.0  0.167769672746843  0.2127781757065961  0.2989246171239657  1.0000
  N   N9        1.0  0.5324210459547346  0.28629524439720916  0.7530855626733554  1.0000
  N   N10       1.0  0.0324194225860666  0.7137052827050141  0.746914619855282  1.0000
  N   N11       1.0  0.4675798032509704  0.7137078418677731  0.2469152905860099  1.0000
  N   N12       1.0  0.9675790290880073  0.2862935382887031  0.2530844862325239  1.0000
  N   N13       1.0  0.7000660470572555  0.1466357610444788  0.5690017296278498  1.0000
  N   N14       1.0  0.20006921875184255  0.8533656191120045  0.9309980471906839  1.0000
  N   N15       1.0  0.2999324046168184  0.8533656191120045  0.4309994630864722  1.0000
  N   N16       1.0  0.799930431688047  0.1466349079902187  0.0690026073032257  1.0000
