data_image0
_chemical_formula_structural       Cu2H14C16S2O4
_chemical_formula_sum              "Cu2 H14 C16 S2 O4"
_cell_length_a       3.8943586488525908
_cell_length_b       5.267952297100344
_cell_length_c       18.663317389403257
_cell_angle_alpha    89.99782605810674
_cell_angle_beta     90.00121261125894
_cell_angle_gamma    91.50142679641006

_space_group_name_H-M_alt    "P 1"
_space_group_IT_number       1

loop_
  _space_group_symop_operation_xyz
  'x, y, z'

loop_
  _atom_site_type_symbol
  _atom_site_label
  _atom_site_symmetry_multiplicity
  _atom_site_fract_x
  _atom_site_fract_y
  _atom_site_fract_z
  _atom_site_occupancy
  Cu  Cu1       1.0  0.769450605684014  0.8539327986112966  0.5243700290771685  1.0000
  Cu  Cu2       1.0  0.2695019985556044  0.35393803661175843  0.4756364754296456  1.0000
  H   H1        1.0  0.5949867728063368  0.49838385901563237  0.6093126073318231  1.0000
  H   H2        1.0  0.09497891741177972  0.9983747175553862  0.39069183488300047  1.0000
  H   H3        1.0  0.6174318010330422  0.6765469113607167  0.7328277150482804  1.0000
  H   H4        1.0  0.1174321983892526  0.1765568004245495  0.2671757839195479  1.0000
  H   H5        1.0  0.023959145005235896  0.038203425854604206  0.8116245726770474  1.0000
  H   H6        1.0  0.523999707033866  0.5381992985653171  0.18837469828428513  1.0000
  H   H7        1.0  0.9978674829378776  0.8584002359701017  0.6879208363043575  1.0000
  H   H8        1.0  0.4979136383128449  0.3583795077895501  0.3120771622448117  1.0000
  H   H9        1.0  0.3254666132569639  0.8203394590389975  0.9554076576230699  1.0000
  H   H10       1.0  0.8255180939836962  0.3203415559200877  0.0445925660640611  1.0000
  H   H11       1.0  0.713339443882667  0.9726330945164745  0.9233620286385148  1.0000
  H   H12       1.0  0.21338445555185362  0.47263105288231344  0.0766320796294551  1.0000
  H   H13       1.0  0.7243384045124374  0.6619099412429391  0.963325686450908  1.0000
  H   H14       1.0  0.22437043398740292  0.16192043544681672  0.0366769335577146  1.0000
  C   C1        1.0  0.2925654400320639  0.166996908106988  0.6412416275093449  1.0000
  C   C2        1.0  0.7925479040380167  0.6669787840475224  0.3587612887336249  1.0000
  C   C3        1.0  0.4683475306538156  0.39796994403316427  0.6537261901875198  1.0000
  C   C4        1.0  0.9683139376196477  0.8979592047454189  0.3462781571938223  1.0000
  C   C5        1.0  0.48365975650948195  0.49690121720470165  0.7226565912805256  1.0000
  C   C6        1.0  0.9836818873519704  0.9968904630861957  0.2773477512248661  1.0000
  C   C7        1.0  0.3259329130406101  0.3680510031021385  0.7801006330107398  1.0000
  C   C8        1.0  0.8259493593429212  0.8680718901119705  0.2199001067998338  1.0000
  C   C9        1.0  0.14863038412047302  0.13766037466733397  0.7672029531287522  1.0000
  C   C10       1.0  0.6486521112627558  0.6376644561746829  0.2327909827322117  1.0000
  C   C11       1.0  0.1324417393357251  0.0381334375310232  0.6983122032042957  1.0000
  C   C12       1.0  0.6324811878709939  0.5381195648910406  0.3016828118442874  1.0000
  C   C13       1.0  0.34512383211809083  0.4668122939595278  0.8545675743170591  1.0000
  C   C14       1.0  0.845160138755773  0.9667981567287925  0.1454203234847995  1.0000
  C   C15       1.0  0.5754137687403542  0.7908926304802435  0.9303909567056651  1.0000
  C   C16       1.0  0.0754739506275328  0.29089694887629486  0.0696104509530002  1.0000
  S   S1        1.0  0.27583600949124326  0.028796011826060005  0.5542776808075516  1.0000
  S   S2        1.0  0.775844815993473  0.528793767941572  0.4457246204686314  1.0000
  O   O1        1.0  0.2088702719124171  0.3619619082456751  0.9064391033339944  1.0000
  O   O2        1.0  0.7089575775118108  0.8619742702906378  0.09355573954991311  1.0000
  O   O3        1.0  0.5319379029381182  0.6865967235122812  0.8589293451181348  1.0000
  O   O4        1.0  0.0320036112879691  0.1865905251268956  0.1410730551545143  1.0000
