data_image0
_chemical_formula_structural       K2H18C16S4N8O10
_chemical_formula_sum              "K2 H18 C16 S4 N8 O10"
_cell_length_a       6.801726652194503
_cell_length_b       10.034242737503146
_cell_length_c       10.31961407538147
_cell_angle_alpha    110.55824621592814
_cell_angle_beta     89.52018553838904
_cell_angle_gamma    107.01567253335392

_space_group_name_H-M_alt    "P 1"
_space_group_IT_number       1

loop_
  _space_group_symop_operation_xyz
  'x, y, z'

loop_
  _atom_site_type_symbol
  _atom_site_label
  _atom_site_symmetry_multiplicity
  _atom_site_fract_x
  _atom_site_fract_y
  _atom_site_fract_z
  _atom_site_occupancy
  K   K1        1.0  0.27394917488854986  0.6202264034344864  0.17064065965637099  1.0000
  K   K2        1.0  0.726056976647804  0.3797710566684316  0.8293530655379724  1.0000
  H   H1        1.0  0.5097905712064089  0.209572040802442  0.4925232556312905  1.0000
  H   H2        1.0  0.490215550620185  0.7904288354048462  0.5074764480913883  1.0000
  H   H3        1.0  0.83450512526732  0.6198862273181904  0.4503263702812673  1.0000
  H   H4        1.0  0.1654995491443215  0.38011465884143547  0.5496723637335633  1.0000
  H   H5        1.0  0.49863859321545323  0.2724443245574548  0.10839847254050027  1.0000
  H   H6        1.0  0.5013631567374899  0.727556597771148  0.891600265631446  1.0000
  H   H7        1.0  0.0840520183277818  0.32916412157418057  0.30601350046907777  1.0000
  H   H8        1.0  0.9159457287811319  0.6708312395047288  0.69398532082468  1.0000
  H   H9        1.0  0.7214787925148157  0.9898764849190729  0.9570788499003056  1.0000
  H   H10       1.0  0.2785189841418969  0.010122259735581502  0.042922062776156594  1.0000
  H   H11       1.0  0.8464738751871935  0.8992285496445622  0.2884770444175757  1.0000
  H   H12       1.0  0.15352735783515928  0.1007678618564398  0.7115182580793513  1.0000
  H   H13       1.0  0.64521588271554  0.9745638501730698  0.34696735548111945  1.0000
  H   H14       1.0  0.354784212582949  0.0254303962779403  0.6530359480816442  1.0000
  H   H15       1.0  0.17598911971186462  0.8831967155546322  0.4118154509856493  1.0000
  H   H16       1.0  0.824010178431756  0.11680197848691168  0.5881815724666238  1.0000
  H   H17       1.0  0.2935217739315803  0.966464160848112  0.3129019504983787  1.0000
  H   H18       1.0  0.7064828264890866  0.03353336613223949  0.6870976074929728  1.0000
  C   C1        1.0  0.4790874461423514  0.2215087911749976  0.28907598494626535  1.0000
  C   C2        1.0  0.5209147911933768  0.7784932584054616  0.7109240975179956  1.0000
  C   C3        1.0  0.6720764382117607  0.4594889777312474  0.26929494848426566  1.0000
  C   C4        1.0  0.32792969842923  0.5405118903438861  0.7307037834520002  1.0000
  C   C5        1.0  0.5547670057270792  0.2791534267854844  0.43027938546975963  1.0000
  C   C6        1.0  0.4452323366977565  0.7208520425397041  0.5697227925343283  1.0000
  C   C7        1.0  0.6887352496376875  0.42670295131559755  0.49246221241680377  1.0000
  C   C8        1.0  0.311267549152781  0.5733001848559385  0.507534355407742  1.0000
  C   C9        1.0  0.775088520822784  0.9829535979404797  0.28214358217564234  1.0000
  C   C10       1.0  0.224915134299124  0.0170484579519581  0.7178594135692862  1.0000
  C   C11       1.0  0.9149343022247152  0.1688139213237676  0.12102249623497838  1.0000
  C   C12       1.0  0.08506345961760785  0.8311848314630411  0.8789793882278968  1.0000
  C   C13       1.0  0.6908889006583435  0.9350455916677588  0.1336644317572108  1.0000
  C   C14       1.0  0.30910892036055776  0.0649565284304856  0.8663376005155495  1.0000
  C   C15       1.0  0.9275759240311103  0.1365365283290814  0.3439135130590144  1.0000
  C   C16       1.0  0.07241895771470296  0.863465636070302  0.6560894951572677  1.0000
  S   S1        1.0  0.7388731137220005  0.5694284516957283  0.1744123742835555  1.0000
  S   S2        1.0  0.261130142903461  0.43057242815191893  0.8255834464506078  1.0000
  S   S3        1.0  0.004180048419044543  0.26986890404994307  0.024605759536548484  1.0000
  S   S4        1.0  0.9958139030043537  0.7301309814492568  0.9753916447358788  1.0000
  N   N1        1.0  0.5459549103485201  0.31616359802879407  0.21428685528235283  1.0000
  N   N2        1.0  0.4540497344343421  0.6838373043951479  0.7857138223052826  1.0000
  N   N3        1.0  0.7407519048231137  0.5098010209869912  0.40586327970340347  1.0000
  N   N4        1.0  0.2592562110587906  0.4902009399911976  0.5941348508738143  1.0000
  N   N5        1.0  0.7714657581211384  0.029176422274709096  0.06383006634377608  1.0000
  N   N6        1.0  0.2285300688424597  0.9708246130526347  0.9361735390744453  1.0000
  N   N7        1.0  0.9809462372385834  0.21881927598298026  0.26025271402529165  1.0000
  N   N8        1.0  0.01905446387682738  0.7811794325026897  0.7397481944940549  1.0000
  O   O1        1.0  0.3567116871276923  0.09017173264815882  0.22163394559247956  1.0000
  O   O2        1.0  0.6432978021782034  0.909826859198418  0.7783659786691003  1.0000
  O   O3        1.0  0.7648726669407537  0.4909188588112699  0.6190318357582072  1.0000
  O   O4        1.0  0.2351349320105668  0.5090785913393174  0.3809628591439844  1.0000
  O   O5        1.0  0.0041235287843690615  0.1884648144305601  0.4671671670810864  1.0000
  O   O6        1.0  0.9958566418625946  0.8115341797666034  0.5328376576837143  1.0000
  O   O7        1.0  0.5563426268305135  0.8133640406853148  0.07411074310905258  1.0000
  O   O8        1.0  0.44365423415622024  0.18663921661711672  0.9258916637481746  1.0000
  O   O9        1.0  0.2941384152282395  0.8930185840575008  0.3568716328816563  1.0000
  O   O10       1.0  0.7058574118973127  0.10697565158973528  0.6431239026255324  1.0000
