data_image0
_chemical_formula_structural       Dy4H20C16S4N8O28
_chemical_formula_sum              "Dy4 H20 C16 S4 N8 O28"
_cell_length_a       6.459596242000619
_cell_length_b       11.169696131304734
_cell_length_c       12.126528269681364
_cell_angle_alpha    108.27193726235275
_cell_angle_beta     89.99996359304849
_cell_angle_gamma    89.99997827576966

_space_group_name_H-M_alt    "P 1"
_space_group_IT_number       1

loop_
  _space_group_symop_operation_xyz
  'x, y, z'

loop_
  _atom_site_type_symbol
  _atom_site_label
  _atom_site_symmetry_multiplicity
  _atom_site_fract_x
  _atom_site_fract_y
  _atom_site_fract_z
  _atom_site_occupancy
  Dy  Dy1       1.0  0.8636602775751641  0.8403459829563573  0.3932603025704681  1.0000
  Dy  Dy2       1.0  0.3636603834213473  0.15965369154136505  0.10673935357455383  1.0000
  Dy  Dy3       1.0  0.1363393748795545  0.15965417211578628  0.6067401799235486  1.0000
  Dy  Dy4       1.0  0.6363392690343374  0.8403455172098969  0.893260034070231  1.0000
  H   H1        1.0  0.7216266674275785  0.43615456354913107  0.5584629675904297  1.0000
  H   H2        1.0  0.22163074932505109  0.5638469799946791  0.9415377469636329  1.0000
  H   H3        1.0  0.278368340774044  0.5638465308242002  0.4415369584611641  1.0000
  H   H4        1.0  0.7783689031296603  0.4361531750774716  0.0584627355303766  1.0000
  H   H5        1.0  0.7778161179246085  0.48650390295711765  0.2296356643097823  1.0000
  H   H6        1.0  0.27781269756782473  0.5134958031486151  0.2703640299276772  1.0000
  H   H7        1.0  0.2221866306998521  0.5134962450939041  0.7703631668908603  1.0000
  H   H8        1.0  0.7221885029717399  0.48650340911264306  0.7296361833631055  1.0000
  H   H9        1.0  0.7243561034519103  0.3305962404847448  0.34397347966106656  1.0000
  H   H10       1.0  0.22435581288362977  0.6694034853041018  0.1560262382975353  1.0000
  H   H11       1.0  0.27564354900379573  0.6694039075668455  0.6560253515402652  1.0000
  H   H12       1.0  0.7756453876549685  0.33059667327803766  0.8439750698424793  1.0000
  H   H13       1.0  0.041664722994170185  0.9130259086747824  0.19660375281566186  1.0000
  H   H14       1.0  0.5416621272195171  0.08697388789075687  0.3033968718554903  1.0000
  H   H15       1.0  0.9583349294605482  0.08697424639736787  0.8033967296783476  1.0000
  H   H16       1.0  0.45833597715130026  0.9130253243710695  0.6966033414359815  1.0000
  H   H17       1.0  0.0686310263113796  0.033528870046168884  0.3127217856082255  1.0000
  H   H18       1.0  0.5686279872999477  0.9664699702697205  0.18727773224802752  1.0000
  H   H19       1.0  0.9313686261433601  0.9664722243263101  0.6872781404423309  1.0000
  H   H20       1.0  0.4313685689869685  0.03352829918178199  0.8127222118408998  1.0000
  C   C1        1.0  0.7392996184749662  0.48748297284151215  0.4969077550820062  1.0000
  C   C2        1.0  0.23930116285520597  0.5125176902554853  0.0030922254481779137  1.0000
  C   C3        1.0  0.26069848589636985  0.5125171752103694  0.5030910761196667  1.0000
  C   C4        1.0  0.7607000376838825  0.4874824648163808  0.9969082570454906  1.0000
  C   C5        1.0  0.7718373520445707  0.5111845212700599  0.32299744662661584  1.0000
  C   C6        1.0  0.27183715591731067  0.48881518703642957  0.1770022502630867  1.0000
  C   C7        1.0  0.2281638484955053  0.488815626781246  0.677001384574368  1.0000
  C   C8        1.0  0.728165592706155  0.5111849680351455  0.8229982322302408  1.0000
  C   C9        1.0  0.7675521101706123  0.6132180413444884  0.5077729812348439  1.0000
  C   C10       1.0  0.267554700534177  0.3867834817798083  0.992226887294699  1.0000
  C   C11       1.0  0.2324459942002477  0.3867830495179945  0.49222611916971476  1.0000
  C   C12       1.0  0.7324480480893099  0.613217612592095  0.007773038755175258  1.0000
  C   C13       1.0  0.7791580004798602  0.7277963133854398  0.6085763376838713  1.0000
  C   C14       1.0  0.2791592392341328  0.2722042626552791  0.8914232564931982  1.0000
  C   C15       1.0  0.2208416519753555  0.27220383817643773  0.39142331916379913  1.0000
  C   C16       1.0  0.720841961305453  0.7277958889063071  0.10857640035413138  1.0000
  S   S1        1.0  0.32215425791984126  0.836213933934907  0.4601219408238963  1.0000
  S   S2        1.0  0.8221534747277487  0.16378575584527508  0.03987773373880539  1.0000
  S   S3        1.0  0.6778469426197447  0.1637862176266793  0.5398777160234334  1.0000
  S   S4        1.0  0.1778477258118158  0.836213456415983  0.9601224795519772  1.0000
  N   N1        1.0  0.7437922497274839  0.4253913223790065  0.3801668703766695  1.0000
  N   N2        1.0  0.24379361330429108  0.5746102853847505  0.11983420300926896  1.0000
  N   N3        1.0  0.2562058546428787  0.5746097719937564  0.6198330556742351  1.0000
  N   N4        1.0  0.756207587233831  0.4253908160080044  0.8801673743336241  1.0000
  N   N5        1.0  0.7879745005213649  0.6259762852072297  0.3982672839507658  1.0000
  N   N6        1.0  0.2879744704543937  0.3740243599682245  0.10173267498124261  1.0000
  N   N7        1.0  0.21202670001824228  0.3740248056546846  0.6017318164531036  1.0000
  N   N8        1.0  0.7120282781690718  0.6259757951033507  0.8982678075120777  1.0000
  O   O1        1.0  0.7250879999760044  0.722835638861639  0.7075842410246554  1.0000
  O   O2        1.0  0.22508780584133345  0.2771649605979006  0.7924162027915717  1.0000
  O   O3        1.0  0.2749147486484275  0.2771635698890549  0.2924151466194403  1.0000
  O   O4        1.0  0.7749133946977621  0.7228351944739585  0.20758427970209678  1.0000
  O   O5        1.0  0.8444995257546069  0.8268653502280899  0.5871220331221709  1.0000
  O   O6        1.0  0.3444977082467489  0.17313425894418796  0.9128772628586719  1.0000
  O   O7        1.0  0.1555032228693563  0.17313480133321238  0.41287762372481057  1.0000
  O   O8        1.0  0.6555003961245588  0.8268649498073656  0.08712212478646106  1.0000
  O   O9        1.0  0.5101133994119706  0.8633335558131773  0.40267979944702165  1.0000
  O   O10       1.0  0.010113531746398499  0.13666531306856194  0.09732139566725814  1.0000
  O   O11       1.0  0.48988780112711783  0.1366665992586888  0.5973206830466469  1.0000
  O   O12       1.0  0.9898892168784882  0.8633320135711956  0.902678279217405  1.0000
  O   O13       1.0  0.37226879494247095  0.8009670397382604  0.5637020010380455  1.0000
  O   O14       1.0  0.8722690621193862  0.1990316199088014  0.936297839063727  1.0000
  O   O15       1.0  0.627732405598067  0.19903122620210914  0.43629711740351257  1.0000
  O   O16       1.0  0.127732138419681  0.8009675958627369  0.06370319987339461  1.0000
  O   O17       1.0  0.19446679438412667  0.7370653339151048  0.375150541739771  1.0000
  O   O18       1.0  0.6944642957914907  0.26293534920012007  0.12485028433133752  1.0000
  O   O19       1.0  0.8055344061544929  0.2629357639673628  0.6248502099567903  1.0000
  O   O20       1.0  0.3055353566636825  0.7370629237610942  0.8751504854032394  1.0000
  O   O21       1.0  0.1808202903608347  0.9497700364033222  0.49192741756635905  1.0000
  O   O22       1.0  0.6808180723150982  0.05022782330460269  0.008072606951387198  1.0000
  O   O23       1.0  0.8191809101797175  0.050229168837383  0.508071144431739  1.0000
  O   O24       1.0  0.31918312822541134  0.9497695033354389  0.9919270679336168  1.0000
  O   O25       1.0  0.9901991784998287  0.9540850312934378  0.27629940817534043  1.0000
  O   O26       1.0  0.4901976715880139  0.04591554293452299  0.22370128667012787  1.0000
  O   O27       1.0  0.009800473954435097  0.045917005889641885  0.7237007870781088  1.0000
  O   O28       1.0  0.5097988846989239  0.9540836658173145  0.7762981009753462  1.0000
