data_image0
_chemical_formula_structural       Al2H12C28Br2O10F2
_chemical_formula_sum              "Al2 H12 C28 Br2 O10 F2"
_cell_length_a       6.656506372286795
_cell_length_b       11.189167231404738
_cell_length_c       17.559725232142533
_cell_angle_alpha    82.8712188682367
_cell_angle_beta     83.25983169906783
_cell_angle_gamma    71.54040844218171

_space_group_name_H-M_alt    "P 1"
_space_group_IT_number       1

loop_
  _space_group_symop_operation_xyz
  'x, y, z'

loop_
  _atom_site_type_symbol
  _atom_site_label
  _atom_site_symmetry_multiplicity
  _atom_site_fract_x
  _atom_site_fract_y
  _atom_site_fract_z
  _atom_site_occupancy
  Al  Al1       1.0  0.5022100235186001  0.500850950404356  0.5003395682750027  1.0000
  Al  Al2       1.0  0.004062178050723742  0.497432265256414  0.5011297641517772  1.0000
  H   H1        1.0  0.31936903852100323  0.3502455344511618  0.5554250919424109  1.0000
  H   H2        1.0  0.6918449380280333  0.6546825624448332  0.45932944904259904  1.0000
  H   H3        1.0  0.6527061458840748  0.4907967725250303  0.282930856386777  1.0000
  H   H4        1.0  0.7469611721450132  0.4863664030273115  0.14158145870193553  1.0000
  H   H5        1.0  0.10196877048471001  0.505064982643788  0.11148736301213802  1.0000
  H   H6        1.0  0.9000221155604888  0.490559645763213  0.8903442888735641  1.0000
  H   H7        1.0  0.3489575247916292  0.5121593567057163  0.7172703676356067  1.0000
  H   H8        1.0  0.252832587286477  0.5162062638535901  0.8585145369782412  1.0000
  H   H9        1.0  0.1790893996602776  0.24171389196210674  0.39429187777648184  1.0000
  H   H10       1.0  0.486988932642255  0.13008085372135267  0.31081362507215005  1.0000
  H   H11       1.0  0.3946129008030538  0.7725645058753018  0.3962708927471539  1.0000
  H   H12       1.0  0.5935392414014942  0.8944357289970456  0.31132239847335813  1.0000
  C   C1        1.0  0.862286857615082  0.274932178082949  0.4952657714868639  1.0000
  C   C2        1.0  0.720284468392357  0.49426100517224114  0.6386000575287627  1.0000
  C   C3        1.0  0.13837479085557897  0.7245110252621815  0.5053924854664233  1.0000
  C   C4        1.0  0.28414962564294644  0.5035597878714101  0.36258068655858017  1.0000
  C   C5        1.0  0.3296901108751625  0.49835264321001915  0.27761640258238174  1.0000
  C   C6        1.0  0.5349406002951439  0.49272094268139455  0.24441607085822883  1.0000
  C   C7        1.0  0.5869113513029518  0.4905881056764444  0.1657184648966493  1.0000
  C   C8        1.0  0.43162063790206406  0.4957121547974739  0.11600397104181333  1.0000
  C   C9        1.0  0.22554973028943703  0.5004855493424358  0.14819026240910926  1.0000
  C   C10       1.0  0.1794303419768965  0.5011343298395802  0.2271794063113433  1.0000
  C   C11       1.0  0.4796224694644022  0.4978086032975711  0.035292345819179616  1.0000
  C   C12       1.0  0.5200959905876061  0.5014149134987065  0.9655530753001997  1.0000
  C   C13       1.0  0.5691533467261323  0.503351902129225  0.8848962498250188  1.0000
  C   C14       1.0  0.7764572482604561  0.496551101399028  0.8533024170607323  1.0000
  C   C15       1.0  0.8241815680610074  0.49521918536979115  0.7743961734653342  1.0000
  C   C16       1.0  0.6736811762249671  0.5001508539112935  0.7235021566790609  1.0000
  C   C17       1.0  0.4669436102359865  0.5083626793736401  0.75615404093481  1.0000
  C   C18       1.0  0.4138276851048346  0.5103725727202004  0.8347976201647429  1.0000
  C   C19       1.0  0.9327888229292681  0.13315112604167473  0.49768857594263255  1.0000
  C   C20       1.0  0.1114796732288923  0.07094465717172942  0.4478984719355452  1.0000
  C   C21       1.0  0.8264502089931652  0.06335499290696593  0.5480270963037912  1.0000
  C   C22       1.0  0.22628967086811255  0.13904172008918184  0.3960877213366204  1.0000
  C   C23       1.0  0.39869104222259455  0.07636208570873042  0.34912057140093833  1.0000
  C   C24       1.0  0.06370870359859286  0.8664008213082965  0.5024318926788425  1.0000
  C   C25       1.0  0.8928208239332918  0.9291383212597424  0.5508220800591346  1.0000
  C   C26       1.0  0.1761775563341245  0.9355824480406201  0.44966303689481196  1.0000
  C   C27       1.0  0.34927222984845935  0.8746695926165843  0.3979958438988335  1.0000
  C   C28       1.0  0.4595992506094717  0.9433449570484175  0.34967774403594387  1.0000
  Br  Br1       1.0  0.7546778017533737  0.8353798012084398  0.6239456662355637  1.0000
  Br  Br2       1.0  0.6008720159325589  0.14535962204243455  0.6190953864646432  1.0000
  O   O1        1.0  0.6740904661715632  0.33321951213569184  0.4779939060325306  1.0000
  O   O2        1.0  0.8926810283606837  0.5107944175754896  0.6071248978422477  1.0000
  O   O3        1.0  0.008465959033642907  0.6703488003504178  0.49012262299407894  1.0000
  O   O4        1.0  0.41918120230844397  0.5329556401369758  0.39648992257797033  1.0000
  O   O5        1.0  0.32979653573074313  0.6697734484703589  0.5204595215800722  1.0000
  O   O6        1.0  0.11797866083705345  0.4796743948913473  0.39484332318588145  1.0000
  O   O7        1.0  0.9970166234606808  0.3257409001784525  0.5104764600122708  1.0000
  O   O8        1.0  0.5796033666993023  0.4717896365115451  0.6041006322456327  1.0000
  O   O9        1.0  0.2768437430223825  0.4376574410190275  0.5332199424358351  1.0000
  O   O10       1.0  0.7302590872001671  0.5630847271165608  0.46777975058610377  1.0000
  F   F1        1.0  0.9767382854944628  0.508530271487757  0.25437519334784753  1.0000
  F   F2        1.0  0.028194023449749736  0.48515955404548106  0.7478978851286799  1.0000
