data_image0
_chemical_formula_structural       Zn2H24C44I8N2O10
_chemical_formula_sum              "Zn2 H24 C44 I8 N2 O10"
_cell_length_a       16.0008503343667
_cell_length_b       17.064225590447982
_cell_length_c       17.844295931792452
_cell_angle_alpha    89.94663620175304
_cell_angle_beta     88.34153290888311
_cell_angle_gamma    89.95393105487895

_space_group_name_H-M_alt    "P 1"
_space_group_IT_number       1

loop_
  _space_group_symop_operation_xyz
  'x, y, z'

loop_
  _atom_site_type_symbol
  _atom_site_label
  _atom_site_symmetry_multiplicity
  _atom_site_fract_x
  _atom_site_fract_y
  _atom_site_fract_z
  _atom_site_occupancy
  Zn  Zn1       1.0  0.4994450848897145  0.5876630270434477  0.4997903764220908  1.0000
  Zn  Zn2       1.0  0.4996679708419479  0.4122045642179658  0.4999174856442536  1.0000
  H   H1        1.0  0.0761555770265332  0.5765685290278527  0.4107331109575796  1.0000
  H   H2        1.0  0.07992183173620762  0.42385485681160173  0.4085972139183198  1.0000
  H   H3        1.0  0.9306535470168671  0.5755029238814587  0.4101747714913415  1.0000
  H   H4        1.0  0.9349501880524117  0.43786383676266644  0.4009495702363566  1.0000
  H   H5        1.0  0.0698787737742492  0.373893742202931  0.4951189651921482  1.0000
  H   H6        1.0  0.0736422752648167  0.6250253857817897  0.4983185982105738  1.0000
  H   H7        1.0  0.9222741272987919  0.5416121777059358  0.6207019256846706  1.0000
  H   H8        1.0  0.9237253632822587  0.43822029157725245  0.611652843204496  1.0000
  H   H9        1.0  0.520404587527871  0.6263465813294574  0.8761313059852611  1.0000
  H   H10       1.0  0.5204317465573214  0.37356375907842226  0.8763695026607436  1.0000
  H   H11       1.0  0.5104490518956908  0.6256435638770628  0.735996428800263  1.0000
  H   H12       1.0  0.5104454147830211  0.37430119992486527  0.7362157485742388  1.0000
  H   H13       1.0  0.5069390470756119  0.6255904751641311  0.2627348400110208  1.0000
  H   H14       1.0  0.5066576656981497  0.37437890328174467  0.2628853084415396  1.0000
  H   H15       1.0  0.5987920986275342  0.8694122428572159  0.4156491968860578  1.0000
  H   H16       1.0  0.5983377964841594  0.1304417569178113  0.41543634040404953  1.0000
  H   H17       1.0  0.4003850926869391  0.868592804801182  0.585097708808604  1.0000
  H   H18       1.0  0.4003460066369797  0.13138535924836253  0.5852663688128743  1.0000
  H   H19       1.0  0.1038617215473892  0.5298786159673129  0.7289745617152548  1.0000
  H   H20       1.0  0.9980355794017229  0.5641829812365489  0.7203989355682978  1.0000
  H   H21       1.0  0.08308036985044251  0.6321027639425341  0.7158320609856403  1.0000
  H   H22       1.0  0.9955665595473562  0.3431474733648302  0.6514158863981123  1.0000
  H   H23       1.0  0.0016027989865322002  0.4216202605223956  0.7182993941185956  1.0000
  H   H24       1.0  0.08505366860023142  0.352503669147012  0.7087713741207083  1.0000
  C   C1        1.0  0.5023103086884646  0.4999810729041981  0.3545699825652946  1.0000
  C   C2        1.0  0.6610562614554  0.49972631130307843  0.5043065992888814  1.0000
  C   C3        1.0  0.5029716389520047  0.49995064770887176  0.6447611661795634  1.0000
  C   C4        1.0  0.33849101842985635  0.4999066180097032  0.49689052462045413  1.0000
  C   C5        1.0  0.9539153162448671  0.5736223853118007  0.4672604110792236  1.0000
  C   C6        1.0  0.9544711456704746  0.43034933165018446  0.4588482948073462  1.0000
  C   C7        1.0  0.0499246368897062  0.4261167047456169  0.46471187889319054  1.0000
  C   C8        1.0  0.04985552064032821  0.5742606290195839  0.4682932569820437  1.0000
  C   C9        1.0  0.24818450032986314  0.4996151029262847  0.5000369352464845  1.0000
  C   C10       1.0  0.917815786717533  0.49915140262476865  0.5069655744717778  1.0000
  C   C11       1.0  0.0817904571940744  0.4990028376480639  0.5066334859097452  1.0000
  C   C12       1.0  0.04568331215386931  0.4960819597818968  0.5891137341708659  1.0000
  C   C13       1.0  0.9489026597669153  0.49283803702488177  0.5878153483319936  1.0000
  C   C14       1.0  0.17241984023577575  0.4990834597941499  0.5055722091669497  1.0000
  C   C15       1.0  0.8272226455014577  0.4993098585879777  0.5068337973644219  1.0000
  C   C16       1.0  0.7514123089749419  0.49964964562767034  0.5063057754060196  1.0000
  C   C17       1.0  0.518278836738638  0.5714044863709234  0.8451277400823116  1.0000
  C   C18       1.0  0.5182924623819574  0.42850718532707094  0.8452665701941768  1.0000
  C   C19       1.0  0.5128212091715555  0.571055551521333  0.7675900565893556  1.0000
  C   C20       1.0  0.5128256988898771  0.42887612957004256  0.7677282484155512  1.0000
  C   C21       1.0  0.509766339566774  0.4999646316958747  0.728285924895566  1.0000
  C   C22       1.0  0.5205892770349436  0.4999607778064146  0.8851534418484804  1.0000
  C   C23       1.0  0.5230242314164926  0.4999980358962192  0.9642206833034379  1.0000
  C   C24       1.0  0.5221008910020261  0.5000446910288759  0.0326637267222836  1.0000
  C   C25       1.0  0.515080052299716  0.5709337269535338  0.1533561613031154  1.0000
  C   C26       1.0  0.5149236063653504  0.42912239669693264  0.1534402067582619  1.0000
  C   C27       1.0  0.5090322725580735  0.5710958153345161  0.23114702988855376  1.0000
  C   C28       1.0  0.5088741600256057  0.4288947803452246  0.2312329759025573  1.0000
  C   C29       1.0  0.5060522022985268  0.49998914235807496  0.2703786460950043  1.0000
  C   C30       1.0  0.517979320822704  0.5000381505761099  0.1114875772669137  1.0000
  C   C31       1.0  0.5548663997209787  0.8391398564000881  0.4531608381585528  1.0000
  C   C32       1.0  0.5545450259910255  0.16075042838970433  0.45304278463008535  1.0000
  C   C33       1.0  0.5530288539338033  0.7574387837537132  0.45483029230039307  1.0000
  C   C34       1.0  0.5527568171697297  0.2424385951397597  0.4546617253376226  1.0000
  C   C35       1.0  0.4466112415635238  0.7569880901281753  0.5453522251496281  1.0000
  C   C36       1.0  0.4465139230355605  0.2429547064519754  0.5453545221646579  1.0000
  C   C37       1.0  0.4443995557051821  0.8386650202293285  0.5474218438212333  1.0000
  C   C38       1.0  0.4442872920069973  0.16128398243983363  0.5475011763286872  1.0000
  C   C39       1.0  0.4995082293067483  0.8813760984608056  0.5003680885976748  1.0000
  C   C40       1.0  0.4993131866122837  0.1185479104238496  0.5003859692567546  1.0000
  C   C41       1.0  0.49929733833137396  0.9642406963884799  0.5005041138955519  1.0000
  C   C42       1.0  0.49919299184636406  0.0356779822184947  0.5005530057993184  1.0000
  C   C43       1.0  0.06365139350267411  0.5726704075952541  0.7010060574973807  1.0000
  C   C44       1.0  0.0377908892185133  0.38517692459524977  0.6781215631192411  1.0000
  I   I1        1.0  0.6409134229648785  0.7048122857205927  0.3809564006747763  1.0000
  I   I2        1.0  0.6406723035179597  0.2949226936425903  0.3807084749159699  1.0000
  I   I3        1.0  0.3593233695387212  0.7032334170693918  0.6191161090427214  1.0000
  I   I4        1.0  0.3593332516572119  0.29684627256786916  0.6191451499770508  1.0000
  I   I5        1.0  0.8969200037028388  0.31776374266583945  0.4884059192744488  1.0000
  I   I6        1.0  0.900549015966327  0.6813329453718782  0.5147622138928298  1.0000
  I   I7        1.0  0.520526303798448  0.6795438332734066  0.0973619700217654  1.0000
  I   I8        1.0  0.5201641283190312  0.32055353595147557  0.0975646255857754  1.0000
  N   N1        1.0  0.4998799464285499  0.715455361435595  0.49994279046241985  1.0000
  N   N2        1.0  0.4997509135904181  0.28444367361997547  0.499888518993636  1.0000
  O   O1        1.0  0.5014851390812112  0.5666240606435977  0.3864390076036912  1.0000
  O   O2        1.0  0.5015717599350965  0.4333047071781665  0.3865099462487152  1.0000
  O   O3        1.0  0.6261240617633489  0.566628419263104  0.5031741404403576  1.0000
  O   O4        1.0  0.6262472051953409  0.43277344556814523  0.5032174439889587  1.0000
  O   O5        1.0  0.5000229670077161  0.5665425629304368  0.6126143545563849  1.0000
  O   O6        1.0  0.5002215060394803  0.43332101851682847  0.6127388592706637  1.0000
  O   O7        1.0  0.37359133798260313  0.5668369651402191  0.49590906150463343  1.0000
  O   O8        1.0  0.3739445325371378  0.43305400943889083  0.4959517890977451  1.0000
  O   O9        1.0  0.07351190918549828  0.5673463555435563  0.6216524028554105  1.0000
  O   O10       1.0  0.0837717333002672  0.43042695629345934  0.6234789550578059  1.0000
