data_image0
_chemical_formula_structural       Cd2H24C52N4O16
_chemical_formula_sum              "Cd2 H24 C52 N4 O16"
_cell_length_a       6.842962196168249
_cell_length_b       12.54050254625723
_cell_length_c       14.480182739771156
_cell_angle_alpha    115.67246886930269
_cell_angle_beta     94.74909091765082
_cell_angle_gamma    89.98061620842972

_space_group_name_H-M_alt    "P 1"
_space_group_IT_number       1

loop_
  _space_group_symop_operation_xyz
  'x, y, z'

loop_
  _atom_site_type_symbol
  _atom_site_label
  _atom_site_symmetry_multiplicity
  _atom_site_fract_x
  _atom_site_fract_y
  _atom_site_fract_z
  _atom_site_occupancy
  Cd  Cd1       1.0  0.749896391276913  0.8998529589223877  0.9999703857937376  1.0000
  Cd  Cd2       1.0  0.2501034468281631  0.10014803226489019  3.088882166219351e-05  1.0000
  H   H1        1.0  0.45131997253945855  0.17074993684398979  0.8015011956179735  1.0000
  H   H2        1.0  0.048898769605329996  0.3690480544374565  0.19855455165413355  1.0000
  H   H3        1.0  0.5486738398571376  0.8292484101109492  0.19849744362757343  1.0000
  H   H4        1.0  0.9511010078952467  0.6309520513085116  0.8014463860919178  1.0000
  H   H5        1.0  0.6914950884391686  0.8252718250121305  0.6628042340055629  1.0000
  H   H6        1.0  0.8087859469617487  0.1623446954580103  0.33719696325280074  1.0000
  H   H7        1.0  0.30850758205326667  0.1747273980075974  0.3371951120432612  1.0000
  H   H8        1.0  0.19121816868000255  0.8376545201583878  0.6628038225908739  1.0000
  H   H9        1.0  0.4954902589008087  0.7239786895198888  0.7898138834461008  1.0000
  H   H10       1.0  0.004879207507123309  0.9339302387229649  0.21004284106722068  1.0000
  H   H11       1.0  0.5045097215125197  0.27602407839058424  0.21018668676878594  1.0000
  H   H12       1.0  0.9951205910927003  0.06606987286357927  0.789956718539635  1.0000
  H   H13       1.0  0.4007404347095189  0.50628768844453  0.6823337193177322  1.0000
  H   H14       1.0  0.09966604699396703  0.8236598681260006  0.31742179483310917  1.0000
  H   H15       1.0  0.5992566843608175  0.49371597095305464  0.31766637538559184  1.0000
  H   H16       1.0  0.9003366340480954  0.17633935781401522  0.6825768621461066  1.0000
  H   H17       1.0  0.5056937570996709  0.3638310814597644  0.753087278117107  1.0000
  H   H18       1.0  0.9941689811426362  0.6105535222182894  0.2467569184082734  1.0000
  H   H19       1.0  0.49430031881417585  0.636170813100996  0.24691133046661656  1.0000
  H   H20       1.0  0.005833649844554099  0.38944482120070484  0.7532407126319995  1.0000
  H   H21       1.0  0.6923370495737731  0.4384858110466253  0.9251933517538902  1.0000
  H   H22       1.0  0.80701117356778  0.5132706059080474  0.07476065502016373  1.0000
  H   H23       1.0  0.30765690513107563  0.561514312631516  0.0748045830911437  1.0000
  H   H24       1.0  0.19299005177535386  0.48672862451500976  0.9252372512337956  1.0000
  C   C1        1.0  0.6000660205881729  0.9990990017001947  0.8466656880779553  1.0000
  C   C2        1.0  0.8999304607216916  0.15226406224713426  0.1533357994351405  1.0000
  C   C3        1.0  0.3999351625564601  0.0009002170417104993  0.1533349744544097  1.0000
  C   C4        1.0  0.10006791113482902  0.8477369305028971  0.8466654135245975  1.0000
  C   C5        1.0  0.5740366435419305  0.9982066948228263  0.7415465352757025  1.0000
  C   C6        1.0  0.9261716569563492  0.2564965070547202  0.2584570078216473  1.0000
  C   C7        1.0  0.425960069702903  0.0017916402457415998  0.2584542944899582  1.0000
  C   C8        1.0  0.07382953673790382  0.743502714607473  0.7415429656411162  1.0000
  C   C9        1.0  0.4917125661117014  0.0962017862214068  0.7326090649163604  1.0000
  C   C10       1.0  0.008505827693532801  0.36340827434233347  0.2674341575632155  1.0000
  C   C11       1.0  0.5082826308297044  0.9037956678888929  0.26739067725470267  1.0000
  C   C12       1.0  0.9914938496972923  0.6365900663615917  0.7325647283049506  1.0000
  C   C13       1.0  0.4629515699540363  0.09565188450582697  0.63639219296779  1.0000
  C   C14       1.0  0.03712790724218  0.45914423085295636  0.3636494721611782  1.0000
  C   C15       1.0  0.5370481469420413  0.9043473357988316  0.36360840790891996  1.0000
  C   C16       1.0  0.9628719414125229  0.5408567632546095  0.6363511133846202  1.0000
  C   C17       1.0  0.516575632427525  0.9989755360919047  0.5487089849203952  1.0000
  C   C18       1.0  0.9834685789087558  0.45020962288927524  0.4513085446447532  1.0000
  C   C19       1.0  0.48342709866940947  0.0010245723691327002  0.4512906979977629  1.0000
  C   C20       1.0  0.0165326147855041  0.5497895987729178  0.5486914288180103  1.0000
  C   C21       1.0  0.5999103023438296  0.9008390571243439  0.5579649167997686  1.0000
  C   C22       1.0  0.9002657849850308  0.34278465959197746  0.442042832312019  1.0000
  C   C23       1.0  0.4000908307459242  0.09915927909653988  0.4420347197936536  1.0000
  C   C24       1.0  0.09973807768908928  0.6572110113388873  0.5579572951238774  1.0000
  C   C25       1.0  0.6284531374075613  0.9007309825267807  0.6546154203254133  1.0000
  C   C26       1.0  0.8718489960050207  0.24596921381690612  0.34539068972936343  1.0000
  C   C27       1.0  0.3715480562866987  0.0992682391354123  0.3453845531373503  1.0000
  C   C28       1.0  0.12815505903222404  0.7540291163581827  0.6546097592449627  1.0000
  C   C29       1.0  0.6486980283334064  0.7985813423844301  0.464625384548455  1.0000
  C   C30       1.0  0.85141963864578  0.3339591620109842  0.5353951212580981  1.0000
  C   C31       1.0  0.3513005569854927  0.20142231545040085  0.535374771810524  1.0000
  C   C32       1.0  0.14858327426466642  0.666043602773989  0.46460557226809834  1.0000
  C   C33       1.0  0.5331925187207602  0.6570355502018543  0.8167011691581935  1.0000
  C   C34       1.0  0.9669179295270922  0.8401285014931898  0.18317074898272512  1.0000
  C   C35       1.0  0.4668060059936324  0.34296722219166736  0.18329865033143727  1.0000
  C   C36       1.0  0.0330788654214942  0.15987072485727075  0.8168290395130811  1.0000
  C   C37       1.0  0.482133300893274  0.5374133327169162  0.7578094857114124  1.0000
  C   C38       1.0  0.018027877201937825  0.7793438119990413  0.24200403415105853  1.0000
  C   C39       1.0  0.5178652238211187  0.4625894396766057  0.24219033377821828  1.0000
  C   C40       1.0  0.9819718001888874  0.22065452870488392  0.7579948517171076  1.0000
  C   C41       1.0  0.5406426787158054  0.45799322379856006  0.7975941725911326  1.0000
  C   C42       1.0  0.9591671955871208  0.6602119588047585  0.20226213869420206  1.0000
  C   C43       1.0  0.4593557353392158  0.5420077806326302  0.20240428409021397  1.0000
  C   C44       1.0  0.04083406926125831  0.3397881512190324  0.7977374825683015  1.0000
  C   C45       1.0  0.6452484562524745  0.500201933147423  0.894089498689695  1.0000
  C   C46       1.0  0.8542467519763266  0.606058061451044  0.10584448364417649  1.0000
  C   C47       1.0  0.35474843094948477  0.4997981874052113  0.10590855946664843  1.0000
  C   C48       1.0  0.14575300711824474  0.3939411705347737  0.8941533609541281  1.0000
  C   C49       1.0  0.6920627431936097  0.6217962795248224  0.9487450484676571  1.0000
  C   C50       1.0  0.807392231203778  0.6730507586978262  0.05126989930126053  1.0000
  C   C51       1.0  0.30793558915765834  0.3782038336244752  0.05125444948354385  1.0000
  C   C52       1.0  0.19260610114749005  0.3269493544514716  0.9487295986499404  1.0000
  N   N1        1.0  0.63575881519337  0.6974387754817072  0.908962035934259  1.0000
  N   N2        1.0  0.8640306477120346  0.7884106277316364  0.09100434548358999  1.0000
  N   N3        1.0  0.36424104401096  0.30256222154614676  0.0910378605419382  1.0000
  N   N4        1.0  0.13596767408960633  0.21158948249737358  0.9089958415372124  1.0000
  O   O1        1.0  0.6734865697553619  0.90632077790692  0.8487342198133091  1.0000
  O   O2        1.0  0.8261419843528729  0.05751256950456709  0.1512456469985821  1.0000
  O   O3        1.0  0.32651913334395033  0.09368020702934388  0.1512673014247099  1.0000
  O   O4        1.0  0.1738535156110359  0.9424893118122878  0.8487557795192016  1.0000
  O   O5        1.0  0.5500539430650805  0.0889092673707381  0.9228365922829694  1.0000
  O   O6        1.0  0.9501012022342865  0.1658082422466407  0.07717651666603591  1.0000
  O   O7        1.0  0.4499441758238164  0.9110881806937595  0.07716396226899735  1.0000
  O   O8        1.0  0.04989710901773491  0.8341918650620811  0.9228243594243607  1.0000
  O   O9        1.0  0.38040327049980505  0.19185389577252465  0.6282424988870544  1.0000
  O   O10       1.0  0.11965548184397791  0.5634880806344994  0.37178747946078516  1.0000
  O   O11       1.0  0.6195964674955194  0.80814533037271  0.37175672385045994  1.0000
  O   O12       1.0  0.8803443457114783  0.43651290763249034  0.6282144842242161  1.0000
  O   O13       1.0  0.7131550247569365  0.7058901952002825  0.45997391737993343  1.0000
  O   O14       1.0  0.787004521095355  0.24596875601533694  0.5401015869337726  1.0000
  O   O15       1.0  0.2868474322731275  0.2941063627346451  0.5400264852696495  1.0000
  O   O16       1.0  0.2129891673989946  0.7540286879765642  0.4599008498600341  1.0000
