data_image0
_chemical_formula_structural       Zr6H48C60Br2O32
_chemical_formula_sum              "Zr6 H48 C60 Br2 O32"
_cell_length_a       14.772281785240763
_cell_length_b       14.776277460960678
_cell_length_c       14.785153384149455
_cell_angle_alpha    60.23164442624055
_cell_angle_beta     60.00986157792286
_cell_angle_gamma    59.95883044983514

_space_group_name_H-M_alt    "P 1"
_space_group_IT_number       1

loop_
  _space_group_symop_operation_xyz
  'x, y, z'

loop_
  _atom_site_type_symbol
  _atom_site_label
  _atom_site_symmetry_multiplicity
  _atom_site_fract_x
  _atom_site_fract_y
  _atom_site_fract_z
  _atom_site_occupancy
  Zr  Zr1       1.0  0.8799163121105948  0.8800469705017236  0.6148224737378102  1.0000
  Zr  Zr2       1.0  0.1216131043686133  0.11569638733944033  0.3810815604877575  1.0000
  Zr  Zr3       1.0  0.11871340235444484  0.8769112631814123  0.6197014657353889  1.0000
  Zr  Zr4       1.0  0.8823173544338444  0.11864552886994759  0.37799591027432206  1.0000
  Zr  Zr5       1.0  0.12124079706374857  0.8787652516050954  0.3784186828618061  1.0000
  Zr  Zr6       1.0  0.8809341772956713  0.11687678236553024  0.6186283511755519  1.0000
  H   H1        1.0  0.09671883569259883  0.7151918786357498  0.5883432321089189  1.0000
  H   H2        1.0  0.09984318614986878  0.0897926660571429  0.21586054017658543  1.0000
  H   H3        1.0  0.09234701118402457  0.08964147524878285  0.5973322480827578  1.0000
  H   H4        1.0  0.7182214127041462  0.0955869235884279  0.5902098609801031  1.0000
  H   H5        1.0  0.16725435349560053  0.5480343595852589  0.4132789225574031  1.0000
  H   H6        1.0  0.8271522297899451  0.4611370390393503  0.5641330596222005  1.0000
  H   H7        1.0  0.6453765739023611  0.06828587293396272  0.9574101339089296  1.0000
  H   H8        1.0  0.3689832564664711  0.9137864623256249  0.05197130329971603  1.0000
  H   H9        1.0  0.8748008739804403  0.14483003950700635  0.07949781283170414  1.0000
  H   H10       1.0  0.10812798230688983  0.8313383145463504  0.9370133666360942  1.0000
  H   H11       1.0  0.61023769005115  0.42360842057928483  0.344265615571544  1.0000
  H   H12       1.0  0.41647391182705434  0.5989756737519515  0.6305225218668511  1.0000
  H   H13       1.0  0.7648560508501349  0.7138519312582191  0.03999675126379293  1.0000
  H   H14       1.0  0.7359702136736389  0.6522118689532587  0.984145322709736  1.0000
  H   H15       1.0  0.7364803418059439  0.48469895614756103  0.15579061627192226  1.0000
  H   H16       1.0  0.7657720430185788  0.5460112225222602  0.21176643311215318  1.0000
  H   H17       1.0  0.5935600381601702  0.8630899877785652  0.6356691855123414  1.0000
  H   H18       1.0  0.4061971631230534  0.13551436513552062  0.36136741795876753  1.0000
  H   H19       1.0  0.28036984505805423  0.38182473129270983  0.3851133200803218  1.0000
  H   H20       1.0  0.23166825205877473  0.267375181531996  0.4611838465372387  1.0000
  H   H21       1.0  0.2285287730465483  0.34549668441642467  0.32589477316695087  1.0000
  H   H22       1.0  0.7141939529668946  0.631321354515123  0.5856091076279314  1.0000
  H   H23       1.0  0.7635721385549133  0.6536927772078583  0.6584669259085275  1.0000
  H   H24       1.0  0.7653740639235593  0.7427523627603777  0.5236868472504098  1.0000
  H   H25       1.0  0.4187450121959985  0.1645981770516299  0.1504391520686923  1.0000
  H   H26       1.0  0.4684202830764477  0.03095569016278434  0.2384749883184938  1.0000
  H   H27       1.0  0.564681753737773  0.09712727923424334  0.12430461953184142  1.0000
  H   H28       1.0  0.5434592415357572  0.9549612805666  0.7699296453595252  1.0000
  H   H29       1.0  0.5920034258188096  0.8199665047574387  0.8563708045462237  1.0000
  H   H30       1.0  0.4462244318586671  0.8900969846378004  0.883574383612363  1.0000
  H   H31       1.0  0.7992995942508969  0.24761635049582484  0.9453027532611245  1.0000
  H   H32       1.0  0.88013732428589  0.22970538028565812  0.8129480753710395  1.0000
  H   H33       1.0  0.7732069566710322  0.17326355258379073  0.9007234866696551  1.0000
  H   H34       1.0  0.2144103927066112  0.8020528019707884  0.10758512600435206  1.0000
  H   H35       1.0  0.10422492101174907  0.7527156724502505  0.20666877134448924  1.0000
  H   H36       1.0  0.17586077573764675  0.7246938833530834  0.0789952770511562  1.0000
  H   H37       1.0  0.5019232088822961  0.5572889277875959  0.2406862514475138  1.0000
  H   H38       1.0  0.3587572779461254  0.5962715302764393  0.3226102136970326  1.0000
  H   H39       1.0  0.4282462526838983  0.6919068159181734  0.2546783798730488  1.0000
  H   H40       1.0  0.5360736187560988  0.47854639188332726  0.7228704970434593  1.0000
  H   H41       1.0  0.5800262000192332  0.33911627523629295  0.730563291800337  1.0000
  H   H42       1.0  0.6757217362205951  0.40982902562030427  0.6508936882694627  1.0000
  H   H43       1.0  0.47377603382983574  0.770139419800188  0.7304913320022024  1.0000
  H   H44       1.0  0.3329903298309701  0.8512098297956001  0.7368055261646235  1.0000
  H   H45       1.0  0.41367277903838573  0.766113602542177  0.6538577828955497  1.0000
  H   H46       1.0  0.5250434939980264  0.22891631819287994  0.26712497886814657  1.0000
  H   H47       1.0  0.5805404057085893  0.23543899277775884  0.346085501918708  1.0000
  H   H48       1.0  0.6659752345293483  0.15093129483027218  0.2623332394185525  1.0000
  C   C1        1.0  0.9936301066698903  0.7012083421218307  0.49024194858905207  1.0000
  C   C2        1.0  0.3136549869028615  0.9922549698603689  0.20255923574165985  1.0000
  C   C3        1.0  0.0017503575942257655  0.30381180334012464  0.4946177486270287  1.0000
  C   C4        1.0  0.6975282174303035  0.9936359990566854  0.8039998414956885  1.0000
  C   C5        1.0  0.0001611319564246227  0.691977316707515  0.7971699420989538  1.0000
  C   C6        1.0  0.697501223865082  0.0032829651190908523  0.4905024942352583  1.0000
  C   C7        1.0  0.0018146695902316902  0.2986783250206387  0.19408858117316896  1.0000
  C   C8        1.0  0.30502213896495767  0.9922427438869196  0.5040110561613105  1.0000
  C   C9        1.0  0.31197440877152616  0.70155407584371  0.4891133015014192  1.0000
  C   C10       1.0  0.991076988805972  0.992366089465726  0.8104128390889046  1.0000
  C   C11       1.0  0.703426800433526  0.30945158211948603  0.4955815077843584  1.0000
  C   C12       1.0  0.999892569417277  0.9901608824039346  0.19874959048410565  1.0000
  C   C13       1.0  0.0037247754996628138  0.406044384841536  0.490211420810283  1.0000
  C   C14       1.0  0.990703357322225  0.6022523849129796  0.4889756201883275  1.0000
  C   C15       1.0  0.10298024050138113  0.42864845875518404  0.4457017926971857  1.0000
  C   C16       1.0  0.8914515750518246  0.5801873300075042  0.5323596654382642  1.0000
  C   C17       1.0  0.09277546175575668  0.5276034265198746  0.4461495826520903  1.0000
  C   C18       1.0  0.901653482416549  0.4814029656905988  0.5315343703152139  1.0000
  C   C19       1.0  0.4161460989813151  0.9918710771705791  0.10277111081369132  1.0000
  C   C20       1.0  0.5978889915520114  0.990588738817337  0.9064831720489295  1.0000
  C   C21       1.0  0.4938549199222564  0.03692601419749754  0.07824793862873491  1.0000
  C   C22       1.0  0.5201804294325498  0.9456258378100202  0.9309588065496186  1.0000
  C   C23       1.0  0.5832757716805617  0.03461544199085849  0.9795993953801841  1.0000
  C   C24       1.0  0.43122712446339784  0.947202164472735  0.029910173798001125  1.0000
  C   C25       1.0  0.9870623859093328  0.9934981755850529  0.9129237255955543  1.0000
  C   C26       1.0  0.9975526289909667  0.98386519488043  0.1020925953133372  1.0000
  C   C27       1.0  0.9176674780385667  0.08470644311020693  0.9524847138700708  1.0000
  C   C28       1.0  0.06528518339262472  0.8916764261223806  0.06395900283773412  1.0000
  C   C29       1.0  0.9256793284878453  0.07610015179058406  0.0468456678182037  1.0000
  C   C30       1.0  0.057304156566502264  0.9001820060434227  0.9695476588033857  1.0000
  C   C31       1.0  0.4179802087039731  0.6056787319003547  0.4822720752416457  1.0000
  C   C32       1.0  0.6063174542448804  0.4145359539503275  0.49458594937097905  1.0000
  C   C33       1.0  0.47306583133760677  0.5588755861073551  0.3969761634061371  1.0000
  C   C34       1.0  0.5537910777112387  0.4638462624513052  0.5775935500401347  1.0000
  C   C35       1.0  0.5660307813786503  0.463693659574993  0.4069039085677133  1.0000
  C   C36       1.0  0.4606101607076383  0.5589901038056196  0.5677798086467122  1.0000
  C   C37       1.0  0.004160611102833038  0.585008339932095  0.8907927584279919  1.0000
  C   C38       1.0  0.0048319663978517845  0.3920562032899896  0.08696994732999029  1.0000
  C   C39       1.0  0.9090359358644022  0.576180411833434  0.9822884533622654  1.0000
  C   C40       1.0  0.10015126118357655  0.39500341104933756  0.9909432677859441  1.0000
  C   C41       1.0  0.9093888532675294  0.48326428164531177  0.07708393746157338  1.0000
  C   C42       1.0  0.09998530410955919  0.48935104870147234  0.8953932151027288  1.0000
  C   C43       1.0  0.7861582481982412  0.6365234675066489  0.0288821986018206  1.0000
  C   C44       1.0  0.7865755318495501  0.5311011697614915  0.1367909056072492  1.0000
  C   C45       1.0  0.40541220365733494  0.992023540851811  0.5056065950630712  1.0000
  C   C46       1.0  0.595285638640263  0.0056573974760637715  0.49053063786906387  1.0000
  C   C47       1.0  0.45652646381893197  0.9126494160793756  0.5866963524861006  1.0000
  C   C48       1.0  0.5430403858631364  0.08619183084459799  0.4105185774969939  1.0000
  C   C49       1.0  0.5508954600933295  0.9226164747292672  0.5756580055432678  1.0000
  C   C50       1.0  0.44897754619234587  0.07588253130075634  0.4212677221068831  1.0000
  C   C51       1.0  0.21692088053305264  0.35194684435487744  0.4021030534066412  1.0000
  C   C52       1.0  0.7775641233273305  0.6561155729351711  0.5770706658993774  1.0000
  C   C53       1.0  0.48636800706452027  0.08469955702089041  0.15184347588390068  1.0000
  C   C54       1.0  0.5255835513467417  0.9004015288852187  0.8562856495861055  1.0000
  C   C55       1.0  0.8384443102678674  0.18946006630923748  0.9001404034516299  1.0000
  C   C56       1.0  0.1438157589320569  0.7869920702390586  0.1172786003129289  1.0000
  C   C57       1.0  0.43899499736946285  0.6035080891382876  0.2982578776786156  1.0000
  C   C58       1.0  0.5883445146016514  0.4208529011779659  0.6755717216853938  1.0000
  C   C59       1.0  0.4173563498619686  0.8198856477930291  0.6821502531255632  1.0000
  C   C60       1.0  0.5806138224237074  0.18047028902970655  0.3163078723447584  1.0000
  Br  Br1       1.0  0.2270917038824934  0.2640239482755788  0.9897432260695423  1.0000
  Br  Br2       1.0  0.22774244075103675  0.486706503065683  0.7657396676419878  1.0000
  O   O1        1.0  0.9174611785988702  0.7413861663631849  0.5671988451000446  1.0000
  O   O2        1.0  0.272171059825986  0.06880256480643963  0.24337663347294847  1.0000
  O   O3        1.0  0.07807765027979491  0.2615245666806061  0.41909811755600407  1.0000
  O   O4        1.0  0.737754024400509  0.9183639875709702  0.7617668069208391  1.0000
  O   O5        1.0  0.07424137641976347  0.7326001315713385  0.7634322553044157  1.0000
  O   O6        1.0  0.7384918331461493  0.07946019896738214  0.41565043972713756  1.0000
  O   O7        1.0  0.921385797400518  0.26319655808192977  0.23606796387905155  1.0000
  O   O8        1.0  0.2629883179894249  0.9172739746811872  0.5802659116904464  1.0000
  O   O9        1.0  0.26688833855671135  0.7377226794407578  0.4175661607095266  1.0000
  O   O10       1.0  0.917139776406856  0.07008648008789455  0.7669238454574909  1.0000
  O   O11       1.0  0.7420867997246035  0.2646745635986463  0.5742285694330961  1.0000
  O   O12       1.0  0.07987728121206325  0.9180582909958376  0.23577963465744034  1.0000
  O   O13       1.0  0.0689344804966649  0.9151911265213287  0.7711042534129362  1.0000
  O   O14       1.0  0.7406158916996901  0.2697777327449771  0.4192136014453068  1.0000
  O   O15       1.0  0.923439295812628  0.06845592198062879  0.2369129289630649  1.0000
  O   O16       1.0  0.27120086783009584  0.7394062285127846  0.5677018811373103  1.0000
  O   O17       1.0  0.9197704502176473  0.7349624113576071  0.761730856766633  1.0000
  O   O18       1.0  0.2667691597988621  0.06874636298206839  0.4263081192178717  1.0000
  O   O19       1.0  0.07519982114391158  0.2644777152709139  0.23538669574874396  1.0000
  O   O20       1.0  0.7372275365986953  0.9251378221360296  0.5666991314398971  1.0000
  O   O21       1.0  0.7358065441998107  0.07104579104152703  0.7657470150049478  1.0000
  O   O22       1.0  0.07394120888834277  0.736901024945162  0.41661324408007533  1.0000
  O   O23       1.0  0.27225758789896337  0.9179237386122381  0.23809148732460284  1.0000
  O   O24       1.0  0.9245011710437225  0.265626541786041  0.5726549404750685  1.0000
  O   O25       1.0  0.7986123105490748  0.06723695241571896  0.5641942903069576  1.0000
  O   O26       1.0  0.06646416454242407  0.0635767720710874  0.5689494992343569  1.0000
  O   O27       1.0  0.07073377263223081  0.06514051831312169  0.29608059909499923  1.0000
  O   O28       1.0  0.06791760174338199  0.7954803930412878  0.5643957932040351  1.0000
  O   O29       1.0  0.14960816415342046  0.9474896368765755  0.45065212515395825  1.0000
  O   O30       1.0  0.9514683246471592  0.9495565165522918  0.44680642611537297  1.0000
  O   O31       1.0  0.9520176167517391  0.14663935900469466  0.4492038087522801  1.0000
  O   O32       1.0  0.9497497894367729  0.947578300634582  0.647032730095667  1.0000
