data_image0
_chemical_formula_structural       Zn4H36C56N4Cl8O20
_chemical_formula_sum              "Zn4 H36 C56 N4 Cl8 O20"
_cell_length_a       7.98622679
_cell_length_b       13.084353360148333
_cell_length_c       14.4153
_cell_angle_alpha    90.0
_cell_angle_beta     90.0
_cell_angle_gamma    92.92296659484643

_space_group_name_H-M_alt    "P 1"
_space_group_IT_number       1

loop_
  _space_group_symop_operation_xyz
  'x, y, z'

loop_
  _atom_site_type_symbol
  _atom_site_label
  _atom_site_symmetry_multiplicity
  _atom_site_fract_x
  _atom_site_fract_y
  _atom_site_fract_z
  _atom_site_occupancy
  Zn  Zn1       1.0  0.9356755522936525  0.9304769575157154  0.0726804159469481  1.0000
  Zn  Zn2       1.0  0.5643244300834099  0.5695218281199672  0.5726811096543258  1.0000
  Zn  Zn3       1.0  0.0643187542105963  0.0695191718391115  0.9273195840530519  1.0000
  Zn  Zn4       1.0  0.4356803412098813  0.4304796581055399  0.42731958405305204  1.0000
  H   H1        1.0  0.10893346144445101  0.4565362423437307  0.9133060012625478  1.0000
  H   H2        1.0  0.3910695183127403  0.043464118135403906  0.4133060012625479  1.0000
  H   H3        1.0  0.89106867766791  0.5434637133472933  0.0866933050300744  1.0000
  H   H4        1.0  0.6089326207996208  0.9565358375556272  0.5866926113226897  1.0000
  H   H5        1.0  0.1682132732137163  0.7065490494927502  0.718931274409826  1.0000
  H   H6        1.0  0.3317889394022728  0.7934512666774083  0.21893127440982602  1.0000
  H   H7        1.0  0.8317864894564694  0.2934524367327569  0.2810680318827892  1.0000
  H   H8        1.0  0.6682144518658646  0.20654868901361575  0.7810666444680336  1.0000
  H   H9        1.0  0.32804862255726164  0.8083624988393296  0.8353582651765805  1.0000
  H   H10       1.0  0.1719498975260976  0.6916385825980741  0.3353582651765805  1.0000
  H   H11       1.0  0.6719536444244767  0.19163898738617755  0.1646403474086569  1.0000
  H   H12       1.0  0.8280523055209557  0.3083621383601951  0.6646396537012791  1.0000
  H   H13       1.0  0.5078465656826268  0.8658210589837125  0.9313819344723981  1.0000
  H   H14       1.0  0.9921548606542812  0.6341800224536911  0.43138193447239814  1.0000
  H   H15       1.0  0.492147000143376  0.1341811925090326  0.0686159844054615  1.0000
  H   H16       1.0  0.007850970990709503  0.3658191679700948  0.5686152906980766  1.0000
  H   H17       1.0  0.5198393730582468  0.8736405596370602  0.0539364425298103  1.0000
  H   H18       1.0  0.9801607371882068  0.6263597565331056  0.5539364425298103  1.0000
  H   H19       1.0  0.4801504363004341  0.1263616918556849  0.9460642511775674  1.0000
  H   H20       1.0  0.019848850924120098  0.3736394338906877  0.4460635574701898  1.0000
  H   H21       1.0  0.7310504190503195  0.7351532083712798  0.066267091215586  1.0000
  H   H22       1.0  0.7689471868845742  0.764847107798879  0.5662663975082012  1.0000
  H   H23       1.0  0.2689353141675781  0.2648452167852682  0.9337356836139392  1.0000
  H   H24       1.0  0.2310612769413538  0.2351536131593903  0.4337349899065543  1.0000
  H   H25       1.0  0.5910570666983618  0.6127357038680474  0.18019534799830692  1.0000
  H   H26       1.0  0.9089405392365392  0.8872646123021115  0.6801946542909292  1.0000
  H   H27       1.0  0.40894080446914666  0.38725812968506557  0.8198074268312112  1.0000
  H   H28       1.0  0.09105816308195361  0.1127391697251099  0.3198060394164557  1.0000
  H   H29       1.0  0.8028690774535151  0.8019235402860617  0.3996122175743864  1.0000
  H   H30       1.0  0.6971322210140158  0.698076010616859  0.8996108301596237  1.0000
  H   H31       1.0  0.1971199646888735  0.1980695279998059  0.600390557255139  1.0000
  H   H32       1.0  0.30287675428944283  0.3019308324793215  0.10038916984037631  1.0000
  H   H33       1.0  0.9339480558053594  0.9172485480134897  0.2767503971474738  1.0000
  H   H34       1.0  0.56605455875264  0.582751768156669  0.7767497034400961  1.0000
  H   H35       1.0  0.06604143387986738  0.0827498771430584  0.7232530713894294  1.0000
  H   H36       1.0  0.433955349033134  0.4172512486033142  0.22325237768204434  1.0000
  C   C1        1.0  0.3173132068744665  0.6897866358784486  0.9403848688546221  1.0000
  C   C2        1.0  0.18268656536466213  0.8102144455589484  0.4403848688546219  1.0000
  C   C3        1.0  0.6826889322378875  0.3102133198125756  0.059614437438000316  1.0000
  C   C4        1.0  0.817313069436146  0.18978551013207584  0.5596137437306226  1.0000
  C   C5        1.0  0.2545560181803523  0.5896491217864082  0.9604683912232164  1.0000
  C   C6        1.0  0.2454449422798675  0.9103511943837577  0.46046839122321614  1.0000
  C   C7        1.0  0.7454498134646457  0.4103500686373778  0.0395316087767839  1.0000
  C   C8        1.0  0.7545559446767172  0.08964876130727362  0.5395309150694061  1.0000
  C   C9        1.0  0.15968361280278734  0.532811958640508  0.8956331120406775  1.0000
  C   C10       1.0  0.3403185358785167  0.9671875922624126  0.3956331120406773  1.0000
  C   C11       1.0  0.840323470997987  0.46718723178327803  0.1043648068371823  1.0000
  C   C12       1.0  0.6596773424549696  0.0328123634286115  0.6043655005445603  1.0000
  C   C13       1.0  0.1287639793350763  0.5755850404586269  0.808929401399901  1.0000
  C   C14       1.0  0.371238297215605  0.9244160409787698  0.30893009510727865  1.0000
  C   C15       1.0  0.871239411933054  0.4244149152323971  0.1910705986000991  1.0000
  C   C16       1.0  0.6287614654545877  0.0755854452467375  0.6910699048927216  1.0000
  C   C17       1.0  0.1904634583835758  0.674198142209562  0.7871289532649328  1.0000
  C   C18       1.0  0.3095363138555527  0.8258029392278348  0.2871289532649328  1.0000
  C   C19       1.0  0.8095388085981624  0.3258033440159451  0.2128703530276823  1.0000
  C   C20       1.0  0.6904659531261857  0.1741985469976655  0.7128696593203045  1.0000
  C   C21       1.0  0.28262880430572324  0.7310215305451494  0.8531213363578942  1.0000
  C   C22       1.0  0.2173722200891817  0.7689795508922543  0.35312133635789433  1.0000
  C   C23       1.0  0.7173759030528757  0.2689791904131198  0.1468772762273431  1.0000
  C   C24       1.0  0.7826287308020952  0.2310211700660147  0.6468758888125805  1.0000
  C   C25       1.0  0.4397634144125462  0.847659736855576  0.9959175320666205  1.0000
  C   C26       1.0  0.06023754604767362  0.6523405793145829  0.49591683835924283  1.0000
  C   C27       1.0  0.560235032167178  0.15234098410268612  0.0040810805186169  1.0000
  C   C28       1.0  0.9397645930646875  0.34765937637644845  0.504080386811232  1.0000
  C   C29       1.0  0.2777196509728981  0.9049453466038315  0.0004446664308091  1.0000
  C   C30       1.0  0.2222799933968531  0.5950542042990891  0.5004439727234242  1.0000
  C   C31       1.0  0.7222651871593229  0.0950423648113627  0.9995615769356192  1.0000
  C   C32       1.0  0.7777331219820809  0.4049572304005339  0.4995608832282343  1.0000
  C   C33       1.0  0.7430584680159171  0.7465273753521657  0.1408267604559015  1.0000
  C   C34       1.0  0.7569390739842915  0.7534721755507547  0.6408260667485238  1.0000
  C   C35       1.0  0.2569285173577569  0.2534710498043822  0.859174626958854  1.0000
  C   C36       1.0  0.2430705780627278  0.2465277801402763  0.3591725458367138  1.0000
  C   C37       1.0  0.666626877424136  0.6791126884217179  0.20399089855916946  1.0000
  C   C38       1.0  0.8333719806665343  0.8208876277484409  0.7039908985591694  1.0000
  C   C39       1.0  0.3333639283515524  0.3208865020020681  0.7960118762703489  1.0000
  C   C40       1.0  0.1666327906267568  0.17911385847705935  0.2960097951482084  1.0000
  C   C41       1.0  0.6885174218540016  0.6979864743498326  0.2986986049544599  1.0000
  C   C42       1.0  0.8114813723019765  0.8020130765530881  0.7986986049544598  1.0000
  C   C43       1.0  0.3114778810672618  0.302006593936035  0.7013020887529252  1.0000
  C   C44       1.0  0.1885200900668238  0.1979937665430995  0.20130070133816255  1.0000
  C   C45       1.0  0.7846360039400366  0.7848473671035592  0.3263719797714941  1.0000
  C   C46       1.0  0.7153664188138933  0.7151506532648781  0.8263705923567315  1.0000
  C   C47       1.0  0.2153596186546878  0.2151495275185056  0.6736307950580314  1.0000
  C   C48       1.0  0.2846383524794049  0.2848508329606219  0.1736301013506463  1.0000
  C   C49       1.0  0.8568111239884572  0.8489300804731741  0.2590594715337176  1.0000
  C   C50       1.0  0.6431914266348501  0.6510694704297464  0.7590587778263399  1.0000
  C   C51       1.0  0.1431844346715749  0.1510660488816598  0.7409405284662827  1.0000
  C   C52       1.0  0.35681604077406354  0.3489343115974748  0.2409398347589047  1.0000
  C   C53       1.0  0.6132357243425304  0.6252860865960628  0.3701157797617825  1.0000
  C   C54       1.0  0.8867617537229863  0.8747126990396198  0.8701171671765451  1.0000
  C   C55       1.0  0.38676435800111625  0.3747192259656416  0.6298946258489269  1.0000
  C   C56       1.0  0.1132335491982772  0.125280369246255  0.129893238434164  1.0000
  N   N1        1.0  0.8364218455779522  0.8299805330883387  0.16788134828966153  1.0000
  N   N2        1.0  0.6635794528895786  0.6700190178145817  0.6678813482896615  1.0000
  N   N3        1.0  0.16356876839366663  0.170016361533726  0.8321214265398567  1.0000
  N   N4        1.0  0.33643032702681813  0.3299824684109254  0.332120732832479  1.0000
  Cl  Cl1       1.0  0.2923028096075342  0.5374686097929455  0.0682136341248523  1.0000
  Cl  Cl2       1.0  0.20769953087784634  0.962533236911689  0.5682136341248523  1.0000
  Cl  Cl3       1.0  0.7077007095299878  0.4625328764325617  0.9317863658751477  1.0000
  Cl  Cl4       1.0  0.792300167857654  0.037467484046573  0.4317856721677629  1.0000
  Cl  Cl5       1.0  0.008185806967993899  0.5069344469363628  0.7281319153954515  1.0000
  Cl  Cl6       1.0  0.4918151534922259  0.9930658692337957  0.2281319153954513  1.0000
  Cl  Cl7       1.0  0.9918163321443672  0.4930655087546612  0.2718666971897932  1.0000
  Cl  Cl8       1.0  0.5081846091779668  0.006935616991711401  0.7718666971897932  1.0000
  O   O1        1.0  0.1677334296252297  0.8721299221062608  0.0577740317579227  1.0000
  O   O2        1.0  0.33226753083499005  0.6278703940639048  0.5577740317579227  1.0000
  O   O3        1.0  0.8322668819191321  0.1278631461796138  0.9422155626313682  1.0000
  O   O4        1.0  0.6677327433127329  0.3721372142995208  0.4422155626313682  1.0000
  O   O5        1.0  0.2704346161975906  0.9817873606578473  0.9469681518941686  1.0000
  O   O6        1.0  0.2295638399510764  0.5182129555123112  0.4469688456015461  1.0000
  O   O7        1.0  0.7295605853923348  0.018219482438333  0.05303184810583161  1.0000
  O   O8        1.0  0.7704376598143767  0.4817793475063183  0.553033929227972  1.0000
  O   O9        1.0  0.41064811978911564  0.7394915083520817  0.0075725097639321014  1.0000
  O   O10       1.0  0.08935415676157281  0.7605095730853151  0.5075725097639321  1.0000
  O   O11       1.0  0.5893540832579376  0.2605092126061805  0.9924267965286904  1.0000
  O   O12       1.0  0.9106442258834591  0.2394903826057089  0.49242471540654986  1.0000
  O   O13       1.0  0.6377996004777842  0.6503945047244954  0.4542437548993093  1.0000
  O   O14       1.0  0.8621990658088166  0.8496035156439419  0.9542451423140719  1.0000
  O   O15       1.0  0.36219926710673184  0.349596267759651  0.5457541639785504  1.0000
  O   O16       1.0  0.1378000201178224  0.15040485798672174  0.0457527765637877  1.0000
  O   O17       1.0  0.5342751899806045  0.5451817383000019  0.3403050925058794  1.0000
  O   O18       1.0  0.9657224159542892  0.9548185778701566  0.8403050925058793  1.0000
  O   O19       1.0  0.465707974991048  0.4548159215893079  0.6596962949088834  1.0000
  O   O20       1.0  0.03428874398726829  0.0451844388898266  0.1596949074941207  1.0000
