data_image0
_chemical_formula_structural       Al2H8C13S2O12
_chemical_formula_sum              "Al2 H8 C13 S2 O12"
_cell_length_a       6.868613614588327
_cell_length_b       8.840805927576646
_cell_length_c       12.910939720648493
_cell_angle_alpha    71.72749800608808
_cell_angle_beta     71.6517173426187
_cell_angle_gamma    74.53803295815487

_space_group_name_H-M_alt    "P 1"
_space_group_IT_number       1

loop_
  _space_group_symop_operation_xyz
  'x, y, z'

loop_
  _atom_site_type_symbol
  _atom_site_label
  _atom_site_symmetry_multiplicity
  _atom_site_fract_x
  _atom_site_fract_y
  _atom_site_fract_z
  _atom_site_occupancy
  Al  Al1       1.0  0.5019670022919768  0.5015891691513161  0.4965458382215359  1.0000
  Al  Al2       1.0  0.0005671426206105957  0.5009373827557085  0.4981452525274791  1.0000
  H   H1        1.0  0.7852124621214783  0.6358025031096943  0.3632067323013361  1.0000
  H   H2        1.0  0.24247965483186104  0.3306510125139895  0.6157589344128809  1.0000
  H   H3        1.0  0.7548646167242693  0.5165058607959595  0.1250521216574896  1.0000
  H   H4        1.0  0.7950910629685308  0.8675906870909886  0.4976210981449541  1.0000
  H   H5        1.0  0.2052265800934308  0.13426307722335915  0.4960101783568548  1.0000
  H   H6        1.0  0.19405074196005503  0.5046085061766449  0.7849374575792112  1.0000
  H   H7        1.0  0.06221837928483611  0.588733298757724  0.9029631467191809  1.0000
  H   H8        1.0  0.13155172831827144  0.37489344463572394  0.9229121924602028  1.0000
  C   C1        1.0  0.364820130346125  0.5142761182984472  0.29940749666850064  1.0000
  C   C2        1.0  0.1604279343268544  0.7867130411639849  0.48856140696498335  1.0000
  C   C3        1.0  0.6352307825150731  0.49131801321876645  0.6945449135577704  1.0000
  C   C4        1.0  0.8409281380946113  0.2140606268780871  0.5073287088426923  1.0000
  C   C5        1.0  0.8989474900652895  0.04303881772204928  0.5015232527103707  1.0000
  C   C6        1.0  0.10211528521707433  0.9577909143611054  0.4941764093650747  1.0000
  C   C7        1.0  0.3818610962224867  0.4952874354813516  0.8920260134436901  1.0000
  C   C8        1.0  0.6162788131925652  0.5116935591236003  0.1033918084178964  1.0000
  C   C9        1.0  0.5733092390904204  0.49673604981355624  0.813201333877892  1.0000
  C   C10       1.0  0.4234031625783815  0.510252965033203  0.18063888088283872  1.0000
  C   C11       1.0  0.603209949487109  0.5065881626705959  0.9973513458176201  1.0000
  C   C12       1.0  0.4007778216074272  0.5006963133681168  0.9966283819334408  1.0000
  C   C13       1.0  0.18266482066817957  0.4902789711648199  0.8736412042426664  1.0000
  S   S1        1.0  0.7701919293743698  0.5059178022140999  0.8661522309972939  1.0000
  S   S2        1.0  0.22651841001002282  0.5016939295273701  0.12566833804060454  1.0000
  O   O1        1.0  0.5070499630625633  0.5133781943998418  0.3436838981264217  1.0000
  O   O2        1.0  0.013108121674427849  0.7199965840165063  0.4894395316604303  1.0000
  O   O3        1.0  0.8308619901989687  0.48512261667251966  0.6472966663446871  1.0000
  O   O4        1.0  0.6522288568532559  0.28324382486637495  0.5123088115839707  1.0000
  O   O5        1.0  0.4969769701639848  0.49190324159538096  0.6477700074415439  1.0000
  O   O6        1.0  0.9883214550517534  0.28047912223131993  0.5072571233066442  1.0000
  O   O7        1.0  0.16985750179136264  0.5193097490363742  0.3479318928969731  1.0000
  O   O8        1.0  0.34916556431242907  0.7177599774771153  0.4829322791356532  1.0000
  O   O9        1.0  0.7584502761671529  0.5782633292560179  0.44227310152008675  1.0000
  O   O10       1.0  0.2459368895642838  0.42332764931344274  0.5510466612453655  1.0000
  O   O11       1.0  0.7376813068010935  0.9816715333479706  0.5028912932315495  1.0000
  O   O12       1.0  0.2633586793242558  0.019609200400324787  0.4923528853241663  1.0000
