data_image0
_chemical_formula_structural       Cu2H8C12S2N4Cl2
_chemical_formula_sum              "Cu2 H8 C12 S2 N4 Cl2"
_cell_length_a       3.730481663747563
_cell_length_b       10.102968018662652
_cell_length_c       10.102983127347864
_cell_angle_alpha    73.93736328370653
_cell_angle_beta     79.21892740287701
_cell_angle_gamma    79.21979104400789

_space_group_name_H-M_alt    "P 1"
_space_group_IT_number       1

loop_
  _space_group_symop_operation_xyz
  'x, y, z'

loop_
  _atom_site_type_symbol
  _atom_site_label
  _atom_site_symmetry_multiplicity
  _atom_site_fract_x
  _atom_site_fract_y
  _atom_site_fract_z
  _atom_site_occupancy
  Cu  Cu1       1.0  0.31068957442908374  0.19130355567934737  0.1915244853878306  1.0000
  Cu  Cu2       1.0  0.31076015392977097  0.691518813885615  0.691293969007063  1.0000
  H   H1        1.0  0.8625233399131249  0.4271998420813858  0.3415717908873788  1.0000
  H   H2        1.0  0.36560289321282374  0.3424571726602678  0.42807531907759977  1.0000
  H   H3        1.0  0.365671323638082  0.9280657886713684  0.842461933915544  1.0000
  H   H4        1.0  0.8626087322632398  0.8415683208790982  0.92719220234396  1.0000
  H   H5        1.0  0.5011665176285189  0.6547177021776207  0.36057533805382747  1.0000
  H   H6        1.0  0.4767822282356279  0.3614036615592155  0.6555445982489942  1.0000
  H   H7        1.0  0.47683073704473594  0.15553752136884919  0.8614198078149046  1.0000
  H   H8        1.0  0.5012022552655541  0.8605805489096027  0.1547146652761953  1.0000
  C   C1        1.0  0.06335001383156687  0.5040849864251555  0.12245254042177578  1.0000
  C   C2        1.0  0.3106563548594181  0.12312383575353178  0.5047141052986248  1.0000
  C   C3        1.0  0.31066314555634733  0.004706538009983787  0.6231391363147125  1.0000
  C   C4        1.0  0.06338818499708063  0.6224578293142002  0.0040754410138675  1.0000
  C   C5        1.0  0.8586505487050504  0.5164834573002323  0.25193456282035237  1.0000
  C   C6        1.0  0.3707912949547066  0.25267616669108867  0.5172068092706041  1.0000
  C   C7        1.0  0.37081302495543167  0.01722414549008278  0.7526734221242037  1.0000
  C   C8        1.0  0.85872887236701  0.7519125198548905  0.0164804491547201  1.0000
  C   C9        1.0  0.6593422643478352  0.6439159062477557  0.260945341150375  1.0000
  C   C10       1.0  0.43159218424580087  0.2617001001747781  0.6446944097181841  1.0000
  C   C11       1.0  0.43161063458337884  0.14468348107708806  0.7616839467242826  1.0000
  C   C12       1.0  0.6593814666094677  0.7609399859280542  0.1439172852264505  1.0000
  S   S1        1.0  0.462990476440787  0.4289849125010079  0.9289943355979132  1.0000
  S   S2        1.0  0.18378800809679777  0.9295790192803963  0.42956865390319626  1.0000
  N   N1        1.0  0.2774045932763374  0.3880308072066398  0.0933066038407162  1.0000
  N   N2        1.0  0.24397752146298052  0.09389302595046439  0.3886732893436218  1.0000
  N   N3        1.0  0.24400819251568645  0.8886828022497822  0.5938912591443994  1.0000
  N   N4        1.0  0.2774425898779358  0.5933029616646478  0.8880247649454773  1.0000
  Cl  Cl1       1.0  0.9054747322965327  0.09682308117779573  0.099043802643429  1.0000
  Cl  Cl2       1.0  0.9055367857707426  0.5990423140965363  0.596797050472034  1.0000
