data_image0
_chemical_formula_structural       Mn2H24C32N20
_chemical_formula_sum              "Mn2 H24 C32 N20"
_cell_length_a       6.8124915516864775
_cell_length_b       9.80649159104056
_cell_length_c       12.485951854886887
_cell_angle_alpha    98.727495244112
_cell_angle_beta     89.98518114647067
_cell_angle_gamma    110.32882560340832

_space_group_name_H-M_alt    "P 1"
_space_group_IT_number       1

loop_
  _space_group_symop_operation_xyz
  'x, y, z'

loop_
  _atom_site_type_symbol
  _atom_site_label
  _atom_site_symmetry_multiplicity
  _atom_site_fract_x
  _atom_site_fract_y
  _atom_site_fract_z
  _atom_site_occupancy
  Mn  Mn1       1.0  0.9357928694211068  1.2480815861701844e-05  0.7500390647831664  1.0000
  Mn  Mn2       1.0  0.06420621327168173  0.9999880229056546  0.24995916469947588  1.0000
  H   H1        1.0  0.6241302474405828  0.7342723413630879  0.8360637796718606  1.0000
  H   H2        1.0  0.8899149460552067  0.26579746094220985  0.6641282332920966  1.0000
  H   H3        1.0  0.3758734199354309  0.265731460842659  0.1639364523688727  1.0000
  H   H4        1.0  0.11008431539650594  0.7341975292621329  0.3358701266872473  1.0000
  H   H5        1.0  0.37307833240914334  0.2407579258872801  0.6805534591771689  1.0000
  H   H6        1.0  0.132841611238888  0.7592458917330023  0.8195851537402274  1.0000
  H   H7        1.0  0.6269238629605739  0.7592458688617612  0.3194483738683687  1.0000
  H   H8        1.0  0.8671591222191213  0.24074910592803903  0.1804116052343048  1.0000
  H   H9        1.0  0.43881912841213494  0.10167122236623531  0.5085612016534071  1.0000
  H   H10       1.0  0.33763655651108604  0.8983597121207229  0.9915395107463707  1.0000
  H   H11       1.0  0.5611830690110936  0.8983325761036411  0.4914398309397398  1.0000
  H   H12       1.0  0.6623632620983672  0.10163639121140734  0.008456581826934  1.0000
  H   H13       1.0  0.6811075821295988  0.23259145591635652  0.3784710409510551  1.0000
  H   H14       1.0  0.448684707607953  0.767389779439249  0.12166963593202243  1.0000
  H   H15       1.0  0.31889425144230205  0.7674145501898979  0.62152945919199  1.0000
  H   H16       1.0  0.5513123541348222  0.23260961858112952  0.8783292601519079  1.0000
  H   H17       1.0  0.8576995737805152  0.5020420642184293  0.41600142830252906  1.0000
  H   H18       1.0  0.35557546636613335  0.49794082263280626  0.08419933073762559  1.0000
  H   H19       1.0  0.14230610838498592  0.49796283252594264  0.5840005384940737  1.0000
  H   H20       1.0  0.6444190193223919  0.5020563602794682  0.915801698901241  1.0000
  H   H21       1.0  0.9320487678493949  0.7432966043455026  0.5493193762686914  1.0000
  H   H22       1.0  0.18833951114925188  0.25660165520383066  0.9508822978998737  1.0000
  H   H23       1.0  0.06795728227444192  0.25670609220417623  0.45068152207324624  1.0000
  H   H24       1.0  0.8116573593406076  0.7433944257732251  0.04911859758780679  1.0000
  C   C1        1.0  0.6493591567797312  0.6713339783823645  0.7608505622607209  1.0000
  C   C2        1.0  0.978112064962325  0.32871053063302474  0.7393321064849161  1.0000
  C   C3        1.0  0.35064267473866556  0.3286720240030477  0.2391507383347075  1.0000
  C   C4        1.0  0.021884811688053764  0.6712855615065437  0.26066638764560673  1.0000
  C   C5        1.0  0.5820435244533186  0.451705199283417  0.6475348540100611  1.0000
  C   C6        1.0  0.1306621867977357  0.5483004822616594  0.852644098284145  1.0000
  C   C7        1.0  0.4179581178656663  0.5482974897795075  0.35246764553673415  1.0000
  C   C8        1.0  0.8693367108026566  0.4516967155790469  0.1473537292450899  1.0000
  C   C9        1.0  0.4800739441941388  0.2972090653143909  0.6233760707906838  1.0000
  C   C10       1.0  0.1833269280815983  0.7028116393763073  0.8767865050029611  1.0000
  C   C11       1.0  0.5199267853298083  0.7027947331404648  0.3766249619024933  1.0000
  C   C12       1.0  0.8166723374771296  0.2971833582697059  0.12321025407160138  1.0000
  C   C13       1.0  0.5181040205946205  0.22061603277234815  0.5280904800375197  1.0000
  C   C14       1.0  0.2979152730563543  0.7794051621349427  0.9720551579968058  1.0000
  C   C15       1.0  0.481895794080778  0.7793888713535895  0.4719098862544228  1.0000
  C   C16       1.0  0.7020801356947504  0.22059092998959076  0.0279433362337471  1.0000
  C   C17       1.0  0.6553837031799219  0.2949097677513066  0.4535320130531204  1.0000
  C   C18       1.0  0.3606828890828809  0.7051022006498757  0.0466331065529815  1.0000
  C   C19       1.0  0.3446181303919787  0.7050962383549406  0.5464684870899247  1.0000
  C   C20       1.0  0.6393145344577107  0.29489498601329  0.953367122433441  1.0000
  C   C21       1.0  0.7541734914481708  0.4456843359245969  0.4744385442914875  1.0000
  C   C22       1.0  0.3085894721575998  0.5542949475521014  0.025741786202161197  1.0000
  C   C23       1.0  0.2458272360222652  0.5543194588094168  0.5255632888540731  1.0000
  C   C24       1.0  0.691407583424656  0.4457044393057644  0.9742595112389266  1.0000
  C   C25       1.0  0.7209440914277323  0.5263691591304039  0.5723204990832969  1.0000
  C   C26       1.0  0.19474651226949652  0.47360213531391787  0.9278618114292951  1.0000
  C   C27       1.0  0.2790566360427037  0.47363463560360963  0.42768133406227077  1.0000
  C   C28       1.0  0.8052498113301568  0.5263928511395264  0.07213734920249237  1.0000
  C   C29       1.0  0.8215048165208928  0.6799587944498884  0.6024440196260059  1.0000
  C   C30       1.0  0.14145008553047234  0.31998538649446573  0.8977421262325294  1.0000
  C   C31       1.0  0.17849737884882447  0.32004500029915317  0.39755781341952456  1.0000
  C   C32       1.0  0.8585438532678468  0.6800107018942043  0.10225716855044448  1.0000
  N   N1        1.0  0.7885231537654394  0.7524093285452127  0.6953890940227581  1.0000
  N   N2        1.0  0.03602085533461263  0.24757211936970697  0.8047863594031027  1.0000
  N   N3        1.0  0.21147996261334617  0.2475933716952455  0.3046110040668495  1.0000
  N   N4        1.0  0.9639760192622616  0.7524239690490192  0.19521293517980345  1.0000
  N   N5        1.0  0.5477596138601157  0.5283245405355004  0.7421498229043095  1.0000
  N   N6        1.0  0.019688017966928005  0.47173707863854036  0.7580195804603703  1.0000
  N   N7        1.0  0.4522414815686561  0.47167705400382  0.2578509417865931  1.0000
  N   N8        1.0  0.9803077566890013  0.528256809570465  0.24197864576790104  1.0000
  N   N9        1.0  0.8998718642570228  0.957898040880409  0.9161297259363365  1.0000
  N   N10       1.0  0.9420820760415437  0.04209406447920831  0.5839243668914307  1.0000
  N   N11       1.0  0.1001261061737821  0.04210024030636821  0.083872237905986  1.0000
  N   N12       1.0  0.0579245290135761  0.9579009332419378  0.41607239168298793  1.0000
  N   N13       1.0  0.9999965127990581  0.9999982997759322  0.999997961680421  1.0000
  N   N14       1.0  1.2538160732339623e-06  0.999998245214542  0.5000000911704916  1.0000
  N   N15       1.0  0.5984281530983538  0.9999479497282666  0.7500052993626055  1.0000
  N   N16       1.0  0.40157147853815195  5.365223769620038e-05  0.2499938645235531  1.0000
  N   N17       1.0  0.42564324272700566  0.9999814956668519  0.7500101550628385  1.0000
  N   N18       1.0  0.574357303758049  1.900062802210028e-05  0.2499896752245476  1.0000
  N   N19       1.0  0.251405564078631  1.4613884879101319e-05  0.7500171347870505  1.0000
  N   N20       1.0  0.748596450305698  0.999985882425023  0.2499826954003055  1.0000
