data_image0
_chemical_formula_structural       Cd4H36C40I4N12O12
_chemical_formula_sum              "Cd4 H36 C40 I4 N12 O12"
_cell_length_a       11.696566410842694
_cell_length_b       11.696571596628763
_cell_length_c       14.729080854797322
_cell_angle_alpha    78.85937067813039
_cell_angle_beta     78.8594218235474
_cell_angle_gamma    85.5610722177041

_space_group_name_H-M_alt    "P 1"
_space_group_IT_number       1

loop_
  _space_group_symop_operation_xyz
  'x, y, z'

loop_
  _atom_site_type_symbol
  _atom_site_label
  _atom_site_symmetry_multiplicity
  _atom_site_fract_x
  _atom_site_fract_y
  _atom_site_fract_z
  _atom_site_occupancy
  Cd  Cd1       1.0  0.7170464601383129  0.11061411153421122  0.06643040473993272  1.0000
  Cd  Cd2       1.0  0.8893872415040465  0.28295117842763756  0.4335706676493912  1.0000
  Cd  Cd3       1.0  0.28295247293144843  0.8893859308209143  0.9335702536348621  1.0000
  Cd  Cd4       1.0  0.1106143784619107  0.7170471205028619  0.5664305256598823  1.0000
  H   H1        1.0  0.916494660122545  0.8996551757143082  0.07535500001967685  1.0000
  H   H2        1.0  0.1003440198377277  0.08350478416060979  0.4246452224435018  1.0000
  H   H3        1.0  0.08350514516740049  0.10034486808106641  0.924644846084348  1.0000
  H   H4        1.0  0.8996566208093385  0.9164961332015694  0.5753536839086307  1.0000
  H   H5        1.0  0.027015512342451593  0.7785966665461358  0.18394166565897757  1.0000
  H   H6        1.0  0.22140329086123967  0.9729815591396117  0.3160605466300693  1.0000
  H   H7        1.0  0.9729816771595664  0.22140337380157155  0.8160599380612155  1.0000
  H   H8        1.0  0.778595788788145  0.0270149938362252  0.6839413008653638  1.0000
  H   H9        1.0  0.7281391983630386  0.0721306772750125  0.2817016675413555  1.0000
  H   H10       1.0  0.9278702095506404  0.271857219402591  0.21829628657031452  1.0000
  H   H11       1.0  0.2718588668496266  0.9278693680051828  0.7182964071235458  1.0000
  H   H12       1.0  0.07213061628433337  0.7281393381998599  0.781702577991325  1.0000
  H   H13       1.0  0.8342085125934274  0.955682265596032  0.40405338757487647  1.0000
  H   H14       1.0  0.0443208383117266  0.16578662170940817  0.09594548561901207  1.0000
  H   H15       1.0  0.1657886066729404  0.04431952249703391  0.5959452443985284  1.0000
  H   H16       1.0  0.955680932596934  0.8342081922071072  0.9040535008302442  1.0000
  H   H17       1.0  0.057671302819045395  0.35297936184939965  0.8963240094865766  1.0000
  H   H18       1.0  0.6470203498636664  0.942329862140781  0.6036740240049526  1.0000
  H   H19       1.0  0.9423285402065744  0.6470198106924769  0.1036752849024438  1.0000
  H   H20       1.0  0.35298021880251435  0.057672801220633105  0.3963232689926527  1.0000
  H   H21       1.0  0.8208302138110496  0.47439839493180364  0.12310641414445912  1.0000
  H   H22       1.0  0.5256027152068867  0.17916976265558304  0.3768901658376294  1.0000
  H   H23       1.0  0.1791678514016155  0.525601650348392  0.8768916605204352  1.0000
  H   H24       1.0  0.47439872655208853  0.820832903019138  0.6231056356930794  1.0000
  H   H25       1.0  0.1076776876461238  0.707400653024166  0.2828794064508457  1.0000
  H   H26       1.0  0.292603909527493  0.8923207602084561  0.21712262971826848  1.0000
  H   H27       1.0  0.8923228020582383  0.2926037493519829  0.717121706761297  1.0000
  H   H28       1.0  0.7074003227359213  0.1076775386774642  0.7828795227593588  1.0000
  H   H29       1.0  0.2410687445767721  0.6447860658893277  0.3921188417293563  1.0000
  H   H30       1.0  0.3552197852717924  0.7589302292353185  0.10788231325884817  1.0000
  H   H31       1.0  0.7589316354110309  0.3552209537395612  0.6078812098432707  1.0000
  H   H32       1.0  0.6447844478642395  0.2410680705236601  0.8921191600226449  1.0000
  H   H33       1.0  0.11838840434125329  0.5688395484256433  0.42042096012563945  1.0000
  H   H34       1.0  0.43116501973592847  0.8816110400071369  0.07957894319445555  1.0000
  H   H35       1.0  0.8816138306760877  0.4311648577040685  0.579577849348837  1.0000
  H   H36       1.0  0.5688374724502053  0.11838726036360468  0.9204214378440483  1.0000
  C   C1        1.0  0.8590812682121579  0.2993519041680415  0.022697275787962247  1.0000
  C   C2        1.0  0.7006481339664815  0.14091979120936324  0.47730142059560166  1.0000
  C   C3        1.0  0.14091770346589527  0.7006472678066588  0.9773021516756941  1.0000
  C   C4        1.0  0.2993515616069047  0.859082869838744  0.5226973638689074  1.0000
  C   C5        1.0  0.9000407307422335  0.9094773366777104  0.14879266435849559  1.0000
  C   C6        1.0  0.0905238636403283  0.099958243436852  0.35120731386609083  1.0000
  C   C7        1.0  0.09995816633708897  0.0905235786770362  0.8512071873390352  1.0000
  C   C8        1.0  0.9094777580708635  0.9000400572397709  0.6487925210509217  1.0000
  C   C9        1.0  0.9624171678148413  0.8410041863015751  0.21233273096993335  1.0000
  C   C10       1.0  0.158997140626667  0.0375806038807056  0.2876681402528901  1.0000
  C   C11       1.0  0.03758085704430409  0.15899672761293002  0.7876679329983673  1.0000
  C   C12       1.0  0.8410019785036268  0.962415079587764  0.7123317971352776  1.0000
  C   C13       1.0  0.7950031106256432  0.005565502590805201  0.2639672641356228  1.0000
  C   C14       1.0  0.9944378997975816  0.20499433558723718  0.2360308788539101  1.0000
  C   C15       1.0  0.204995714472787  0.9944371587631838  0.736030974207388  1.0000
  C   C16       1.0  0.005564630124226296  0.7950030935300063  0.7639689504695895  1.0000
  C   C17       1.0  0.8538153862374286  0.9410606362810513  0.33180394623612847  1.0000
  C   C18       1.0  0.058944174913492  0.14618379571614065  0.1681947405914173  1.0000
  C   C19       1.0  0.14618510695740378  0.058943769587358516  0.6681944501914854  1.0000
  C   C20       1.0  0.9410591535023798  0.8538153790944634  0.8318040214990604  1.0000
  C   C21       1.0  0.9402617031954604  0.857922217355636  0.3057027864800546  1.0000
  C   C22       1.0  0.1420808459369027  0.0597365197048347  0.19429909383740804  1.0000
  C   C23       1.0  0.0597379897600732  0.1420804410732828  0.6942980355728492  1.0000
  C   C24       1.0  0.8579208117647285  0.9402609079721671  0.8057015477568538  1.0000
  C   C25       1.0  0.033048822326442504  0.41750610533125604  0.9417019613881832  1.0000
  C   C26       1.0  0.5824951537710135  0.9669503921207081  0.558296778586609  1.0000
  C   C27       1.0  0.9669492411409875  0.5824939382028161  0.058297471668979084  1.0000
  C   C28       1.0  0.4175063213605554  0.0330513979352034  0.44170186720975824  1.0000
  C   C29       1.0  0.8992042200537895  0.48642680435406044  0.06915086826933962  1.0000
  C   C30       1.0  0.5135733498629448  0.10079730811418129  0.4308476828545053  1.0000
  C   C31       1.0  0.10079562297183027  0.5135723681878163  0.9308484261196737  1.0000
  C   C32       1.0  0.4864271819401793  0.8992062273737885  0.5691494826619703  1.0000
  C   C33       1.0  0.93164053719871  0.40316667634379383  0.010754932072167466  1.0000
  C   C34       1.0  0.5968344250563007  0.06835999441362621  0.4892429917477443  1.0000
  C   C35       1.0  0.06835839761628651  0.596833367757462  0.9892443679103591  1.0000
  C   C36       1.0  0.4031669780943829  0.9316435416415203  0.5107540406940956  1.0000
  C   C37       1.0  0.005305694050868204  0.7931553582818934  0.37908409773437757  1.0000
  C   C38       1.0  0.20684209879279797  0.9946894456657062  0.12091606145739318  1.0000
  C   C39       1.0  0.9946907004475563  0.2068429398646998  0.6209158564343084  1.0000
  C   C40       1.0  0.7931544817661589  0.005304493594223899  0.8790831717246731  1.0000
  I   I1        1.0  0.4921348362983834  0.0665642339861137  0.1640350974615004  1.0000
  I   I2        1.0  0.9334455187376633  0.5078641655149241  0.335965773810841  1.0000
  I   I3        1.0  0.507863982691738  0.9334384212564402  0.8359678952544342  1.0000
  I   I4        1.0  0.066563907365925  0.49213501151982786  0.664033415149447  1.0000
  N   N1        1.0  0.8183791505574407  0.9905135182135825  0.17379054645499542  1.0000
  N   N2        1.0  0.009486435382036999  0.1816187580820809  0.3262083648145975  1.0000
  N   N3        1.0  0.1816197851301737  0.0094865267607318  0.8262080743313971  1.0000
  N   N4        1.0  0.9905143535898802  0.8183786716469258  0.6737903722659055  1.0000
  N   N5        1.0  0.10241260372047381  0.7295702339093564  0.3472343756074494  1.0000
  N   N6        1.0  0.27043411336946827  0.8975842590336567  0.15276860381625573  1.0000
  N   N7        1.0  0.8975861792792017  0.2704332943328183  0.6527678104312284  1.0000
  N   N8        1.0  0.7295676154404304  0.10241142177104477  0.8472343303286607  1.0000
  N   N9        1.0  0.1528041632343999  0.6494249160290337  0.41388130063157286  1.0000
  N   N10       1.0  0.35057914480746166  0.8471951755574877  0.0861207154232986  1.0000
  N   N11       1.0  0.84719632734258  0.35057948722018045  0.586119133384436  1.0000
  N   N12       1.0  0.6494233447608194  0.1528031221940722  0.9138817032036  1.0000
  O   O1        1.0  0.7757296242625243  0.2823984403287483  0.0939825896514321  1.0000
  O   O2        1.0  0.7176060216628243  0.22426611037329985  0.4060128242852555  1.0000
  O   O3        1.0  0.2242630337851637  0.7176059674195158  0.9060115708788457  1.0000
  O   O4        1.0  0.28239999975755836  0.7757313271241133  0.5939817183667698  1.0000
  O   O5        1.0  0.8824742119624601  0.2302472043261403  0.9637088075306437  1.0000
  O   O6        1.0  0.7697470569315354  0.11753252149663498  0.5362943215401401  1.0000
  O   O7        1.0  0.11753194556614227  0.7697467333152374  0.03629507459562122  1.0000
  O   O8        1.0  0.23024714727935702  0.882476235795906  0.46370844418107987  1.0000
  O   O9        1.0  0.9736769839615889  0.8010300950776639  0.46329909041282474  1.0000
  O   O10       1.0  0.19896830196916682  0.026315180322193  0.03670581904644619  1.0000
  O   O11       1.0  0.026318534826188494  0.1989681981364413  0.5367043928111599  1.0000
  O   O12       1.0  0.8010283848158866  0.9736761381927577  0.9632971925596577  1.0000
