data_image0
_chemical_formula_structural       Zn8H48C73O28
_chemical_formula_sum              "Zn8 H48 C73 O28"
_cell_length_a       18.253042234368895
_cell_length_b       18.301617242858836
_cell_length_c       18.384023571088232
_cell_angle_alpha    119.78934372337294
_cell_angle_beta     120.23166537733286
_cell_angle_gamma    89.7228765188664

_space_group_name_H-M_alt    "P 1"
_space_group_IT_number       1

loop_
  _space_group_symop_operation_xyz
  'x, y, z'

loop_
  _atom_site_type_symbol
  _atom_site_label
  _atom_site_symmetry_multiplicity
  _atom_site_fract_x
  _atom_site_fract_y
  _atom_site_fract_z
  _atom_site_occupancy
  Zn  Zn1       1.0  0.45465775176837303  0.044910799043897505  0.5822221194988304  1.0000
  Zn  Zn2       1.0  0.4556426326513758  0.8688024896508041  0.41004629138600296  1.0000
  Zn  Zn3       1.0  0.6345166876182091  0.0398177704978337  0.5933956579085375  1.0000
  Zn  Zn4       1.0  0.4661687128027694  0.045405539160960004  0.4160881612319045  1.0000
  Zn  Zn5       1.0  0.04356745377496905  0.4544120092961633  0.40769726904280656  1.0000
  Zn  Zn6       1.0  0.8751436128235569  0.4484689559122473  0.4161741347072052  1.0000
  Zn  Zn7       1.0  0.044455728760077244  0.627153590474684  0.5844475548534049  1.0000
  Zn  Zn8       1.0  0.05759201449276929  0.4561524415075269  0.5918546864581914  1.0000
  H   H1        1.0  0.2483723230770991  0.1524697147994232  0.3278363259627284  1.0000
  H   H2        1.0  0.7949776836169208  0.270658845140666  0.6616497138708584  1.0000
  H   H3        1.0  0.3436480261180819  0.24821200441638783  0.42817566841734594  1.0000
  H   H4        1.0  0.6013510481838724  0.019164103304483104  0.31077375072068514  1.0000
  H   H5        1.0  0.5880607576511353  0.9693472529798227  0.15210439685667876  1.0000
  H   H6        1.0  0.6832443796538642  0.06711678426462699  0.15194485305167407  1.0000
  H   H7        1.0  0.7917189791344798  0.21302691564316237  0.3108990652952884  1.0000
  H   H8        1.0  0.8933399550548415  0.36667884884393237  0.6629098401024369  1.0000
  H   H9        1.0  0.28029512491607983  0.6961932073911326  0.09806030751096992  1.0000
  H   H10       1.0  0.43410412452911373  0.9722078677005969  0.1893810884879559  1.0000
  H   H11       1.0  0.4393212471535222  0.0256041990410267  0.09278985379928885  1.0000
  H   H12       1.0  0.2653776135348735  0.3496199945170418  0.6421123050348002  1.0000
  H   H13       1.0  0.3402486796352803  0.929270832568129  0.9003712529360686  1.0000
  H   H14       1.0  0.2380111931344615  0.7808164795278217  0.8078298666261646  1.0000
  H   H15       1.0  0.25095687397200095  0.3366342237578408  0.4244828165912011  1.0000
  H   H16       1.0  0.1839907591975631  0.5992942245747273  0.9062803606504916  1.0000
  H   H17       1.0  0.7884661472196371  0.8798826839070133  0.5349994111281833  1.0000
  H   H18       1.0  0.5565656887981021  0.7425879303618432  0.5225998169165255  1.0000
  H   H19       1.0  0.6076029856010621  0.5048542567216217  0.49975173471694484  1.0000
  H   H20       1.0  0.7358950747620768  0.5370816263277689  0.49538261563275665  1.0000
  H   H21       1.0  0.8837857563845478  0.7815212325936118  0.5298041138801682  1.0000
  H   H22       1.0  0.22220681280015955  0.7314376015409609  0.3547936543977103  1.0000
  H   H23       1.0  0.2168952854241226  0.12089788753558389  0.4982734567086241  1.0000
  H   H24       1.0  0.4813938322134844  0.9201195296690726  0.7048489571094337  1.0000
  H   H25       1.0  0.5381361347577212  0.9238173148697726  0.8603325470681117  1.0000
  H   H26       1.0  0.1555656112320634  0.24090869391025652  0.3267110947010607  1.0000
  H   H27       1.0  0.4447581774836705  0.8222046618056852  0.858318478314118  1.0000
  H   H28       1.0  0.29510647783208555  0.7187651987380691  0.7012441151854251  1.0000
  H   H29       1.0  0.12734928357598113  0.6336073782752011  0.3548950337824906  1.0000
  H   H30       1.0  0.17144643607404927  0.07787846706304442  0.3689790305897348  1.0000
  H   H31       1.0  0.081647263160562  0.16832944016689314  0.3703321551402611  1.0000
  H   H32       1.0  0.3542520311339458  0.2571832159641048  0.6415162087353679  1.0000
  H   H33       1.0  0.40796932702310335  0.30978600667913986  0.6140092616742123  1.0000
  H   H34       1.0  0.1274203321720364  0.2129979729254927  0.5002768532219548  1.0000
  H   H35       1.0  0.3182886598249937  0.4003472563576622  0.6126286263007543  1.0000
  H   H36       1.0  0.8460347530394474  0.2171462914175919  0.19765385405161612  1.0000
  H   H37       1.0  0.9316411305655025  0.1699593282648451  0.19795400889260856  1.0000
  H   H38       1.0  0.8127263793400062  0.029319524040786898  0.024596896754630407  1.0000
  H   H39       1.0  0.7946388118255002  0.0530604934996504  0.1196450152040925  1.0000
  H   H40       1.0  0.7279651302859307  0.07689434100942089  0.027851895263232583  1.0000
  H   H41       1.0  0.42237938632649025  0.6647319073994993  0.4656957570274758  1.0000
  H   H42       1.0  0.4973957052367481  0.7223492987106185  0.6026820776364376  1.0000
  H   H43       1.0  0.4045373215036605  0.6245913338891995  0.5287294798080213  1.0000
  H   H44       1.0  0.7648284752299759  0.1211724100570351  0.89860592080764  1.0000
  H   H45       1.0  0.5690163965502179  0.28769171083450834  0.8158823029449352  1.0000
  H   H46       1.0  0.5563944748607383  0.4318664101861458  0.9191593674090517  1.0000
  H   H47       1.0  0.6542684074676757  0.5196122641482219  0.11084518954982048  1.0000
  H   H48       1.0  0.764198716700193  0.46291845770524986  0.19745495259176232  1.0000
  C   C1        1.0  0.3786184867374375  0.8638481260824165  0.22338948853917642  1.0000
  C   C2        1.0  0.7220710781225177  0.42438371700416877  0.11397221558481617  1.0000
  C   C3        1.0  0.7315292651955901  0.3416852115362161  0.0569126227517814  1.0000
  C   C4        1.0  0.6326408863815018  0.14895418297632548  0.7757496654063872  1.0000
  C   C5        1.0  0.6749755513196761  0.2908405114507246  0.9464698589048057  1.0000
  C   C6        1.0  0.6882527462174437  0.2097137928601001  0.8903593894564639  1.0000
  C   C7        1.0  0.7543896479742285  0.18235559168151377  0.9416570727158912  1.0000
  C   C8        1.0  0.808762506795695  0.23128259413496724  0.049475226406947626  1.0000
  C   C9        1.0  0.7979503393488158  0.31023753931170006  0.1069677356306897  1.0000
  C   C10       1.0  0.6431254735511018  0.061918668083329506  0.3113593121921737  1.0000
  C   C11       1.0  0.6357914139645544  0.0340954999787613  0.22252882968980714  1.0000
  C   C12       1.0  0.34212683634122243  0.2752211205826073  0.5885546616870273  1.0000
  C   C13       1.0  0.68966172237905  0.0892684778551853  0.22261738886956545  1.0000
  C   C14       1.0  0.7506299334767732  0.17086440342595924  0.31158555487733963  1.0000
  C   C15       1.0  0.7608792695670631  0.20135082904756277  0.4050105808131549  1.0000
  C   C16       1.0  0.37142082839380197  0.8645721626924044  0.5088703325728476  1.0000
  C   C17       1.0  0.7050960426319862  0.14561948915734754  0.40459644637607545  1.0000
  C   C18       1.0  0.7168466671386895  0.17476344892180856  0.498950721776879  1.0000
  C   C19       1.0  0.785627708490999  0.25134131459729053  0.5903427088303064  1.0000
  C   C20       1.0  0.8407790678838863  0.30531653273433085  0.5910145713284863  1.0000
  C   C21       1.0  0.8269542770828622  0.2832662228384493  0.500285662974804  1.0000
  C   C22       1.0  0.3910555876485233  0.9296258969111618  0.10604307706262982  1.0000
  C   C23       1.0  0.2956017645092501  0.1887719344403678  0.47913427665465497  1.0000
  C   C24       1.0  0.39357440995386384  0.959712383533045  0.051591532289386066  1.0000
  C   C25       1.0  0.337849358283421  0.9055331741322731  0.9433363129153634  1.0000
  C   C26       1.0  0.2807788132298299  0.8218835038581318  0.891213908692606  1.0000
  C   C27       1.0  0.27636801454473675  0.7882165394431058  0.9444319033203004  1.0000
  C   C28       1.0  0.6542874632758001  0.1264212922518482  0.5025790032522722  1.0000
  C   C29       1.0  0.3329380215040842  0.8438972183487436  0.05532275470478977  1.0000
  C   C30       1.0  0.3305183819353275  0.8090929797295557  0.1092357698140417  1.0000
  C   C31       1.0  0.27928261607073773  0.7216642798487171  0.05527864752698965  1.0000
  C   C32       1.0  0.22511127828611424  0.6673458219705994  0.9476575912044964  1.0000
  C   C33       1.0  0.22079653661465662  0.699928199737968  0.8922920260709545  1.0000
  C   C34       1.0  0.1949302504545756  0.29056461993320676  0.4795860716233449  1.0000
  C   C35       1.0  0.5958873823923054  0.6979644251520726  0.5171602991007377  1.0000
  C   C36       1.0  0.5751957078087881  0.6227278230617586  0.5129627964572024  1.0000
  C   C37       1.0  0.6261100512178644  0.5641382443284328  0.5040403193496347  1.0000
  C   C38       1.0  0.6974614565562903  0.5825577512712528  0.501857861316765  1.0000
  C   C39       1.0  0.72231179240174  0.659850922816311  0.5074644777059663  1.0000
  C   C40       1.0  0.6372370749751255  0.8559620927459973  0.5150266225371212  1.0000
  C   C41       1.0  0.6686434113909457  0.7179826348432244  0.5135876522855016  1.0000
  C   C42       1.0  0.6930947825609692  0.7963197432304697  0.5199439882114378  1.0000
  C   C43       1.0  0.7704658847844145  0.8188069587554594  0.5277411519514318  1.0000
  C   C44       1.0  0.8236020729950368  0.763560737445026  0.5243316202257945  1.0000
  C   C45       1.0  0.1450065611793647  0.20047411476554092  0.4470423987364783  1.0000
  C   C46       1.0  0.7994832257264478  0.6840775290603746  0.5116859012204742  1.0000
  C   C47       1.0  0.44059897733185244  0.8755988271647369  0.7033862515738891  1.0000
  C   C48       1.0  0.47199364195815724  0.8777572936738098  0.7903856154736534  1.0000
  C   C49       1.0  0.4193982703421497  0.8205086177266381  0.789443587083163  1.0000
  C   C50       1.0  0.3356292013927202  0.7625128626042043  0.701550032757176  1.0000
  C   C51       1.0  0.3011198351799678  0.757950120821917  0.6102386150677576  1.0000
  C   C52       1.0  0.35660663264072656  0.131861498159509  0.4841664152937639  1.0000
  C   C53       1.0  0.35524431276061824  0.8154478398182974  0.6106570533297601  1.0000
  C   C54       1.0  0.32302948430325523  0.8057141211487037  0.5163326137084994  1.0000
  C   C55       1.0  0.2436615529312364  0.7393963511993963  0.4260857790218043  1.0000
  C   C56       1.0  0.2826165551146147  0.3357516830283344  0.5883302332302164  1.0000
  C   C57       1.0  0.19048199229357718  0.6843058677577574  0.4261112865159618  1.0000
  C   C58       1.0  0.21676702273430237  0.6947636226419434  0.5166190318597687  1.0000
  C   C59       1.0  0.8805551725232449  0.34927325435175754  0.5053271761266914  1.0000
  C   C60       1.0  0.15293015401078952  0.6378554646386619  0.5111624435212009  1.0000
  C   C61       1.0  0.858382273944244  0.3643975571174635  0.22177595753964852  1.0000
  C   C62       1.0  0.1550219961435104  0.6396158634715547  0.7779908035357297  1.0000
  C   C63       1.0  0.8582664136763898  0.6277433811085801  0.5033331359343409  1.0000
  C   C64       1.0  0.27903034545822447  0.21372176368301876  0.4049808112885388  1.0000
  C   C65       1.0  0.13671797437852007  0.35031503006360504  0.4832850491767857  1.0000
  C   C66       1.0  0.21796986918725028  0.2728257802838811  0.4038764026670306  1.0000
  C   C67       1.0  0.61211775763406  0.3257764497433655  0.8992086667394759  1.0000
  C   C68       1.0  0.20470300656774046  0.13992680170531463  0.44618623802661267  1.0000
  C   C69       1.0  0.8642328082776345  0.1692540619079281  0.14816838704246052  1.0000
  C   C70       1.0  0.7957058842836844  0.0766215691213361  0.07547357260597926  1.0000
  C   C71       1.0  0.4554197723322914  0.6565524170177  0.5291665698722241  1.0000
  C   C72       1.0  0.6049688983170044  0.40631738845280546  0.9571679075864169  1.0000
  C   C73       1.0  0.6602702058795984  0.4559954374827271  0.06537632616770143  1.0000
  O   O1        1.0  0.5033182023448646  0.9991098070105481  0.5002713893669297  1.0000
  O   O2        1.0  0.11337703907388164  0.6750652256525453  0.731316948784894  1.0000
  O   O3        1.0  0.8222614430522411  0.5431876406517232  0.44807377025529144  1.0000
  O   O4        1.0  0.3895258402571145  0.9470158334436862  0.2692128934561426  1.0000
  O   O5        1.0  0.11979710091042506  0.37400028525092205  0.5497719646147986  1.0000
  O   O6        1.0  0.9409207800117727  0.6691469693109086  0.5509080692625548  1.0000
  O   O7        1.0  0.10945518358344232  0.372160109154649  0.42026168168010275  1.0000
  O   O8        1.0  0.9417204388640171  0.3934778137379951  0.2631357895103009  1.0000
  O   O9        1.0  0.14394313497665215  0.5563686111618721  0.7363684264587748  1.0000
  O   O10       1.0  0.8377165721835169  0.36315068764818653  0.43563651728567987  1.0000
  O   O11       1.0  0.13400213826010093  0.676901126095409  0.5764185692807545  1.0000
  O   O12       1.0  0.40759950701725955  0.947565945265673  0.5815180148148189  1.0000
  O   O13       1.0  0.5494958652264259  0.14114450052166921  0.7259801726126726  1.0000
  O   O14       1.0  0.3703216102827938  0.826814736624378  0.4281049377282643  1.0000
  O   O15       1.0  0.6894187827052392  0.11764653150871851  0.5766207410478613  1.0000
  O   O16       1.0  0.5520128945684064  0.8201899939959033  0.4583849508120682  1.0000
  O   O17       1.0  0.3986750912419695  0.1258278286163446  0.4441702787108924  1.0000
  O   O18       1.0  0.6795876968807237  0.9385213635838882  0.5657186460292324  1.0000
  O   O19       1.0  0.3628644872350081  0.09598166587247901  0.5306750326452916  1.0000
  O   O20       1.0  0.8736784873581626  0.19927623037746403  0.09303836584279415  1.0000
  O   O21       1.0  0.5074445486696818  0.598503730407735  0.5169181958749364  1.0000
  O   O22       1.0  0.570594717484866  0.10040155362396058  0.4328038370192928  1.0000
  O   O23       1.0  0.4025768791480005  0.8220232568275351  0.26609757278957613  1.0000
  O   O24       1.0  0.6729655460408566  0.1070221112832144  0.7363934599608799  1.0000
  O   O25       1.0  0.006203736702758485  0.4967501070854254  0.5008816686921449  1.0000
  O   O26       1.0  0.9635658182019284  0.38805733147111005  0.5797757724949479  1.0000
  O   O27       1.0  0.12082520552908699  0.5552175020276167  0.43905077046908053  1.0000
  O   O28       1.0  0.8209956445596377  0.3769463528504104  0.26803018698608844  1.0000
