data_image0
_chemical_formula_structural       Fe4H36C24O18
_chemical_formula_sum              "Fe4 H36 C24 O18"
_cell_length_a       7.4487088345126065
_cell_length_b       8.944238118737456
_cell_length_c       11.390675680424568
_cell_angle_alpha    107.72953141684746
_cell_angle_beta     109.29826189798837
_cell_angle_gamma    89.74817698113846

_space_group_name_H-M_alt    "P 1"
_space_group_IT_number       1

loop_
  _space_group_symop_operation_xyz
  'x, y, z'

loop_
  _atom_site_type_symbol
  _atom_site_label
  _atom_site_symmetry_multiplicity
  _atom_site_fract_x
  _atom_site_fract_y
  _atom_site_fract_z
  _atom_site_occupancy
  Fe  Fe1       1.0  0.8187255719956  0.9605479301469378  0.045279426100961535  1.0000
  Fe  Fe2       1.0  0.774175316749151  0.5388338426744002  0.9536182669384202  1.0000
  Fe  Fe3       1.0  0.17879814757883142  0.04042370650132911  0.9556493465216319  1.0000
  Fe  Fe4       1.0  0.22814458789301287  0.4587386788430764  0.04660943283612083  1.0000
  H   H1        1.0  0.34463117349029193  0.7188030746989614  0.3069722642577091  1.0000
  H   H2        1.0  0.03743392419438149  0.7813007533824746  0.6930386813905117  1.0000
  H   H3        1.0  0.6560548012429946  0.2810517158007784  0.6936204573430444  1.0000
  H   H4        1.0  0.9614908568903643  0.21897898843602093  0.3071276595831875  1.0000
  H   H5        1.0  0.1462872835825522  0.6441672088886465  0.32753989811620704  1.0000
  H   H6        1.0  0.8174589184382269  0.8556253692941597  0.6727276100771604  1.0000
  H   H7        1.0  0.853565006687596  0.3561202912746568  0.6723945766306018  1.0000
  H   H8        1.0  0.18109957765692286  0.14386527447232572  0.328103270657806  1.0000
  H   H9        1.0  0.09421697952633676  0.93270865796773  0.44046401969065846  1.0000
  H   H10       1.0  0.653808921947764  0.5677153112496928  0.559242986863545  1.0000
  H   H11       1.0  0.9059726294773329  0.06732403579943742  0.5595206884324284  1.0000
  H   H12       1.0  0.345423420097667  0.4318922207029915  0.44071023983528335  1.0000
  H   H13       1.0  0.3160910050926731  0.9924802505733298  0.43705636640828527  1.0000
  H   H14       1.0  0.8794782024257729  0.5072471354091804  0.5627629493318622  1.0000
  H   H15       1.0  0.6840754906599428  0.0077097487583230985  0.5629094663033953  1.0000
  H   H16       1.0  0.11995154360647577  0.49265749820041554  0.43731606445150817  1.0000
  H   H17       1.0  0.4712347298646193  0.8075544146140817  0.5647725276726377  1.0000
  H   H18       1.0  0.9051592474935647  0.6914138946478162  0.4348411924625212  1.0000
  H   H19       1.0  0.5288668827514016  0.19215780473856373  0.434970127016051  1.0000
  H   H20       1.0  0.0946476686555044  0.3087298016442262  0.5656457684799463  1.0000
  H   H21       1.0  0.24757971272720172  0.7615930993849178  0.573347947498533  1.0000
  H   H22       1.0  0.6730250523644301  0.7390183690476281  0.4266198121144029  1.0000
  H   H23       1.0  0.7526559177309906  0.23899025962208512  0.4269752652187151  1.0000
  H   H24       1.0  0.32683896428940074  0.2613288456633924  0.5737846027154205  1.0000
  H   H25       1.0  0.47143592905881343  0.09206242686190792  0.6898150745870382  1.0000
  H   H26       1.0  0.7792659734216015  0.4071541157559367  0.31029547005493907  1.0000
  H   H27       1.0  0.5304032124103131  0.9078346745530299  0.3100595432726437  1.0000
  H   H28       1.0  0.22025989303801202  0.593140497613014  0.6897640591650357  1.0000
  H   H29       1.0  0.239055254860979  0.04921711131164132  0.6915284139243809  1.0000
  H   H30       1.0  0.5450186398648215  0.4519959296934746  0.3078438483752706  1.0000
  H   H31       1.0  0.7624223885493678  0.9518407611942907  0.3081492171784462  1.0000
  H   H32       1.0  0.4545986418001746  0.5483862420780881  0.6921538689517702  1.0000
  H   H33       1.0  0.488729393778769  0.7863970700582217  0.9397381395057138  1.0000
  H   H34       1.0  0.5481265115474798  0.7131096430741409  0.05909760565413076  1.0000
  H   H35       1.0  0.5092136078553225  0.21259447511045693  0.058213295523124486  1.0000
  H   H36       1.0  0.4513310779791695  0.2871811380813156  0.9391412235566463  1.0000
  C   C1        1.0  0.07679747598063358  0.7635547653630611  0.1899980741747598  1.0000
  C   C2        1.0  0.8887341804941187  0.7356910158102254  0.81007207529386  1.0000
  C   C3        1.0  0.9246213920122629  0.2360048703392367  0.809567225797615  1.0000
  C   C4        1.0  0.11178449353818821  0.26400143703849477  0.19101943783532246  1.0000
  C   C5        1.0  0.20738817172220786  0.7505993247512212  0.31895821194974167  1.0000
  C   C6        1.0  0.888474579875485  0.7491739659755795  0.6810851444993844  1.0000
  C   C7        1.0  0.7930990791197202  0.2495000538233896  0.6810938526295088  1.0000
  C   C8        1.0  0.11077170341660289  0.25054341231527383  0.3195252935677004  1.0000
  C   C9        1.0  0.23412709947598392  0.8926263529437367  0.4403696350267978  1.0000
  C   C10       1.0  0.7936649719574618  0.6073948186791542  0.5594500744298899  1.0000
  C   C11       1.0  0.7661023435334045  0.10751277547369402  0.559583515924146  1.0000
  C   C12       1.0  0.2056762876304248  0.39249860921093227  0.44081865534815995  1.0000
  C   C13       1.0  0.3354874136778747  0.8555285365301515  0.5671020918640507  1.0000
  C   C14       1.0  0.7671960333031225  0.6443809345849446  0.4327056692780716  1.0000
  C   C15       1.0  0.6649552723417999  0.1446738578253388  0.43291775282367684  1.0000
  C   C16       1.0  0.2324888992421066  0.35583911840892324  0.5676372116634738  1.0000
  C   C17       1.0  0.4615494686909756  0.9574282167457756  0.8138549702351058  1.0000
  C   C18       1.0  0.6465335933627828  0.541744727138479  0.18575743793577  1.0000
  C   C19       1.0  0.5383302461513823  0.04336632589811982  0.18639556374753846  1.0000
  C   C20       1.0  0.35308154410898857  0.4581287891181135  0.8140311432279502  1.0000
  C   C21       1.0  0.3743888819631139  0.0005053038515896001  0.6900437373648813  1.0000
  C   C22       1.0  0.6821900574665916  0.4995334099658707  0.3097039413048464  1.0000
  C   C23       1.0  0.6268403616938727  0.9999185410480255  0.30986708028690674  1.0000
  C   C24       1.0  0.31747009470185356  0.5008507807774265  0.6903702669261236  1.0000
  O   O1        1.0  0.6415604533403467  0.9850759012838143  0.871938112129108  1.0000
  O   O2        1.0  0.7696779822510463  0.5148501426168935  0.12934188128997454  1.0000
  O   O3        1.0  0.35828903981237653  0.016504918525861  0.12953577727211038  1.0000
  O   O4        1.0  0.23014187837424055  0.48532176233273105  0.8705410213078152  1.0000
  O   O5        1.0  0.5991912259550745  0.7494030255653642  0.9996562792234157  1.0000
  O   O6        1.0  0.39949366589293334  0.2502513990692989  0.9981959201726127  1.0000
  O   O7        1.0  0.3491232101064057  0.8899268540591694  0.8519386550340898  1.0000
  O   O8        1.0  0.4942476881419254  0.6086490614280609  0.14566590700619744  1.0000
  O   O9        1.0  0.6498354205664825  0.11107056914759994  0.14751081881753692  1.0000
  O   O10       1.0  0.5048410911795854  0.3903766342412356  0.8534654197388747  1.0000
  O   O11       1.0  0.06228054040428791  0.6502170891029027  0.08471066962566454  1.0000
  O   O12       1.0  0.9796815902497827  0.8491693732948066  0.915203475535634  1.0000
  O   O13       1.0  0.9403001784581876  0.34921389954044463  0.915300809993056  1.0000
  O   O14       1.0  0.022720536897253396  0.1498668609062577  0.08551520139160829  1.0000
  O   O15       1.0  0.9800470593957088  0.8810324252348994  0.1910790233108415  1.0000
  O   O16       1.0  0.7916443290293954  0.6185651633692048  0.8091336247950593  1.0000
  O   O17       1.0  0.020725817132131397  0.11812726944623358  0.8079005666585246  1.0000
  O   O18       1.0  0.2076959567567869  0.3814881265204378  0.1920179904438299  1.0000
