data_image0
_chemical_formula_structural       Al4H52C80O28
_chemical_formula_sum              "Al4 H52 C80 O28"
_cell_length_a       6.747474056289533
_cell_length_b       25.667699456841202
_cell_length_c       28.817348182689766
_cell_angle_alpha    89.95095772018865
_cell_angle_beta     90.11991903498183
_cell_angle_gamma    90.12638641081656

_space_group_name_H-M_alt    "P 1"
_space_group_IT_number       1

loop_
  _space_group_symop_operation_xyz
  'x, y, z'

loop_
  _atom_site_type_symbol
  _atom_site_label
  _atom_site_symmetry_multiplicity
  _atom_site_fract_x
  _atom_site_fract_y
  _atom_site_fract_z
  _atom_site_occupancy
  Al  Al1       1.0  0.24147103550305365  0.7516071307909731  0.2494622600529084  1.0000
  Al  Al2       1.0  0.7602805781979286  0.2489102089215579  0.7503138532153173  1.0000
  Al  Al3       1.0  0.7420743029488509  0.7484823327005546  0.24980609089822542  1.0000
  Al  Al4       1.0  0.2600193792462023  0.2519640040353083  0.7504962418783734  1.0000
  H   H1        1.0  0.6835892916503568  0.41766010962832234  0.5790275166101111  1.0000
  H   H2        1.0  0.3200774615881486  0.5824658242582289  0.42127375627669755  1.0000
  H   H3        1.0  0.3176838943266347  0.581367851183309  0.080231848045301  1.0000
  H   H4        1.0  0.6816758327391882  0.41904679067821615  0.919695126443905  1.0000
  H   H5        1.0  0.18382824511537174  0.08183146850672783  0.9204866635720991  1.0000
  H   H6        1.0  0.820791824381921  0.9219613320506643  0.08243650112923011  1.0000
  H   H7        1.0  0.7836004735751135  0.8933555959686577  0.442316330534382  1.0000
  H   H8        1.0  0.1776952020102343  0.08722946338916421  0.5772813240541269  1.0000
  H   H9        1.0  0.3244786076983389  0.420510970723676  0.5803875611328877  1.0000
  H   H10       1.0  0.6791838881089023  0.5789627059437024  0.420080892410553  1.0000
  H   H11       1.0  0.6765982603487046  0.581357197753782  0.07855686553251223  1.0000
  H   H12       1.0  0.32271208000342005  0.42000258643116695  0.9213592920976197  1.0000
  H   H13       1.0  0.8250201101566149  0.08106865137589382  0.9210231168172598  1.0000
  H   H14       1.0  0.17977477253777613  0.9189456743236663  0.0789416416858799  1.0000
  H   H15       1.0  0.2001174599213797  0.942536884739589  0.399050720843114  1.0000
  H   H16       1.0  0.8183802200856649  0.07632952978406143  0.5841068835105858  1.0000
  H   H17       1.0  0.323940262863367  0.3560708013334876  0.6435155151256282  1.0000
  H   H18       1.0  0.6785002186812434  0.643264159730258  0.3567842721756094  1.0000
  H   H19       1.0  0.6771040994423815  0.6445896426027604  0.1425212787545149  1.0000
  H   H20       1.0  0.323769937196225  0.3568412848067555  0.8573780388301984  1.0000
  H   H21       1.0  0.8247036849119952  0.14423370141859954  0.8570722775275215  1.0000
  H   H22       1.0  0.18045708273699296  0.8553051401369985  0.1427421994504883  1.0000
  H   H23       1.0  0.20692451874560902  0.8755985705559157  0.33733171836689024  1.0000
  H   H24       1.0  0.8197607786598341  0.14018600340958903  0.6464386441501517  1.0000
  H   H25       1.0  0.27617328592035767  0.4359705745279713  0.5059211400834798  1.0000
  H   H26       1.0  0.727789104476358  0.5637888335610699  0.4944574228458194  1.0000
  H   H27       1.0  0.7214011075706211  0.5014154504684286  0.056068494484904405  1.0000
  H   H28       1.0  0.27708285190242077  0.4998011095110187  0.9436565795057561  1.0000
  H   H29       1.0  0.7827287597107216  0.002493847496509701  0.9452148740861261  1.0000
  H   H30       1.0  0.22178471089141993  0.9989854054960859  0.05614868826526731  1.0000
  H   H31       1.0  0.17326073812007795  0.9669920529117064  0.4696430231297199  1.0000
  H   H32       1.0  0.8141544830811259  0.032104570529533305  0.5302043741534206  1.0000
  H   H33       1.0  0.27443190389866606  0.49999114665887145  0.44252155442304547  1.0000
  H   H34       1.0  0.729299168556608  0.49975805587205024  0.5578218844971373  1.0000
  H   H35       1.0  0.7227597859621897  0.43719319446497457  0.9931027801100427  1.0000
  H   H36       1.0  0.27550632471483993  0.5640513406905472  0.0065982632165884  1.0000
  H   H37       1.0  0.7813925893828968  0.9387009044373971  0.008559427380070901  1.0000
  H   H38       1.0  0.22310069808163047  0.06286984148502481  0.9929262389828964  1.0000
  H   H39       1.0  0.17503201754987432  0.031014780683129618  0.5317143480385624  1.0000
  H   H40       1.0  0.8116567149619487  0.9691734858605302  0.4674848218357468  1.0000
  H   H41       1.0  0.6771547582966237  0.32608570093864137  0.6698257373028229  1.0000
  H   H42       1.0  0.3231751593785504  0.6736947320416464  0.3299720505159414  1.0000
  H   H43       1.0  0.32394010773153076  0.6750021505660017  0.1691921923636386  1.0000
  H   H44       1.0  0.677846073365835  0.32572832563999315  0.8305512257772636  1.0000
  H   H45       1.0  0.17888836425714771  0.17553318712671034  0.831566880023999  1.0000
  H   H46       1.0  0.8287851615482681  0.8285610101025969  0.17178681727835965  1.0000
  H   H47       1.0  0.9258684489323983  0.8333506039443109  0.40040503960234725  1.0000
  H   H48       1.0  0.17482131284653246  0.17677273554498646  0.6683993180349361  1.0000
  H   H49       1.0  0.4894217033855242  0.6801557399114702  0.2505274362715824  1.0000
  H   H50       1.0  0.511980453401698  0.32002220601884107  0.7508296886956887  1.0000
  H   H51       1.0  0.9860705137487288  0.8126941550865183  0.2701624269053795  1.0000
  H   H52       1.0  0.011059092279246802  0.18084517110759182  0.7536796427740171  1.0000
  C   C1        1.0  0.49569258405034594  0.8118663831275302  0.3128485445247193  1.0000
  C   C2        1.0  0.5095112841167976  0.18687913515244506  0.6872497840467986  1.0000
  C   C3        1.0  0.5117765057806026  0.18733915834472736  0.8139994083921708  1.0000
  C   C4        1.0  0.4927288139903325  0.8131279517045943  0.1864182629271482  1.0000
  C   C5        1.0  0.9897376045176857  0.6873903364853576  0.18599415400134942  1.0000
  C   C6        1.0  0.011772605714988104  0.3138660216046816  0.8136628928859935  1.0000
  C   C7        1.0  0.011078794165619903  0.3132618000456732  0.6866667970863461  1.0000
  C   C8        1.0  0.9901896185110673  0.6860877183612435  0.3131415557127042  1.0000
  C   C9        1.0  0.8241995456681082  0.3689494192333812  0.6293568476487934  1.0000
  C   C10       1.0  0.17829134567814015  0.6309917896961609  0.3709014126975632  1.0000
  C   C11       1.0  0.17679263081197405  0.6320365797035027  0.1287056650616876  1.0000
  C   C12       1.0  0.8237711975429322  0.36866958128638333  0.8711872507691253  1.0000
  C   C13       1.0  0.3250648360859501  0.132286611556694  0.8717724631753326  1.0000
  C   C14       1.0  0.6802228043153067  0.8702904797279702  0.1303765522491389  1.0000
  C   C15       1.0  0.6652706890011899  0.8550290724973594  0.3823343076827896  1.0000
  C   C16       1.0  0.32109255688233435  0.13341589390260822  0.628352604795495  1.0000
  C   C17       1.0  0.8257689911268857  0.40536311024867916  0.5932030351415278  1.0000
  C   C18       1.0  0.17758789552573978  0.594653585944137  0.4071627202292021  1.0000
  C   C19       1.0  0.17532581061003336  0.5953060111473151  0.09284814052600152  1.0000
  C   C20       1.0  0.8243709582990704  0.40536512813175574  0.907054900744676  1.0000
  C   C21       1.0  0.326359856837442  0.09551031252756567  0.9076102440123535  1.0000
  C   C22       1.0  0.6785472443725882  0.9071842802996459  0.0945510840818002  1.0000
  C   C23       1.0  0.657235708158325  0.8911440159497561  0.41864304536473906  1.0000
  C   C24       1.0  0.3213260213637597  0.0973539969950536  0.5919672376330638  1.0000
  C   C25       1.0  0.0037206988064682  0.42425078947750455  0.5748844140147966  1.0000
  C   C26       1.0  0.9999737751574997  0.5755977137360874  0.4255304560922752  1.0000
  C   C27       1.0  0.9974872916070087  0.5762331385542228  0.0744861846788467  1.0000
  C   C28       1.0  0.0017686501311616003  0.4247771768994256  0.9253860274650948  1.0000
  C   C29       1.0  0.5040528484521403  0.07619344153253854  0.925742641138456  1.0000
  C   C30       1.0  0.5006997061899057  0.9254230249741444  0.07566293584084602  1.0000
  C   C31       1.0  0.4922302356454723  0.9231984057590812  0.4257893520018499  1.0000
  C   C32       1.0  0.4973156487924302  0.07578016147005683  0.5751075037704254  1.0000
  C   C33       1.0  0.1840520897714485  0.4056570360989228  0.5935514776723564  1.0000
  C   C34       1.0  0.8193484668378517  0.5939786164973526  0.40689842698600387  1.0000
  C   C35       1.0  0.817090621127129  0.5946440821663189  0.09305404637597552  1.0000
  C   C36       1.0  0.18252741594717045  0.40652999942406615  0.9068341859342297  1.0000
  C   C37       1.0  0.6843934376348815  0.09447780376584801  0.9067931952287935  1.0000
  C   C38       1.0  0.320274076638917  0.9061592003360774  0.09370045800645951  1.0000
  C   C39       1.0  0.32845994357100494  0.9171318547587936  0.3957627245075486  1.0000
  C   C40       1.0  0.6774440993431059  0.09199846075338773  0.5958009395880242  1.0000
  C   C41       1.0  0.18410300731698473  0.36978373320344843  0.6293478563339859  1.0000
  C   C42       1.0  0.8185752396969693  0.629755453628313  0.3709883653176078  1.0000
  C   C43       1.0  0.8169468824577423  0.6305454018397117  0.1287822675160584  1.0000
  C   C44       1.0  0.18355303935017991  0.37066760419688916  0.871093760785648  1.0000
  C   C45       1.0  0.6846968405093322  0.13036525976006172  0.871025388169109  1.0000
  C   C46       1.0  0.3201724354961685  0.8699828300374295  0.129275167367993  1.0000
  C   C47       1.0  0.33318216692905633  0.8802846026468746  0.3606024526802543  1.0000
  C   C48       1.0  0.679255132694081  0.12793719929098304  0.6314770742573188  1.0000
  C   C49       1.0  0.006040867569623702  0.3506638442975715  0.6482262544537534  1.0000
  C   C50       1.0  0.9961023713503965  0.6489788075839518  0.3520087589695038  1.0000
  C   C51       1.0  0.9948824428887946  0.6499509416123677  0.1475869217396237  1.0000
  C   C52       1.0  0.006019788327698401  0.35104058042568925  0.8522070945807912  1.0000
  C   C53       1.0  0.5067932259114444  0.15003130861162361  0.8524753174693417  1.0000
  C   C54       1.0  0.49811249180861245  0.8511892344048918  0.14840023921945542  1.0000
  C   C55       1.0  0.4999059422551469  0.8488597338952321  0.3524945591611228  1.0000
  C   C56       1.0  0.5029137134760262  0.14934196965941746  0.64886109338061  1.0000
  C   C57       1.0  0.1567858991671116  0.4644810361978104  0.5040650890529008  1.0000
  C   C58       1.0  0.8472982799083513  0.5353270974133509  0.49636346576672014  1.0000
  C   C59       1.0  0.8425181439126349  0.5018211744151632  0.031067587188843507  1.0000
  C   C60       1.0  0.15593608607129286  0.49938096720575254  0.9686383967462717  1.0000
  C   C61       1.0  0.6603583107552355  0.0025755511023036006  0.9698733396785428  1.0000
  C   C62       1.0  0.3442993860524979  0.9990385404445236  0.0315318585124089  1.0000
  C   C63       1.0  0.3153047390969377  0.9813957153702194  0.4824319332117852  1.0000
  C   C64       1.0  0.6716302145807377  0.018084795811816403  0.5175574155209333  1.0000
  C   C65       1.0  0.155922138390153  0.5007300101596927  0.4681919320207086  1.0000
  C   C66       1.0  0.8480507839169819  0.49906562416818917  0.5322098695097566  1.0000
  C   C67       1.0  0.8433277365253035  0.4654469878398688  0.9953713530343578  1.0000
  C   C68       1.0  0.1550523799333305  0.5357714966201075  0.0043137777794584  1.0000
  C   C69       1.0  0.6596590800642234  0.9664176217025331  0.005797535621781001  1.0000
  C   C70       1.0  0.3450268523662461  0.035208161212594305  0.9956250181660096  1.0000
  C   C71       1.0  0.31667500876713467  0.017826766580370204  0.5180578477712743  1.0000
  C   C72       1.0  0.6704572878748467  0.9817746121356453  0.48189751200163766  1.0000
  C   C73       1.0  0.0012859264946883003  0.5370348421594501  0.4635353698941174  1.0000
  C   C74       1.0  0.0027936934981483003  0.4627914943810084  0.536884487541073  1.0000
  C   C75       1.0  0.0001038822471529002  0.4633386350881212  0.9633158147558873  1.0000
  C   C76       1.0  0.9985325984227275  0.5378035611454025  0.03643536853400779  1.0000
  C   C77       1.0  0.5017607601905638  0.9637943288077442  0.0375162849749273  1.0000
  C   C78       1.0  0.5029652275035873  0.03785173119294432  0.9639010690899568  1.0000
  C   C79       1.0  0.4948285764519726  0.03724328154621762  0.5369073374628002  1.0000
  C   C80       1.0  0.49237967902294605  0.9621284910983193  0.46342152943341824  1.0000
  O   O1        1.0  0.6615801094181109  0.7964591460175687  0.2019387112225317  1.0000
  O   O2        1.0  0.34250542958505303  0.20373254043907715  0.798056960471861  1.0000
  O   O3        1.0  0.34085313935459993  0.2033047255192173  0.7030561270240199  1.0000
  O   O4        1.0  0.6606772135370277  0.7969563801436766  0.296250853453337  1.0000
  O   O5        1.0  0.159716829907552  0.702028877054353  0.2970095054563444  1.0000
  O   O6        1.0  0.8419337958932617  0.29690167575502363  0.7026013543624999  1.0000
  O   O7        1.0  0.8426571393896722  0.2975512417170593  0.7974893433850667  1.0000
  O   O8        1.0  0.15877739106564812  0.7041151385302133  0.20171812623258492  1.0000
  O   O9        1.0  0.3247077919149178  0.7984879251826414  0.2975205332347457  1.0000
  O   O10       1.0  0.6766057770213225  0.2011147380044562  0.7034196881964547  1.0000
  O   O11       1.0  0.6782720978871525  0.20159711633365165  0.7975043889338808  1.0000
  O   O12       1.0  0.3260040305859989  0.7987913299069406  0.2026297258034759  1.0000
  O   O13       1.0  0.8236760244887338  0.70146505325949  0.2024967357168279  1.0000
  O   O14       1.0  0.17848354572899447  0.29965354618600776  0.7973851097425779  1.0000
  O   O15       1.0  0.17754638999249295  0.2988571614321814  0.703055798773356  1.0000
  O   O16       1.0  0.8231522932650893  0.7000919441693514  0.296918741640944  1.0000
  O   O17       1.0  0.4892249449091752  0.7178847775331719  0.24970987590340604  1.0000
  O   O18       1.0  0.5122547867279864  0.2822821648012877  0.7501658806664437  1.0000
  O   O19       1.0  0.9904082786062604  0.7821354466396218  0.2503415827777644  1.0000
  O   O20       1.0  0.011850002459084403  0.2184182678870741  0.750449357299054  1.0000
  O   O21       1.0  0.6464666317029713  0.3520857093805675  0.6449183709211255  1.0000
  O   O22       1.0  0.355489704728349  0.6481194734457036  0.3552486786074666  1.0000
  O   O23       1.0  0.3544390741488925  0.6489312792653908  0.14437807098877903  1.0000
  O   O24       1.0  0.6463907986637453  0.35145160042648643  0.8555667748794207  1.0000
  O   O25       1.0  0.1474420918680934  0.14957792806203682  0.85646769507877  1.0000
  O   O26       1.0  0.8578544277553919  0.8546610699492094  0.1468101669352464  1.0000
  O   O27       1.0  0.8294067592667531  0.8248980707162378  0.3762685488061308  1.0000
  O   O28       1.0  0.1442075839338202  0.1520881138109119  0.6424457940427359  1.0000
