data_image0
_chemical_formula_structural       Zn2H56C48N4O12
_chemical_formula_sum              "Zn2 H56 C48 N4 O12"
_cell_length_a       8.972419263965744
_cell_length_b       11.273364890837412
_cell_length_c       12.149155889459298
_cell_angle_alpha    73.0522282425908
_cell_angle_beta     68.36392649190908
_cell_angle_gamma    66.55578684965151

_space_group_name_H-M_alt    "P 1"
_space_group_IT_number       1

loop_
  _space_group_symop_operation_xyz
  'x, y, z'

loop_
  _atom_site_type_symbol
  _atom_site_label
  _atom_site_symmetry_multiplicity
  _atom_site_fract_x
  _atom_site_fract_y
  _atom_site_fract_z
  _atom_site_occupancy
  Zn  Zn1       1.0  0.9485453367726963  0.2499692331672705  0.7500297515902474  1.0000
  Zn  Zn2       1.0  0.05145381807215424  0.7500313193940259  0.24997061178873273  1.0000
  H   H1        1.0  0.9119121899337157  0.976552998560365  0.5961664282425261  1.0000
  H   H2        1.0  0.4845647597366282  0.523425264745697  0.903936240428905  1.0000
  H   H3        1.0  0.08808696491113477  0.0234475540009313  0.40383393513645416  1.0000
  H   H4        1.0  0.5154364549137541  0.476574306705345  0.09606262998608635  1.0000
  H   H5        1.0  0.03723439815169636  0.8225226128567941  0.4683425770657408  1.0000
  H   H6        1.0  0.3281155485603405  0.6774850837569418  0.03169785262849693  1.0000
  H   H7        1.0  0.9627668658901243  0.1774769585942479  0.5316574434486655  1.0000
  H   H8        1.0  0.6718848433224097  0.32251448769410024  0.968301840554119  1.0000
  H   H9        1.0  0.04323851046285646  0.6593531851213896  0.5270082141834606  1.0000
  H   H10       1.0  0.22957859771244687  0.8406653037051584  0.9730108363713085  1.0000
  H   H11       1.0  0.9567610586522762  0.3406463863296524  0.4729923017667873  1.0000
  H   H12       1.0  0.7704218435617491  0.15933426774588363  0.026990006910722314  1.0000
  H   H13       1.0  0.8100352871381347  0.9719908358713738  0.40210907703145427  1.0000
  H   H14       1.0  0.18416260270364393  0.5280384451679866  0.09794360402987926  1.0000
  H   H15       1.0  0.1899646904743335  0.028009716689922505  0.5978904635799012  1.0000
  H   H16       1.0  0.8158365521411997  0.47196210739330985  0.9020567593491008  1.0000
  H   H17       1.0  0.6360539192262707  0.9208641993366911  0.5032849663293179  1.0000
  H   H18       1.0  0.060140716664015895  0.5791287806232077  0.9967375898434978  1.0000
  H   H19       1.0  0.36394605838620453  0.07913635322460522  0.4967145742820378  1.0000
  H   H20       1.0  0.9398588524511168  0.42087079082782713  0.0032629261067426284  1.0000
  H   H21       1.0  0.578692649165461  0.8817277112368915  0.3342432437188947  1.0000
  H   H22       1.0  0.7947329964789347  0.6182466276281461  0.16567772480464524  1.0000
  H   H23       1.0  0.4213082006060774  0.118272841324405  0.665756624224251  1.0000
  H   H24       1.0  0.20526739540382255  0.3817529438228888  0.8343219683779708  1.0000
  H   H25       1.0  0.591744983375456  0.042042536677172414  0.3032437201439039  1.0000
  H   H26       1.0  0.9371102700912032  0.4579567584932178  0.1967448433850905  1.0000
  H   H27       1.0  0.4082545857396765  0.9579570347738695  0.6967567958063441  1.0000
  H   H28       1.0  0.06288929902392235  0.5420428129578241  0.8032556725651573  1.0000
  H   H29       1.0  0.6572409534001407  0.6976832005910012  0.544362216521499  1.0000
  H   H30       1.0  0.8992227291317714  0.802355891550917  0.9556023099223411  1.0000
  H   H31       1.0  0.3427594384826164  0.30231637086004076  0.45563747666111704  1.0000
  H   H32       1.0  0.1007772484807035  0.19764466101037936  0.0443972306890217  1.0000
  H   H33       1.0  0.8634450223405138  0.5818866815519783  0.5249361046055582  1.0000
  H   H34       1.0  0.9702067400798667  0.9181543728104489  0.9750823280219122  1.0000
  H   H35       1.0  0.13655495527195427  0.418113871009318  0.4750634360057972  1.0000
  H   H36       1.0  0.029794109691671605  0.0818461797508476  0.0249175399212334  1.0000
  H   H37       1.0  0.6787711359596642  0.9719466859098633  0.07853740919286872  1.0000
  H   H38       1.0  0.729316719691752  0.5279815407731548  0.4214180746086881  1.0000
  H   H39       1.0  0.3212280188851794  0.0280538666514332  0.9214629541861115  1.0000
  H   H40       1.0  0.27068243515309137  0.4720190117881415  0.578582288770299  1.0000
  H   H41       1.0  0.6898152533799831  0.8111809783009178  0.1575145290911024  1.0000
  H   H42       1.0  0.6584597175485031  0.6887639272564456  0.34242799306735344  1.0000
  H   H43       1.0  0.3101855963915555  0.1888195742603784  0.8424853388520431  1.0000
  H   H44       1.0  0.34153985156662964  0.31123564419458927  0.6575725228828943  1.0000
  H   H45       1.0  0.7707502832031138  0.6258884954097823  0.7146082127911199  1.0000
  H   H46       1.0  0.11117469409087019  0.8740878056757708  0.7853184468865493  1.0000
  H   H47       1.0  0.22925056656843165  0.374112057151514  0.28539165515202564  1.0000
  H   H48       1.0  0.8888265699509577  0.1259117657752711  0.21468157362786394  1.0000
  H   H49       1.0  0.5931987964539049  0.6999093397611774  0.9088945162553727  1.0000
  H   H50       1.0  0.2020226675508497  0.8000856024192303  0.5910112936837278  1.0000
  H   H51       1.0  0.40680293124964356  0.3000892505796031  0.09110680692971582  1.0000
  H   H52       1.0  0.7979777243319078  0.19991396903181174  0.40898839949889515  1.0000
  H   H53       1.0  0.5750329600474159  0.9076604175155012  0.9491263739392505  1.0000
  H   H54       1.0  0.4318876122759648  0.592365920193089  0.5507699260407577  1.0000
  H   H55       1.0  0.42496830399441166  0.09233915393553362  0.05087364657516251  1.0000
  H   H56       1.0  0.5681110352886521  0.4076336512579531  0.44922911247828506  1.0000
  C   C1        1.0  0.7515313699517778  0.0732967849826949  0.8053961941204619  1.0000
  C   C2        1.0  0.6302254225481362  0.42675843347227277  0.6946128703884114  1.0000
  C   C3        1.0  0.24846860766069764  0.9267037675786016  0.19460334649089353  1.0000
  C   C4        1.0  0.36977533421345743  0.5732401568685078  0.3053858252660575  1.0000
  C   C5        1.0  0.7439608194892813  0.9557622911318688  0.7746387707444384  1.0000
  C   C6        1.0  0.47440300761117277  0.5442738576792792  0.7253556115571839  1.0000
  C   C7        1.0  0.25604044455254626  0.04423728031917311  0.22536124976996763  1.0000
  C   C8        1.0  0.5255943592970382  0.4557247326615085  0.2746440749689611  1.0000
  C   C9        1.0  0.8392301691497295  0.9161725300939382  0.6631943857713624  1.0000
  C   C10       1.0  0.41853715896812826  0.5838371287403064  0.8368510596146449  1.0000
  C   C11       1.0  0.16076980846274577  0.0838280224673582  0.3368051548399933  1.0000
  C   C12       1.0  0.581462360755559  0.4161624427107355  0.16314830623618803  1.0000
  C   C13       1.0  0.8481545430983742  0.7997373082784593  0.637778220399774  1.0000
  C   C14       1.0  0.28564640578279227  0.7002968783121801  0.8622280632902173  1.0000
  C   C15       1.0  0.1518458487843759  0.2002622631725828  0.3622214727828492  1.0000
  C   C16       1.0  0.7143552231378721  0.2997017120286074  0.13777095969604153  1.0000
  C   C17       1.0  0.9568061586898439  0.7605390102325559  0.5165985556964258  1.0000
  C   C18       1.0  0.2339431945745219  0.7394853652555257  0.9834240148640702  1.0000
  C   C19       1.0  0.043193818922631466  0.23946154232874056  0.4834009849149298  1.0000
  C   C20       1.0  0.7660576551970236  0.2605151873057707  0.01657585307907537  1.0000
  C   C21       1.0  0.7402168410495376  0.9045041858229227  0.4193371587392959  1.0000
  C   C22       1.0  0.06408143584091155  0.5954868319164676  0.08070506182368578  1.0000
  C   C23       1.0  0.259784422992283  0.0954953856281193  0.5806628617751102  1.0000
  C   C24       1.0  0.9359177190039389  0.4045137206448289  0.9192953015553017  1.0000
  C   C25       1.0  0.6651720875649331  0.9365727556406683  0.3167140789860098  1.0000
  C   C26       1.0  0.9185004576870313  0.5634369031935763  0.183288297782262  1.0000
  C   C27       1.0  0.3348274815501923  0.0634268158103666  0.683286436964238  1.0000
  C   C28       1.0  0.0814991114281013  0.4365626682574657  0.8167122181679787  1.0000
  C   C29       1.0  0.7817951844199771  0.6662297869035714  0.4779126087343497  1.0000
  C   C30       1.0  0.9259439692050008  0.8337896830332313  0.02209762346294042  1.0000
  C   C31       1.0  0.21820397042486672  0.33377076565771807  0.5220877546446373  1.0000
  C   C32       1.0  0.07405647206919518  0.16620988841781073  0.9779032198190976  1.0000
  C   C33       1.0  0.7611962024985034  0.8808721830939207  0.11897689271082595  1.0000
  C   C34       1.0  0.7609859574239765  0.619100193550608  0.3810119248345956  1.0000
  C   C35       1.0  0.23880464727303524  0.1191283694673757  0.8810229752323194  1.0000
  C   C36       1.0  0.23901232526180385  0.38090035901068836  0.6189881112126016  1.0000
  C   C37       1.0  0.7604938497576725  0.7204940140359783  0.7284315017023316  1.0000
  C   C38       1.0  0.20935444037697007  0.7794734570572716  0.7715212173663488  1.0000
  C   C39       1.0  0.23950741428415503  0.2795055574150638  0.27156851881208144  1.0000
  C   C40       1.0  0.7906451287381628  0.2205261143937705  0.22847929858389185  1.0000
  C   C41       1.0  0.6616645163288273  0.7610383953527062  0.8387496886356516  1.0000
  C   C42       1.0  0.2615635561473297  0.7389398679533629  0.6611580179858193  1.0000
  C   C43       1.0  0.3383367477130008  0.2389611760983357  0.16125033187875454  1.0000
  C   C44       1.0  0.7384360129678028  0.26105970349767926  0.33884249796442845  1.0000
  C   C45       1.0  0.6512693202025657  0.8786401572622113  0.8618260329959355  1.0000
  C   C46       1.0  0.39179273886003324  0.6213430115951298  0.6381111736680084  1.0000
  C   C47       1.0  0.3487319438392618  0.1213594141888308  0.13817398751847773  1.0000
  C   C48       1.0  0.6082063229748653  0.3786555787456508  0.36188801742229504  1.0000
  N   N1        1.0  0.8625035960988258  0.7699674797898127  0.4334839663487102  1.0000
  N   N2        1.0  0.06601794918123716  0.73005493347776  0.06652652412525127  1.0000
  N   N3        1.0  0.13749638151364957  0.23003307277148372  0.5665155742626453  1.0000
  N   N4        1.0  0.9339833642520287  0.26994463797328194  0.9334746464885697  1.0000
  O   O1        1.0  0.8962514243719751  0.0935861450705318  0.7512728256260032  1.0000
  O   O2        1.0  0.7411454522265258  0.4064582811716235  0.7487618713145848  1.0000
  O   O3        1.0  0.10374942539956321  0.9064144074907647  0.24872704231714238  1.0000
  O   O4        1.0  0.25885283045925417  0.5935422713896727  0.25123816473261223  1.0000
  O   O5        1.0  0.6296288077907735  0.1361879145934495  0.8805586958313185  1.0000
  O   O6        1.0  0.6464031628999012  0.3638741716333059  0.6193809269669047  1.0000
  O   O7        1.0  0.3703707613243594  0.8638116568575924  0.11944182011892217  1.0000
  O   O8        1.0  0.35359846602076306  0.6361244187074819  0.3806180960193544  1.0000
  O   O9        1.0  0.8032738751088143  0.9053793361710022  0.21111590466018262  1.0000
  O   O10       1.0  0.9196520344857362  0.5947402070118815  0.2889252697945181  1.0000
  O   O11       1.0  0.19672738893301298  0.09462023528003273  0.7888841158542306  1.0000
  O   O12       1.0  0.08034624820004417  0.405260345549415  0.711074766252679  1.0000
