data_image0
_chemical_formula_structural       Cd2H32C28N20O12
_chemical_formula_sum              "Cd2 H32 C28 N20 O12"
_cell_length_a       7.267122111970526
_cell_length_b       11.631291554198052
_cell_length_c       12.680963659790597
_cell_angle_alpha    89.99935350907943
_cell_angle_beta     99.12894117170619
_cell_angle_gamma    90.00026545556454

_space_group_name_H-M_alt    "P 1"
_space_group_IT_number       1

loop_
  _space_group_symop_operation_xyz
  'x, y, z'

loop_
  _atom_site_type_symbol
  _atom_site_label
  _atom_site_symmetry_multiplicity
  _atom_site_fract_x
  _atom_site_fract_y
  _atom_site_fract_z
  _atom_site_occupancy
  Cd  Cd1       1.0  0.9999968350400084  0.4999999524629646  0.9999981019854189  1.0000
  Cd  Cd2       1.0  0.5000026905060934  2.2456718800000026e-07  0.5000005371171312  1.0000
  H   H1        1.0  0.3597804628575005  0.5593681954819516  0.9998098560425889  1.0000
  H   H2        1.0  0.14022004520859352  0.059361989074084014  0.5001926205869935  1.0000
  H   H3        1.0  0.6402211366975692  0.4406346992847006  0.00019226752004899926  1.0000
  H   H4        1.0  0.8597788739958717  0.9406357471861995  0.4998101589225285  1.0000
  H   H5        1.0  0.40732063954439474  0.481025631775104  0.1038644288089046  1.0000
  H   H6        1.0  0.09267738354733981  0.9810185902807621  0.3961410883125325  1.0000
  H   H7        1.0  0.592674309125009  0.5189781227192611  0.896139732372177  1.0000
  H   H8        1.0  0.9073271960793364  0.0189774264815341  0.603862766280315  1.0000
  H   H9        1.0  0.8050611030053292  0.350297113857181  0.6376550309059539  1.0000
  H   H10       1.0  0.6949294614166776  0.8503036767869007  0.8623435480034162  1.0000
  H   H11       1.0  0.1949391064121002  0.6497014821591593  0.3623470228191081  1.0000
  H   H12       1.0  0.3050656783820572  0.14970007776594232  0.13765113536731377  1.0000
  H   H13       1.0  0.9619916493864764  0.40565626975325153  0.5555323856873073  1.0000
  H   H14       1.0  0.5380023573379376  0.9056613741208113  0.9444689656235496  1.0000
  H   H15       1.0  0.038008959692923804  0.5943406067446162  0.44447285060272174  1.0000
  H   H16       1.0  0.46199030195136  0.09434066091517929  0.055527964955196296  1.0000
  H   H17       1.0  0.23373190776347746  0.5037417126279139  0.6602263291133923  1.0000
  H   H18       1.0  0.26627965754105537  0.0037514700868400007  0.8397788501218599  1.0000
  H   H19       1.0  0.7662664119500704  0.496259462659836  0.3397716765444088  1.0000
  H   H20       1.0  0.7337191617509763  0.9962479856776912  0.1602231337400113  1.0000
  H   H21       1.0  0.07866758446729703  0.6210079585926921  0.6534997344336658  1.0000
  H   H22       1.0  0.42133668676338953  0.12102065708179309  0.8464967699400248  1.0000
  H   H23       1.0  0.9213364956033205  0.3789992349400677  0.3465001419081446  1.0000
  H   H24       1.0  0.5786632229085885  0.8789796584482805  0.1535028968591803  1.0000
  H   H25       1.0  0.20415452186012575  0.8231466476645721  0.6264068043061286  1.0000
  H   H26       1.0  0.295839686323177  0.32315177572027665  0.8735879290383153  1.0000
  H   H27       1.0  0.7958550187935814  0.17685624713043785  0.3735925558536195  1.0000
  H   H28       1.0  0.7041534725527471  0.6768519787914898  0.1264129797274194  1.0000
  H   H29       1.0  0.7921344867274271  0.7627949243327452  0.4624854822950155  1.0000
  H   H30       1.0  0.707872522240166  0.26279447153870455  0.03751515158757712  1.0000
  H   H31       1.0  0.20787247348810212  0.23720109245164886  0.5375153294592607  1.0000
  H   H32       1.0  0.2921196374645519  0.737206703771257  0.9624778007999097  1.0000
  C   C1        1.0  0.22861149052258875  0.5859999202626369  0.8102634805773904  1.0000
  C   C2        1.0  0.2713874539082468  0.08600035878735922  0.6897362747112155  1.0000
  C   C3        1.0  0.7713896094397442  0.4139986757789844  0.1897346648110698  1.0000
  C   C4        1.0  0.7286072949138787  0.9139973774682418  0.3102662952215383  1.0000
  C   C5        1.0  0.21783934335130792  0.5918082581381087  0.6891750131492741  1.0000
  C   C6        1.0  0.28216379901459027  0.09181841677956731  0.8108248939738587  1.0000
  C   C7        1.0  0.7821633465837152  0.40819549639409325  0.3108247933506973  1.0000
  C   C8        1.0  0.7178335302314452  0.9081801792384001  0.18917622439425943  1.0000
  C   C9        1.0  0.32563776353010354  0.7741987733523531  0.612713370130038  1.0000
  C   C10       1.0  0.1743632632102674  0.2742042448045794  0.887282994343465  1.0000
  C   C11       1.0  0.6743732671594105  0.22580068244047888  0.387286855544815  1.0000
  C   C12       1.0  0.8256326759103559  0.7257952109615716  0.11271805416146209  1.0000
  C   C13       1.0  0.5791145364755936  0.7195305552983203  0.5596265023723319  1.0000
  C   C14       1.0  0.9208878193720481  0.21953178230628367  0.9403732085531261  1.0000
  C   C15       1.0  0.42089381387145863  0.280467180987138  0.4403743792323169  1.0000
  C   C16       1.0  0.0791020596643932  0.7804711124763347  0.0596235823035087  1.0000
  C   C17       1.0  0.7344561164493015  0.6989211552427435  0.5110517450607972  1.0000
  C   C18       1.0  0.7655478315907944  0.1989213403574014  0.988950627358328  1.0000
  C   C19       1.0  0.26555094368477944  0.30107572128665794  0.48894986232831167  1.0000
  C   C20       1.0  0.23444899808492184  0.8010824141827725  0.011046512788638604  1.0000
  C   C21       1.0  0.748658208751273  0.5129190463751528  0.5809628607681105  1.0000
  C   C22       1.0  0.7513399878995132  0.012919189876264205  0.9190355801513661  1.0000
  C   C23       1.0  0.25134339079564694  0.4870804093925046  0.4190392628116015  1.0000
  C   C24       1.0  0.24865515188496093  0.9870785464283363  0.0809591032492492  1.0000
  C   C25       1.0  0.5167677447967094  0.6256927369638208  0.6154027710245629  1.0000
  C   C26       1.0  0.9832338665499522  0.1256982668276549  0.8845954850490756  1.0000
  C   C27       1.0  0.48324070546685505  0.3743049993168911  0.3845989062191962  1.0000
  C   C28       1.0  0.016761572992194808  0.874302908461708  0.11540158525178161  1.0000
  N   N1        1.0  0.3544439724874451  0.6628713195618163  0.6484498617221917  1.0000
  N   N2        1.0  0.14555255604744846  0.16287714744493803  0.8515489902616196  1.0000
  N   N3        1.0  0.6455604073184418  0.3371298557084615  0.35155240156682777  1.0000
  N   N4        1.0  0.8544432831627802  0.8371248875752005  0.1484512625913865  1.0000
  N   N5        1.0  0.4568829642695961  0.8115261797630783  0.5600890697435901  1.0000
  N   N6        1.0  0.0431175486745659  0.3115297688610995  0.9399124235826122  1.0000
  N   N7        1.0  0.5431254859939685  0.1884715565176407  0.4399126075001689  1.0000
  N   N8        1.0  0.9568782905356629  0.6884722661590388  0.06008782927040101  1.0000
  N   N9        1.0  0.8186746862200283  0.5964983627464662  0.5217581327345044  1.0000
  N   N10       1.0  0.6813283766939053  0.09649499904956123  0.978242074506852  1.0000
  N   N11       1.0  0.18133237391609217  0.40349937353268944  0.478243474650327  1.0000
  N   N12       1.0  0.3186623928772505  0.9035035970095894  0.021750808034525403  1.0000
  N   N13       1.0  0.594972160079408  0.5224651961535757  0.628377228745471  1.0000
  N   N14       1.0  0.905027871617101  0.022468082017631705  0.871624369754251  1.0000
  N   N15       1.0  0.40503370976228587  0.47753254011452373  0.37162590005865326  1.0000
  N   N16       1.0  0.09496786767254413  0.9775322335077522  0.1283750874681928  1.0000
  N   N17       1.0  0.8430316606235877  0.4124487725157664  0.5896495805801294  1.0000
  N   N18       1.0  0.6569691290909676  0.9124503381690305  0.9103504612950671  1.0000
  N   N19       1.0  0.15697678963997674  0.5875489637649453  0.41035209666362954  1.0000
  N   N20       1.0  0.34302879095450584  0.08754997738795116  0.08964436181058491  1.0000
  O   O1        1.0  0.3168247455900683  0.5376746327873863  0.0680980554244144  1.0000
  O   O2        1.0  0.1831742474584459  0.03766754489050331  0.43190332302956597  1.0000
  O   O3        1.0  0.6831739737935935  0.46232826198089344  0.9319031327812723  1.0000
  O   O4        1.0  0.8168260618714246  0.9623293316216037  0.5680995263431399  1.0000
  O   O5        1.0  0.07365928762579446  0.5639976630217804  0.8394673265898406  1.0000
  O   O6        1.0  0.42634660306266897  0.06399288610226253  0.6605337922058182  1.0000
  O   O7        1.0  0.9263419122489794  0.4359992135156078  0.16053161444626338  1.0000
  O   O8        1.0  0.573651616718081  0.9360014111922368  0.33946341784704265  1.0000
  O   O9        1.0  0.38458516532956827  0.600317185911969  0.8705702168762102  1.0000
  O   O10       1.0  0.11542069767589423  0.1003153390594065  0.6294289498664867  1.0000
  O   O11       1.0  0.6154147443485273  0.3996857088673523  0.1294294499101909  1.0000
  O   O12       1.0  0.8845751415282237  0.8996841167114908  0.37057130299933055  1.0000
