data_image0
_chemical_formula_structural       Cd2H28C24N4Cl4
_chemical_formula_sum              "Cd2 H28 C24 N4 Cl4"
_cell_length_a       3.8891576902073663
_cell_length_b       11.272375102541059
_cell_length_c       14.683015898006927
_cell_angle_alpha    90.00006797613395
_cell_angle_beta     90.00008877523804
_cell_angle_gamma    88.17739316943079

_space_group_name_H-M_alt    "P 1"
_space_group_IT_number       1

loop_
  _space_group_symop_operation_xyz
  'x, y, z'

loop_
  _atom_site_type_symbol
  _atom_site_label
  _atom_site_symmetry_multiplicity
  _atom_site_fract_x
  _atom_site_fract_y
  _atom_site_fract_z
  _atom_site_occupancy
  Cd  Cd1       1.0  0.9999976572814971  7.875005039033024e-07  0.9999991238174675  1.0000
  Cd  Cd2       1.0  1.2291894648958129e-06  0.5000008273905366  0.4999996772467626  1.0000
  H   H1        1.0  0.7406209603229145  0.9081067442859164  0.8043536939817246  1.0000
  H   H2        1.0  0.25937381799716525  0.5918928240487132  0.30435467874426797  1.0000
  H   H3        1.0  0.25936345868705507  0.0918950959654268  0.19564518601435318  1.0000
  H   H4        1.0  0.7406362751004564  0.40810601467130436  0.6956462444327729  1.0000
  H   H5        1.0  0.0212623145191273  0.1510398191155105  0.5908527985279906  1.0000
  H   H6        1.0  0.978749653817907  0.34895918540476606  0.09084953786962302  1.0000
  H   H7        1.0  0.9787297880624166  0.8489601450660162  0.4091474435868393  1.0000
  H   H8        1.0  0.0212579176598169  0.6510423481485148  0.9091493421310946  1.0000
  H   H9        1.0  0.27923208176446224  0.27569335539595835  0.7092345802254911  1.0000
  H   H10       1.0  0.7207830792122112  0.22430313716930778  0.20923042292555755  1.0000
  H   H11       1.0  0.7207702768792786  0.7243046986366082  0.2907649808316252  1.0000
  H   H12       1.0  0.27921931335307454  0.7756966907014444  0.7907691381323405  1.0000
  H   H13       1.0  0.2575625117996836  0.20873770685867757  0.8740576330119796  1.0000
  H   H14       1.0  0.7424355929359764  0.2912601657933678  0.3740535432128454  1.0000
  H   H15       1.0  0.742439812920587  0.7912585733351777  0.1259412469853629  1.0000
  H   H16       1.0  0.25756173943067046  0.7087441648253401  0.6259426125510219  1.0000
  H   H17       1.0  0.9140535904457964  0.89494781400289  0.5733187634180867  1.0000
  H   H18       1.0  0.0859476297044566  0.6050530690270151  0.0733210501574462  1.0000
  H   H19       1.0  0.08592561573212272  0.10505054672826471  0.42668147869336803  1.0000
  H   H20       1.0  0.9140702656920537  0.3949501020573649  0.9266819162000746  1.0000
  H   H21       1.0  0.5311562786414826  0.9842924586926429  0.5735475592110221  1.0000
  H   H22       1.0  0.4688527450932014  0.515712757051972  0.07354788283334561  1.0000
  H   H23       1.0  0.46882553395439436  0.015707641799132  0.42645268290173294  1.0000
  H   H24       1.0  0.531172884747541  0.4842911987172301  0.926453040349138  1.0000
  H   H25       1.0  0.5787861469940269  0.8625549156271217  0.6497750434473418  1.0000
  H   H26       1.0  0.4212077720945119  0.6374453008310752  0.1497802212569682  1.0000
  H   H27       1.0  0.4212008275612433  0.1374460036302025  0.35022724184381815  1.0000
  H   H28       1.0  0.5787997485221297  0.3625535719707146  0.8502261503914925  1.0000
  C   C1        1.0  0.8608208242204185  0.9881920031886937  0.7796442525558762  1.0000
  C   C2        1.0  0.13917892510719557  0.5118056849799615  0.27964443656847493  1.0000
  C   C3        1.0  0.13916611639979953  0.011807142226757598  0.22035326532156327  1.0000
  C   C4        1.0  0.8608389533111733  0.48819659918058994  0.7203524002577313  1.0000
  C   C5        1.0  0.8651272783558355  0.0161207281024502  0.6869128793083946  1.0000
  C   C6        1.0  0.13488267895758813  0.4838793458145999  0.18691347436178776  1.0000
  C   C7        1.0  0.13486479030417092  0.9838774622408906  0.31308736280564636  1.0000
  C   C8        1.0  0.8651300205637824  0.5161212326676293  0.8130894919935232  1.0000
  C   C9        1.0  0.0155557815295069  0.12254056957897319  0.661853865813413  1.0000
  C   C10       1.0  0.9844462144819986  0.37745424634274377  0.16185267560769748  1.0000
  C   C11       1.0  0.9844414829998486  0.8774602133649407  0.338144333125861  1.0000
  C   C12       1.0  0.015561289144926592  0.6225437395320624  0.8381434801554948  1.0000
  C   C13       1.0  0.15746899687257354  0.19379063800652563  0.7285078076634337  1.0000
  C   C14       1.0  0.8425411622764828  0.3062077263250771  0.22850241017160045  1.0000
  C   C15       1.0  0.8425282337371769  0.8062083710997284  0.2714910723340439  1.0000
  C   C16       1.0  0.15746380278521602  0.6937920674681095  0.7714971508868164  1.0000
  C   C17       1.0  0.14444965887956582  0.15802675720378548  0.8190831867372524  1.0000
  C   C18       1.0  0.8555558517318006  0.34197092828910064  0.3190791880156212  1.0000
  C   C19       1.0  0.8555553061821328  0.8419730365894011  0.18091637432116414  1.0000
  C   C20       1.0  0.14443873854037997  0.6580245672188738  0.6809203730387738  1.0000
  C   C21       1.0  0.7141388646392529  0.9352189772159389  0.617569866646001  1.0000
  C   C22       1.0  0.2858677004519095  0.5647792452623221  0.11757220075983103  1.0000
  C   C23       1.0  0.285853237942284  0.06478098696558732  0.38243037546882164  1.0000
  C   C24       1.0  0.7141449651459907  0.4352195593811886  0.882430084535706  1.0000
  N   N1        1.0  0.9970798044555667  0.05694603805499549  0.844232784044394  1.0000
  N   N2        1.0  0.002918165153431594  0.44305356236321086  0.3442319267626176  1.0000
  N   N3        1.0  0.002914836700853094  0.9430521182107867  0.15576745807016582  1.0000
  N   N4        1.0  0.9970868168748198  0.5569471183506494  0.6557696774731668  1.0000
  Cl  Cl1       1.0  0.48415428684478473  0.1593634992019233  0.03371803824179411  1.0000
  Cl  Cl2       1.0  0.5158393840876343  0.34063742943776276  0.5337175826732266  1.0000
  Cl  Cl3       1.0  0.5158404051920159  0.8406373178206011  0.9662815228149458  1.0000
  Cl  Cl4       1.0  0.48416048686740254  0.6593650932688816  0.4662833405033099  1.0000
