data_image0
_chemical_formula_structural       Al4H28C64N8O52
_chemical_formula_sum              "Al4 H28 C64 N8 O52"
_cell_length_a       6.6211234915537185
_cell_length_b       23.569201371461805
_cell_length_c       26.269276259947542
_cell_angle_alpha    101.62078542251312
_cell_angle_beta     90.00041032164012
_cell_angle_gamma    90.00133704429676

_space_group_name_H-M_alt    "P 1"
_space_group_IT_number       1

loop_
  _space_group_symop_operation_xyz
  'x, y, z'

loop_
  _atom_site_type_symbol
  _atom_site_label
  _atom_site_symmetry_multiplicity
  _atom_site_fract_x
  _atom_site_fract_y
  _atom_site_fract_z
  _atom_site_occupancy
  Al  Al1       1.0  0.24496045260858781  0.2505473182409474  0.25093755810765833  1.0000
  Al  Al2       1.0  0.7486069039123889  0.7480489122378415  0.7478479138091956  1.0000
  Al  Al3       1.0  0.7449601165854743  0.24945409885245334  0.24905714938935838  1.0000
  Al  Al4       1.0  0.24861041336238543  0.7519517139937689  0.7521505964046254  1.0000
  H   H1        1.0  0.7323628547984099  0.508856324874692  0.5664820233844025  1.0000
  H   H2        1.0  0.271831232868891  0.49299148561043177  0.43213513260807457  1.0000
  H   H3        1.0  0.23227842005114502  0.9911433326876845  0.933522253645471  1.0000
  H   H4        1.0  0.7717176964863202  0.006986237157910598  0.0678804911934918  1.0000
  H   H5        1.0  0.7207153517432516  0.4292559613557712  0.4880697402536641  1.0000
  H   H6        1.0  0.2839801572121559  0.5724727887398302  0.5106104324297079  1.0000
  H   H7        1.0  0.22066662737226042  0.07074629787309308  0.011933436310585003  1.0000
  H   H8        1.0  0.7838490428963637  0.9275100702367423  0.9894009008819751  1.0000
  H   H9        1.0  0.6332571318833686  0.7078787714765369  0.9252635168159031  1.0000
  H   H10       1.0  0.36783158912037817  0.29104687918435695  0.07122848012426891  1.0000
  H   H11       1.0  0.1332410339904797  0.7921405650344366  0.574752204528153  1.0000
  H   H12       1.0  0.8678584477955268  0.20894360778367368  0.42875723335584587  1.0000
  H   H13       1.0  0.3940165481116864  0.5414367549221877  0.8745765155490944  1.0000
  H   H14       1.0  0.7486501529919353  0.4888363176989897  0.08331579686463192  1.0000
  H   H15       1.0  0.8940502010786062  0.9585803598253191  0.6254368976082035  1.0000
  H   H16       1.0  0.248643786923985  0.0111585842585455  0.41667811045513053  1.0000
  H   H17       1.0  0.697005081158629  0.4377939582027465  0.9144763965826996  1.0000
  H   H18       1.0  0.2969008299321203  0.5652814273227165  0.08815760960420961  1.0000
  H   H19       1.0  0.19705130297199253  0.06221939361619632  0.5855180246270779  1.0000
  H   H20       1.0  0.7969101561163116  0.9347117667415148  0.41184625865933105  1.0000
  H   H21       1.0  0.6459044717267518  0.4003061026092921  0.9921565075570059  1.0000
  H   H22       1.0  0.3526923449777968  0.6001201786850243  0.0084039042664656  1.0000
  H   H23       1.0  0.1459245477281712  0.09968853713096588  0.5078333838359301  1.0000
  H   H24       1.0  0.8527190372651107  0.8998882766264772  0.49160604236914207  1.0000
  H   H25       1.0  0.49713101917822666  0.3264264106660874  0.2631787032154734  1.0000
  H   H26       1.0  0.48848150504296933  0.6750732158935051  0.7274692776430384  1.0000
  H   H27       1.0  0.9971133266185106  0.17357150004167468  0.23687421745278672  1.0000
  H   H28       1.0  0.9884988017773751  0.8249286077432315  0.7725276543784007  1.0000
  C   C1        1.0  0.4929894792795793  0.17148151075591755  0.1749399056075802  1.0000
  C   C2        1.0  0.5043038451624325  0.8265046350594643  0.8267489126208504  1.0000
  C   C3        1.0  0.9930160828691045  0.3285201394538149  0.32505829005655335  1.0000
  C   C4        1.0  0.0043166342944403  0.6734930621055497  0.6732530935724553  1.0000
  C   C5        1.0  0.49559003046952915  0.19167700131026777  0.31598495016016415  1.0000
  C   C6        1.0  0.4992870618612812  0.8122917011834684  0.6873017551753406  1.0000
  C   C7        1.0  0.9955883694953512  0.3083197436225261  0.18400623985139938  1.0000
  C   C8        1.0  0.9992681334912278  0.687713255273408  0.8126994971886176  1.0000
  C   C9        1.0  0.8426406012722368  0.6611611547657857  0.8918741117187353  1.0000
  C   C10       1.0  0.15283868235501066  0.3351789011543218  0.10406742338730621  1.0000
  C   C11       1.0  0.3426580901479284  0.8388529643477369  0.6081329149975475  1.0000
  C   C12       1.0  0.6528518230177198  0.16481260347778456  0.39592151018018745  1.0000
  C   C13       1.0  0.8302730030117473  0.6231225273008647  0.9280291566599889  1.0000
  C   C14       1.0  0.16963163711523777  0.37546602508014354  0.0700944476814271  1.0000
  C   C15       1.0  0.330282153674716  0.8768936256186561  0.5719817244112875  1.0000
  C   C16       1.0  0.6696513545388285  0.1245255989938343  0.42989453865241256  1.0000
  C   C17       1.0  0.9773233032565187  0.5804279991351464  0.930288387495452  1.0000
  C   C18       1.0  0.025209408349880398  0.42005205456783307  0.0706119733611459  1.0000
  C   C19       1.0  0.4773511221389128  0.9195865682416976  0.5697186714184285  1.0000
  C   C20       1.0  0.5252268334425096  0.07993709862282831  0.4293757750950676  1.0000
  C   C21       1.0  0.1386990332453664  0.5747128322363507  0.894761948834443  1.0000
  C   C22       1.0  0.8680232836446323  0.4252101078596694  0.1066928197077246  1.0000
  C   C23       1.0  0.6387383633240232  0.9253001767307936  0.6052440508896028  1.0000
  C   C24       1.0  0.36804282208078126  0.074774264970408  0.3932901440418704  1.0000
  C   C25       1.0  0.1346325650656084  0.6069805893818908  0.8546663418417922  1.0000
  C   C26       1.0  0.8617030394659864  0.3882320777460321  0.14262731050557423  1.0000
  C   C27       1.0  0.6346778115640674  0.8930250877529744  0.6453333948052206  1.0000
  C   C28       1.0  0.36171717632006317  0.11175479669595487  0.35735952890138384  1.0000
  C   C29       1.0  0.9919148677568117  0.6502091813338422  0.8528432094050731  1.0000
  C   C30       1.0  0.0009665932885596  0.34439755789516363  0.1429169773481433  1.0000
  C   C31       1.0  0.4919404057652343  0.8498025173453879  0.6471619383862547  1.0000
  C   C32       1.0  0.5009763677048227  0.15558929891530224  0.35707068343766935  1.0000
  C   C33       1.0  0.8716640229500001  0.48923383047858227  0.9577348776622261  1.0000
  C   C34       1.0  0.1254029520192219  0.5132322839576418  0.04452357668876771  1.0000
  C   C35       1.0  0.37171374171123267  0.010773030233551093  0.5422635439514708  1.0000
  C   C36       1.0  0.6254058225031186  0.9867635190771864  0.4554700691827379  1.0000
  C   C37       1.0  0.8872704242112804  0.44967184169716024  0.9909777931010738  1.0000
  C   C38       1.0  0.10999589438567631  0.5524472775342701  0.011022200378583601  1.0000
  C   C39       1.0  0.3872923799303791  0.05032842232080978  0.5090132658886048  1.0000
  C   C40       1.0  0.6100265646099884  0.9475563969003317  0.48898075650386374  1.0000
  C   C41       1.0  0.0174838538718731  0.4608376016892917  0.03425710797147731  1.0000
  C   C42       1.0  0.9808925486773035  0.5412308659506521  0.9679308771783115  1.0000
  C   C43       1.0  0.51749277620587  0.03915676242533548  0.46573336192306414  1.0000
  C   C44       1.0  0.4809332307291286  0.9587771007598889  0.5320749925773072  1.0000
  C   C45       1.0  0.8431098894752581  0.4608112618322266  0.49324586671358633  1.0000
  C   C46       1.0  0.161449692665812  0.5409558830549271  0.5054449942972071  1.0000
  C   C47       1.0  0.3430553203718318  0.0391872787006093  0.0067599985486879  1.0000
  C   C48       1.0  0.6613319709500586  0.9590253386995966  0.9945682789938389  1.0000
  C   C49       1.0  0.9956119779327252  0.4560163739324423  0.45504677422623274  1.0000
  C   C50       1.0  0.0088887016970389  0.5457572436504633  0.5436153968935927  1.0000
  C   C51       1.0  0.4955392363010064  0.0439741587389904  0.044962626267718506  1.0000
  C   C52       1.0  0.5087680083305344  0.9542319843851743  0.9563962818092053  1.0000
  C   C53       1.0  0.1547262985043574  0.4967570030485717  0.46177763308502773  1.0000
  C   C54       1.0  0.8496157993237076  0.5050567203594057  0.5368738860466068  1.0000
  C   C55       1.0  0.6546312583118734  0.003229065126710399  0.038233014458093406  1.0000
  C   C56       1.0  0.3495219324390604  0.994939265585948  0.9631353930170051  1.0000
  C   C57       1.0  0.9903837556697538  0.4111560913601621  0.41032698993988964  1.0000
  C   C58       1.0  0.013574722022362101  0.590685011797383  0.588280813212002  1.0000
  C   C59       1.0  0.4903205910706204  0.088836530295616  0.08967852391919003  1.0000
  C   C60       1.0  0.5134459578892602  0.9093076478639261  0.9117308985966659  1.0000
  C   C61       1.0  0.013234043516959601  0.6290130755490606  0.6270665414197297  1.0000
  C   C62       1.0  0.9895599852810617  0.3730099026103416  0.3714199698640712  1.0000
  C   C63       1.0  0.5132021433650209  0.8709803512206662  0.8729370219910849  1.0000
  C   C64       1.0  0.4895071773528983  0.126989425145247  0.12858518958539383  1.0000
  N   N1        1.0  0.6610562689449253  0.6298983249601803  0.963056312391494  1.0000
  N   N2        1.0  0.3410142680225404  0.3705752008352049  0.03660185716285721  1.0000
  N   N3        1.0  0.16106689745628702  0.8701150112880713  0.5369524756502032  1.0000
  N   N4        1.0  0.841035325616609  0.12941781255228338  0.4633865039841113  1.0000
  N   N5        1.0  0.2794329893748113  0.5905617171911572  0.8120924785935274  1.0000
  N   N6        1.0  0.6986531704222614  0.3992032808036186  0.18197426878781903  1.0000
  N   N7        1.0  0.7794883578094983  0.909445074429129  0.6879081016003356  1.0000
  N   N8        1.0  0.19866075795417262  0.1007840496414829  0.31800973808312705  1.0000
  O   O1        1.0  0.6642292956600641  0.20259106433474017  0.2977151308329979  1.0000
  O   O2        1.0  0.331907505761734  0.8032625768654211  0.7073141991252359  1.0000
  O   O3        1.0  0.1642216975315378  0.297402305131385  0.20227423631701671  1.0000
  O   O4        1.0  0.8318767100411862  0.6967516352330136  0.7926935710611077  1.0000
  O   O5        1.0  0.32315527692832546  0.18916411557476204  0.19462997919900002  1.0000
  O   O6        1.0  0.6714209196325455  0.8076246476521047  0.8059379065229989  1.0000
  O   O7        1.0  0.8231768140472296  0.3108397241325065  0.30536964217231605  1.0000
  O   O8        1.0  0.1714268258508724  0.6923824805862535  0.6940615639015705  1.0000
  O   O9        1.0  0.32219389970388335  0.20607215363895653  0.3023756123817379  1.0000
  O   O10       1.0  0.6712934481865956  0.793300130240894  0.6967894244295466  1.0000
  O   O11       1.0  0.8221959223039621  0.2939240361762642  0.1976181419600351  1.0000
  O   O12       1.0  0.1712794187535209  0.7066920478395601  0.8032037538583836  1.0000
  O   O13       1.0  0.16666290462520553  0.31126674549061306  0.30768988386204654  1.0000
  O   O14       1.0  0.8285296411470283  0.6898543288923304  0.6896571019137029  1.0000
  O   O15       1.0  0.6666422501768139  0.188736662401098  0.19230653228645883  1.0000
  O   O16       1.0  0.32852157726637904  0.8101366695674201  0.8103435450339591  1.0000
  O   O17       1.0  0.4955885673181939  0.28459860086297784  0.25224876597962265  1.0000
  O   O18       1.0  0.4962042012424632  0.7148800898952317  0.7463807766217772  1.0000
  O   O19       1.0  0.9955807711092176  0.21540366089433857  0.24775215822153032  1.0000
  O   O20       1.0  0.9962130627793684  0.7851211932696671  0.7536173409452048  1.0000
  O   O21       1.0  0.7196135711557119  0.70626876844792  0.8935477577445642  1.0000
  O   O22       1.0  0.2722288167689371  0.2893827049492614  0.10084123169734482  1.0000
  O   O23       1.0  0.21961660930456617  0.793750080597789  0.6064631827036919  1.0000
  O   O24       1.0  0.7722444273039811  0.21061041354346338  0.39914769291187474  1.0000
  O   O25       1.0  0.560652435445796  0.6766288432943596  0.9704426008677063  1.0000
  O   O26       1.0  0.6126355805915084  0.5895688287873709  0.9847964976838457  1.0000
  O   O27       1.0  0.3883807818317138  0.41145796286954084  0.015130176069888502  1.0000
  O   O28       1.0  0.4480031399598444  0.32491393085448544  0.0297838307914731  1.0000
  O   O29       1.0  0.060633214445154196  0.8233886188682502  0.5295705559868155  1.0000
  O   O30       1.0  0.11267471068533301  0.9104408539867563  0.5152047450746552  1.0000
  O   O31       1.0  0.8883944276098177  0.0885349625341547  0.4848583315703579  1.0000
  O   O32       1.0  0.9480207138948984  0.1750816272490923  0.47020526429242443  1.0000
  O   O33       1.0  0.2843570231012365  0.5361143528925253  0.8990874735401492  1.0000
  O   O34       1.0  0.7207615230237749  0.46579884390124704  0.10976306804515451  1.0000
  O   O35       1.0  0.7843995133412348  0.9638995213243077  0.6009201473787941  1.0000
  O   O36       1.0  0.22076091493533312  0.034191189221758095  0.3902268446504848  1.0000
  O   O37       1.0  0.4518760243327762  0.5747050280076917  0.8240173813324534  1.0000
  O   O38       1.0  0.2255533076933389  0.5907801779827436  0.7673658962935691  1.0000
  O   O39       1.0  0.7488168550937786  0.41989564149804437  0.2271723319632386  1.0000
  O   O40       1.0  0.5253389867258065  0.388016403512097  0.16592922981432418  1.0000
  O   O41       1.0  0.9519203289592754  0.9253158161643638  0.6759880799284944  1.0000
  O   O42       1.0  0.7256385876687615  0.9092121277368718  0.7326340501607191  1.0000
  O   O43       1.0  0.2488289882783263  0.08008856153018938  0.27281336633915754  1.0000
  O   O44       1.0  0.025350988649336197  0.11197980581080456  0.3340519582847818  1.0000
  O   O45       1.0  0.7500204098315635  0.4768610070433111  0.9150152018580401  1.0000
  O   O46       1.0  0.24758273157842584  0.5257460650568148  0.0870743845852289  1.0000
  O   O47       1.0  0.2500844420773801  0.02315475780005728  0.5849848313813838  1.0000
  O   O48       1.0  0.7475803433315846  0.9742438948862213  0.4129199969506346  1.0000
  O   O49       1.0  0.7835635815148123  0.39807706378697816  0.9767559032491209  1.0000
  O   O50       1.0  0.21655268312398596  0.6037616608164739  0.02440761548317741  1.0000
  O   O51       1.0  0.28359182376222236  0.10192187066967759  0.5232301686619821  1.0000
  O   O52       1.0  0.7165861756063948  0.8962435351329531  0.47559723298656564  1.0000
