data_image0
_chemical_formula_structural       Zn2H6C12N4O8
_chemical_formula_sum              "Zn2 H6 C12 N4 O8"
_cell_length_a       5.609750758174944
_cell_length_b       9.84977474225743
_cell_length_c       9.517149012489744
_cell_angle_alpha    58.835670076352876
_cell_angle_beta     79.50033140617109
_cell_angle_gamma    69.3617341664717

_space_group_name_H-M_alt    "P 1"
_space_group_IT_number       1

loop_
  _space_group_symop_operation_xyz
  'x, y, z'

loop_
  _atom_site_type_symbol
  _atom_site_label
  _atom_site_symmetry_multiplicity
  _atom_site_fract_x
  _atom_site_fract_y
  _atom_site_fract_z
  _atom_site_occupancy
  Zn  Zn1       1.0  0.49975147832647354  0.1786130516522064  0.6428934447507969  1.0000
  Zn  Zn2       1.0  0.5002586220579418  0.821387295444829  0.357106094396812  1.0000
  H   H1        1.0  0.009738183740857831  0.8545002491788833  0.7330236050788697  1.0000
  H   H2        1.0  0.9897006636227066  0.41245655958938676  0.7332326830859515  1.0000
  H   H3        1.0  0.9902631325337696  0.1454823637905776  0.26696861630991  1.0000
  H   H4        1.0  0.010273299576979903  0.5875431680929353  0.2667620286933283  1.0000
  H   H5        1.0  0.2143848025766815  0.6025245642495703  0.9998453898108718  1.0000
  H   H6        1.0  0.7856079831669903  0.39746787967688135  0.00015573730708236188  1.0000
  C   C1        1.0  0.619857497745507  0.9354985178704207  0.9999769969913853  1.0000
  C   C2        1.0  0.38015804685612414  0.06451671943352719  4.622449644415803e-06  1.0000
  C   C3        1.0  0.9307399849133805  0.8366517378973836  0.8529135986048215  1.0000
  C   C4        1.0  0.06899612846732599  0.3104364595322263  0.8531030378951312  1.0000
  C   C5        1.0  0.06926861787018625  0.16333557038263538  0.14707837532620965  1.0000
  C   C6        1.0  0.9310013284698474  0.6895666475703378  0.14688205450413955  1.0000
  C   C7        1.0  0.04295119810899451  0.6992068998383091  0.9998569579890311  1.0000
  C   C8        1.0  0.9570533969689735  0.3007861847154132  0.00014042471653397587  1.0000
  C   C9        1.0  0.38176128194242437  0.9762319737925151  0.5526175122581658  1.0000
  C   C10       1.0  0.618294118654319  0.47105956168407187  0.5526575950417723  1.0000
  C   C11       1.0  0.618204477761239  0.02377916439542091  0.4473943266728426  1.0000
  C   C12       1.0  0.3817305843584576  0.5289190305735048  0.44738425157647294  1.0000
  N   N1        1.0  0.7183577355680062  0.9548648466482274  0.854152447124697  1.0000
  N   N2        1.0  0.2813638548496016  0.1910055423292788  0.8542416313359594  1.0000
  N   N3        1.0  0.2816549681773353  0.04513586478181249  0.14582196250736248  1.0000
  N   N4        1.0  0.7186364208831365  0.8090018532028224  0.1457463283205696  1.0000
  O   O1        1.0  0.291878075992301  0.03283829483590477  0.650429016134133  1.0000
  O   O2        1.0  0.7080534128918575  0.31662128252357735  0.6505273289101223  1.0000
  O   O3        1.0  0.7080853901417472  0.9671868461558686  0.3495452931347739  1.0000
  O   O4        1.0  0.2919862480383418  0.6833769755008985  0.3494838402335529  1.0000
  O   O5        1.0  0.29581614886766533  0.8838203773106696  0.5330932089368757  1.0000
  O   O6        1.0  0.7045224876905748  0.5828923079547578  0.5331341364382565  1.0000
  O   O7        1.0  0.7041671782877685  0.11616282949148629  0.4669202937094567  1.0000
  O   O8        1.0  0.2954801868224666  0.41711393199867075  0.46692011413240647  1.0000
