data_image0
_chemical_formula_structural       Cu2Mo2H8C10N2O8
_chemical_formula_sum              "Cu2 Mo2 H8 C10 N2 O8"
_cell_length_a       5.474342173357048
_cell_length_b       6.803036625822907
_cell_length_c       10.74780294246444
_cell_angle_alpha    73.58407005248203
_cell_angle_beta     78.83099680463701
_cell_angle_gamma    70.03761787536153

_space_group_name_H-M_alt    "P 1"
_space_group_IT_number       1

loop_
  _space_group_symop_operation_xyz
  'x, y, z'

loop_
  _atom_site_type_symbol
  _atom_site_label
  _atom_site_symmetry_multiplicity
  _atom_site_fract_x
  _atom_site_fract_y
  _atom_site_fract_z
  _atom_site_occupancy
  Cu  Cu1       1.0  0.5897564055446125  0.2983129642405443  0.10498988743952253  1.0000
  Cu  Cu2       1.0  0.4102476751334478  0.7016925864669474  0.8950117619473589  1.0000
  Mo  Mo1       1.0  0.7460267328387856  0.7621222362723331  0.0916487355619822  1.0000
  Mo  Mo2       1.0  0.2539785346255456  0.2378801077229014  0.9083505748586164  1.0000
  H   H1        1.0  0.012796984549460395  0.0679554743735977  0.26806034082522257  1.0000
  H   H2        1.0  0.9872121632901383  0.9320565170023445  0.7319378048730059  1.0000
  H   H3        1.0  0.23983629386714964  0.4325498461528666  0.32014551851916917  1.0000
  H   H4        1.0  0.7601571978437178  0.5674541391339716  0.6798472177815925  1.0000
  H   H5        1.0  0.25173415788758285  0.35552814699837404  0.5648321056657083  1.0000
  H   H6        1.0  0.7482567246879979  0.6444677845815574  0.435165108837886  1.0000
  H   H7        1.0  0.6548506350413703  0.12065759061542992  0.6600839674969308  1.0000
  H   H8        1.0  0.3451413567883748  0.8793303082099232  0.3399117724421643  1.0000
  C   C1        1.0  0.8519670484379136  0.12398124664273517  0.3397893676987709  1.0000
  C   C2        1.0  0.14803389883903847  0.876022710910334  0.6602091516562184  1.0000
  C   C3        1.0  0.41520695454786244  0.3316714252694696  0.36777706655888664  1.0000
  C   C4        1.0  0.5847968885898636  0.6683196656369645  0.6322225211415359  1.0000
  C   C5        1.0  0.8758981610147528  0.0712799801444675  0.4739040885962781  1.0000
  C   C6        1.0  0.12410069051594515  0.9287095034661946  0.5260962764342807  1.0000
  C   C7        1.0  0.4232106780922891  0.2885133880405562  0.5015450771914518  1.0000
  C   C8        1.0  0.5767857173897468  0.7114777012782056  0.4984561752816462  1.0000
  C   C9        1.0  0.6530802465585309  0.15756816064457274  0.5547857749565638  1.0000
  C   C10       1.0  0.3469148836163213  0.8424213130093108  0.44521774990624163  1.0000
  N   N1        1.0  0.6275294158289809  0.2481538139490667  0.2901194772476146  1.0000
  N   N2        1.0  0.37246781108093063  0.7518501299820316  0.7098831329179802  1.0000
  O   O1        1.0  0.546143193199832  0.019587962594400196  0.12400484099960357  1.0000
  O   O2        1.0  0.45386081093491976  0.9804127584055919  0.875998603767421  1.0000
  O   O3        1.0  0.5353742782614928  0.6108690092610943  0.06952680125890247  1.0000
  O   O4        1.0  0.46462369957777844  0.38914297423556127  0.9304752380658813  1.0000
  O   O5        1.0  0.9864125874675905  0.7862856298489405  0.9600169353898881  1.0000
  O   O6        1.0  0.013585983270416994  0.213724752124179  0.039983468962582  1.0000
  O   O7        1.0  0.9019950109188669  0.6133615944733606  0.22938494916277105  1.0000
  O   O8        1.0  0.09801346451228447  0.38664717971416007  0.7706138339528437  1.0000
