data_image0
_chemical_formula_structural       Ca2H24C16N4O12
_chemical_formula_sum              "Ca2 H24 C16 N4 O12"
_cell_length_a       8.017826106846268
_cell_length_b       8.01783052649425
_cell_length_c       9.815675237604749
_cell_angle_alpha    74.03296790154758
_cell_angle_beta     74.03299220946055
_cell_angle_gamma    62.08381268452104

_space_group_name_H-M_alt    "P 1"
_space_group_IT_number       1

loop_
  _space_group_symop_operation_xyz
  'x, y, z'

loop_
  _atom_site_type_symbol
  _atom_site_label
  _atom_site_symmetry_multiplicity
  _atom_site_fract_x
  _atom_site_fract_y
  _atom_site_fract_z
  _atom_site_occupancy
  Ca  Ca1       1.0  0.6172778886440323  0.38272267948296707  0.24999990254680432  1.0000
  Ca  Ca2       1.0  0.38272246516380176  0.6172770477942395  0.7500003290350961  1.0000
  H   H1        1.0  0.3274574957069872  0.013963819707626599  0.10865971119104502  1.0000
  H   H2        1.0  0.9860367062668586  0.6725431288480763  0.39134010886138526  1.0000
  H   H3        1.0  0.6725435274929621  0.9860373550160518  0.8913410634404927  1.0000
  H   H4        1.0  0.013961734849573297  0.32745801658062124  0.6086592150822129  1.0000
  H   H5        1.0  0.171687240698567  0.9196336496494911  0.10801909912463971  1.0000
  H   H6        1.0  0.0803647959265135  0.8283126360709545  0.39198213101770557  1.0000
  H   H7        1.0  0.8283131131937648  0.0803660777109059  0.8919831699767967  1.0000
  H   H8        1.0  0.9196336452321672  0.17168850939934538  0.6080182116856605  1.0000
  H   H9        1.0  0.2832928529527691  0.2022305014491153  0.8620007082281305  1.0000
  H   H10       1.0  0.797768637739196  0.7167066248056388  0.6379990956101053  1.0000
  H   H11       1.0  0.7167062098555516  0.797769211222203  0.13799981676957174  1.0000
  H   H12       1.0  0.202231094418991  0.2832945352705494  0.362000953677466  1.0000
  H   H13       1.0  0.17216191960668678  0.06977971236331372  0.8376146666820077  1.0000
  H   H14       1.0  0.9302202339596018  0.8278371423511145  0.6623850541163067  1.0000
  H   H15       1.0  0.827839055893044  0.9302185821565062  0.16238676595398965  1.0000
  H   H16       1.0  0.06978141080549696  0.1721625994903846  0.3376138652900238  1.0000
  H   H17       1.0  0.7899279454368865  0.541792736344739  0.9097301943789945  1.0000
  H   H18       1.0  0.458207080109183  0.21007318135414008  0.5902701438863289  1.0000
  H   H19       1.0  0.2100743211045993  0.45820557282257107  0.09027196360096927  1.0000
  H   H20       1.0  0.541792652006755  0.7899279786804455  0.40972888664147433  1.0000
  H   H21       1.0  0.014663279855803103  0.4775369296640121  0.7926912331597435  1.0000
  H   H22       1.0  0.5224627859867609  0.9853370442338802  0.7073081257435588  1.0000
  H   H23       1.0  0.98533707399428  0.5224627976547892  0.20731001718192502  1.0000
  H   H24       1.0  0.4775375677788175  0.014662683001731102  0.2926910870785733  1.0000
  C   C1        1.0  0.4470418729143189  0.7898387716520574  0.9860234609220058  1.0000
  C   C2        1.0  0.21016120730866558  0.5529582702161092  0.5139759071089287  1.0000
  C   C3        1.0  0.5529584809357572  0.21016095566674411  0.013977789419662785  1.0000
  C   C4        1.0  0.7898391464146641  0.44704145697789954  0.4860222869534212  1.0000
  C   C5        1.0  0.27972384090055136  0.9670025464042596  0.03722684650320932  1.0000
  C   C6        1.0  0.03299714242281473  0.7202760000743993  0.462774126243076  1.0000
  C   C7        1.0  0.7202765129917806  0.03299718095614419  0.9627754225982271  1.0000
  C   C8        1.0  0.9670012986936097  0.2797251453542983  0.5372251977005219  1.0000
  C   C9        1.0  0.19079621890834628  0.1289037927961658  0.9184649702256067  1.0000
  C   C10       1.0  0.8710955484130808  0.8092037934682635  0.5815346636517802  1.0000
  C   C11       1.0  0.8092060475908909  0.8710945163295422  0.08153616899459584  1.0000
  C   C12       1.0  0.12890351435299147  0.1907959191614523  0.41846484258614686  1.0000
  C   C13       1.0  0.9946343482915339  0.2763738696730513  0.9714129653690051  1.0000
  C   C14       1.0  0.7236248729166375  0.005368222318239199  0.5285843416138647  1.0000
  C   C15       1.0  0.005366627165940743  0.7236244248051735  0.028587448507217086  1.0000
  C   C16       1.0  0.2763748591570515  0.9946329376747515  0.4714136701541705  1.0000
  N   N1        1.0  0.9267033165347556  0.4429514170909528  0.8820836357074311  1.0000
  N   N2        1.0  0.557047691931757  0.07329659979232872  0.6179161690238715  1.0000
  N   N3        1.0  0.07329703731532082  0.5570483102278487  0.1179176146342371  1.0000
  N   N4        1.0  0.4429513708343151  0.9267031128373872  0.38208333721405563  1.0000
  O   O1        1.0  0.49356398885467456  0.7792761877869835  0.851824421325624  1.0000
  O   O2        1.0  0.22072293171934382  0.5064366116983905  0.648176068972198  1.0000
  O   O3        1.0  0.5064350739959025  0.2207235249259298  0.14817712243184636  1.0000
  O   O4        1.0  0.7792768003965949  0.4935645483361951  0.3518229615555981  1.0000
  O   O5        1.0  0.5349297926860002  0.6566527466347195  0.08050294945414303  1.0000
  O   O6        1.0  0.3433476150721972  0.46507115365091783  0.4194977538161239  1.0000
  O   O7        1.0  0.465070561164083  0.34334698068408187  0.9194983008875256  1.0000
  O   O8        1.0  0.656652117043741  0.534930006383668  0.5805012767116794  1.0000
  O   O9        1.0  0.8989734223831574  0.2388890152735428  0.09099776789754088  1.0000
  O   O10       1.0  0.7611091864010504  0.1010278207611321  0.4090025152534906  1.0000
  O   O11       1.0  0.10102626211705966  0.761109264640389  0.9090039581542514  1.0000
  O   O12       1.0  0.23888925475762332  0.8989733247091607  0.5909978274498826  1.0000
