data_image0
_chemical_formula_structural       La4H24C28N4O24
_chemical_formula_sum              "La4 H24 C28 N4 O24"
_cell_length_a       5.048647339470035
_cell_length_b       7.9826779030056905
_cell_length_c       21.629853906414567
_cell_angle_alpha    90.00013498564299
_cell_angle_beta     90.65557508603972
_cell_angle_gamma    90.00002252534414

_space_group_name_H-M_alt    "P 1"
_space_group_IT_number       1

loop_
  _space_group_symop_operation_xyz
  'x, y, z'

loop_
  _atom_site_type_symbol
  _atom_site_label
  _atom_site_symmetry_multiplicity
  _atom_site_fract_x
  _atom_site_fract_y
  _atom_site_fract_z
  _atom_site_occupancy
  La  La1       1.0  0.0007711224800316977  0.6789651439052165  0.784690551264582  1.0000
  La  La2       1.0  0.9992339407790919  0.17896866969653757  0.7153122022825118  1.0000
  La  La3       1.0  0.9992333684776966  0.3210371882786232  0.21531211360579056  1.0000
  La  La4       1.0  0.0007705501790695973  0.8210349151997602  0.2846904625884009  1.0000
  H   H1        1.0  0.12065676656497  0.5475548312093963  0.5375305418558798  1.0000
  H   H2        1.0  0.879346410810804  0.04755114121001469  0.9624683890044284  1.0000
  H   H3        1.0  0.8793439700984464  0.45245000638551147  0.4624679416102568  1.0000
  H   H4        1.0  0.1206582642823903  0.9524474328246625  0.037530578013978314  1.0000
  H   H5        1.0  0.4085412741598873  0.6103122917521162  0.6281242556754096  1.0000
  H   H6        1.0  0.5914579613948946  0.11031296281598908  0.8718751706191132  1.0000
  H   H7        1.0  0.591457435743145  0.3896875349956658  0.37187514158927837  1.0000
  H   H8        1.0  0.40854869442279806  0.889685611218958  0.12812380706115084  1.0000
  H   H9        1.0  0.8775353661741504  0.9215320893695134  0.5086592512937927  1.0000
  H   H10       1.0  0.12246601554333843  0.42152965335573356  0.9913413805167509  1.0000
  H   H11       1.0  0.12246719009326772  0.07847024281110748  0.4913424784521468  1.0000
  H   H12       1.0  0.8775347211179536  0.5784689206769187  0.008657102946664  1.0000
  H   H13       1.0  0.577106735912686  0.8373169245737768  0.42082669468054945  1.0000
  H   H14       1.0  0.42289730889152816  0.33731442820661767  0.07917358450119852  1.0000
  H   H15       1.0  0.42290183157992806  0.16268666031567844  0.5791736803576129  1.0000
  H   H16       1.0  0.5771033817364284  0.6626866512538923  0.9208258234258937  1.0000
  H   H17       1.0  0.15381616804064174  0.850064801242631  0.9140616624769751  1.0000
  H   H18       1.0  0.8461892186331639  0.3500649562630115  0.585937079641262  1.0000
  H   H19       1.0  0.8461845225868885  0.149935025505421  0.08593774544957002  1.0000
  H   H20       1.0  0.1538174371858005  0.649937375909289  0.41406189804062893  1.0000
  H   H21       1.0  0.07554575066573929  0.9889152731517327  0.8619990326282622  1.0000
  H   H22       1.0  0.9244517614243007  0.48891452774221716  0.6380007119403645  1.0000
  H   H23       1.0  0.924448974770776  0.011083300884521896  0.1380008055434772  1.0000
  H   H24       1.0  0.07554692546206351  0.5110865517194938  0.3619991475561619  1.0000
  C   C1        1.0  0.28991458125211267  0.6307775344458406  0.5324550844751103  1.0000
  C   C2        1.0  0.7100865798813629  0.13077634132032756  0.96754575695487  1.0000
  C   C3        1.0  0.7100880440670068  0.36922605044279777  0.4675452585775021  1.0000
  C   C4        1.0  0.2899180491772242  0.869220980004847  0.03245413452557241  1.0000
  C   C5        1.0  0.45167351041471443  0.6653788874724353  0.5833175083148988  1.0000
  C   C6        1.0  0.5483218241255159  0.16537858220793566  0.916681482266981  1.0000
  C   C7        1.0  0.5483192573156757  0.3346234446994244  0.4166818569653331  1.0000
  C   C8        1.0  0.4516808702440329  0.8346224972513666  0.0833174740906628  1.0000
  C   C9        1.0  0.6666917743139891  0.7731910796975893  0.5753499140718008  1.0000
  C   C10       1.0  0.3333075028646846  0.2731895205875077  0.9246510404274279  1.0000
  C   C11       1.0  0.3333068665386207  0.22681125247952846  0.4246508698878488  1.0000
  C   C12       1.0  0.6666991989854836  0.7268040425946863  0.0753470127880789  1.0000
  C   C13       1.0  0.7121344051552327  0.8377055877742448  0.5164135490734412  1.0000
  C   C14       1.0  0.2878629581528358  0.3377018895191738  0.9835869885829925  1.0000
  C   C15       1.0  0.2878642126807094  0.16229799711679496  0.4835876971180469  1.0000
  C   C16       1.0  0.712135774766864  0.6622966845146789  0.016411946449864007  1.0000
  C   C17       1.0  0.5448924138838079  0.7925238317872213  0.46775801845262804  1.0000
  C   C18       1.0  0.4551095737247691  0.29252104278754837  0.0322431356127382  1.0000
  C   C19       1.0  0.4551141268501268  0.20747975310491995  0.5322432703862675  1.0000
  C   C20       1.0  0.5448931206435006  0.7074762785344075  0.9677558207432784  1.0000
  C   C21       1.0  0.8427732811298796  0.819793429414048  0.6292346412722268  1.0000
  C   C22       1.0  0.15722803145563796  0.3197889772112319  0.8707659021451949  1.0000
  C   C23       1.0  0.1572253597227231  0.18020890276306997  0.3707661426874226  1.0000
  C   C24       1.0  0.8427726591706205  0.6802070913994737  0.12923350577970896  1.0000
  C   C25       1.0  0.496257168778584  0.3778743322407009  0.7279943555244375  1.0000
  C   C26       1.0  0.5037382641193203  0.8778783635095379  0.772005744141481  1.0000
  C   C27       1.0  0.5037395603982516  0.6221204836570067  0.27200503107622614  1.0000
  C   C28       1.0  0.4962564383005343  0.12212146324064577  0.2279945562620895  1.0000
  N   N1        1.0  0.3344496261524341  0.6923005722228337  0.4757502448685145  1.0000
  N   N2        1.0  0.6655523393883271  0.1922965303800054  0.024249897658087608  1.0000
  N   N3        1.0  0.6655530221846249  0.3077055180892215  0.5242496359538863  1.0000
  N   N4        1.0  0.3344502859295204  0.8077032963712796  0.9757504453928904  1.0000
  O   O1        1.0  0.8906459226871206  0.704842162052955  0.6688313093659632  1.0000
  O   O2        1.0  0.10934533911743216  0.20484370831240983  0.8311704675671125  1.0000
  O   O3        1.0  0.10934274549087057  0.29515766470231597  0.33117080797721604  1.0000
  O   O4        1.0  0.8906513670418832  0.7951498548743174  0.16882938126429545  1.0000
  O   O5        1.0  0.9275700646925386  0.9691480883331423  0.6313237264867768  1.0000
  O   O6        1.0  0.0724333301054685  0.4691486130414474  0.8686769573564775  1.0000
  O   O7        1.0  0.07243253760778859  0.030850485707169594  0.3686770787949457  1.0000
  O   O8        1.0  0.9275693872790426  0.5308462028541213  0.13132153676716035  1.0000
  O   O9        1.0  0.7192691046768189  0.4282247053350614  0.751273654052426  1.0000
  O   O10       1.0  0.2807243586924315  0.9282285334884006  0.7487269409280941  1.0000
  O   O11       1.0  0.28072760148207004  0.5717676051392144  0.24872619477844182  1.0000
  O   O12       1.0  0.7192684320533544  0.07176878783217688  0.2512719621186649  1.0000
  O   O13       1.0  0.27363081200211775  0.4550126043225901  0.7356464379214602  1.0000
  O   O14       1.0  0.72636255448451  0.9550178933176026  0.7643564914899201  1.0000
  O   O15       1.0  0.7263657790721608  0.544982211583978  0.2643557220669521  1.0000
  O   O16       1.0  0.2736280714025909  0.04498694428922789  0.23564609874858186  1.0000
  O   O17       1.0  0.49340182046805137  0.23828197811827315  0.6967671760612647  1.0000
  O   O18       1.0  0.506589579143487  0.7382811991394646  0.803232318767414  1.0000
  O   O19       1.0  0.5065910163123418  0.7617165959118066  0.3032308025234586  1.0000
  O   O20       1.0  0.4934031425514435  0.2617173748979979  0.19676797097375953  1.0000
  O   O21       1.0  0.03585880580079959  0.8739300908088622  0.8762506002564268  1.0000
  O   O22       1.0  0.9641445933479387  0.37393051649932824  0.6237486141659333  1.0000
  O   O23       1.0  0.9641398810851385  0.1260697359403977  0.12374925923955973  1.0000
  O   O24       1.0  0.035862062471025496  0.6260718156729793  0.37625036351596475  1.0000
