data_image0
_chemical_formula_structural       Zn4Fe4H76C100N12Cl8
_chemical_formula_sum              "Zn4 Fe4 H76 C100 N12 Cl8"
_cell_length_a       8.550604198076147
_cell_length_b       16.69112255250967
_cell_length_c       17.774971618149667
_cell_angle_alpha    77.05924653436378
_cell_angle_beta     84.14272305241563
_cell_angle_gamma    85.70264177651043

_space_group_name_H-M_alt    "P 1"
_space_group_IT_number       1

loop_
  _space_group_symop_operation_xyz
  'x, y, z'

loop_
  _atom_site_type_symbol
  _atom_site_label
  _atom_site_symmetry_multiplicity
  _atom_site_fract_x
  _atom_site_fract_y
  _atom_site_fract_z
  _atom_site_occupancy
  Zn  Zn1       1.0  0.6733549543164871  0.5544798045766086  0.6121793395499255  1.0000
  Zn  Zn2       1.0  0.3266432551339805  0.4455198459036466  0.38782164077404974  1.0000
  Zn  Zn3       1.0  0.594125758649554  0.2840276604156813  0.9790047206416975  1.0000
  Zn  Zn4       1.0  0.40587583200394306  0.7159732244710284  0.020995250605373886  1.0000
  Fe  Fe1       1.0  0.5931165067048667  0.10795455180340238  0.6488961499351762  1.0000
  Fe  Fe2       1.0  0.4068864225543791  0.8920444746434625  0.3511019007067376  1.0000
  Fe  Fe3       1.0  0.014885078691733616  0.8625768229985907  0.6962212379550226  1.0000
  Fe  Fe4       1.0  0.9851144215093941  0.13742159156488748  0.30377881517982536  1.0000
  H   H1        1.0  0.8671304302256717  0.21514304755971378  0.06845404271601305  1.0000
  H   H2        1.0  0.13287696972977872  0.7848584640120391  0.9315454839751287  1.0000
  H   H3        1.0  0.24424749169225643  0.1091872351376537  0.8032963503056225  1.0000
  H   H4        1.0  0.7557484824101125  0.8908111727801611  0.19670389199373528  1.0000
  H   H5        1.0  0.7757171167874548  0.6059813779283304  0.022855919384646504  1.0000
  H   H6        1.0  0.22428312542318457  0.3940213619411494  0.9771454111186842  1.0000
  H   H7        1.0  0.21746580770522428  0.6785645556446624  0.7353021636569042  1.0000
  H   H8        1.0  0.7825239899373175  0.32143629326154155  0.26469619274295303  1.0000
  H   H9        1.0  0.4187517563570609  0.5994820097965174  0.7194026573188241  1.0000
  H   H10       1.0  0.5812427722618166  0.4005188583417834  0.2805971309083617  1.0000
  H   H11       1.0  0.5915181119980062  0.5221941499536555  0.11989260980217863  1.0000
  H   H12       1.0  0.40847727401478556  0.4778098053586461  0.8801075916592044  1.0000
  H   H13       1.0  0.412135402486392  0.011010573500620102  0.7712332616458968  1.0000
  H   H14       1.0  0.5878648974164521  0.9889915473028593  0.2287676367902876  1.0000
  H   H15       1.0  0.5171274229962466  0.3938872588619375  0.6256734021886602  1.0000
  H   H16       1.0  0.4828719716575878  0.606112397290609  0.37432807642936444  1.0000
  H   H17       1.0  0.0626668458923945  0.2978372620329992  0.4871327015224482  1.0000
  H   H18       1.0  0.9373450050850423  0.7021667277495  0.5128671785201321  1.0000
  H   H19       1.0  0.08617678191694719  0.4080302332560349  0.7725380747867094  1.0000
  H   H20       1.0  0.913823972347302  0.5919682111792212  0.22746640608444582  1.0000
  H   H21       1.0  0.6162361996471902  0.2704455178615106  0.5643622148399532  1.0000
  H   H22       1.0  0.38376923374694627  0.7295516489036729  0.43563329079307794  1.0000
  H   H23       1.0  0.8206606033439527  0.6836140855599595  0.9033400524071171  1.0000
  H   H24       1.0  0.1793329623337101  0.31638493699340836  0.09666074806905561  1.0000
  H   H25       1.0  0.19630525625759535  0.2199085398052674  0.562836412087478  1.0000
  H   H26       1.0  0.8037020663314324  0.7800935839183437  0.43716242397302113  1.0000
  H   H27       1.0  0.7852289554576332  0.25433172342779636  0.8366822952437123  1.0000
  H   H28       1.0  0.2147712572416793  0.7456710060704737  0.16331735121293886  1.0000
  H   H29       1.0  0.7499401722792245  0.515141562296961  0.4584627439562683  1.0000
  H   H30       1.0  0.25006251770456345  0.48486057676525  0.5415402737658186  1.0000
  H   H31       1.0  0.9224652023002875  0.41109219984854656  0.40012942514649563  1.0000
  H   H32       1.0  0.0775442599266611  0.5889124114836405  0.5998721357706815  1.0000
  H   H33       1.0  0.27325436924553503  0.3294000743166663  0.6926372849000659  1.0000
  H   H34       1.0  0.726747560384972  0.6705983723338135  0.30736713291624806  1.0000
  H   H35       1.0  0.8071271769256898  0.415214723686411  0.892528212093595  1.0000
  H   H36       1.0  0.1928687113036105  0.5847849327346067  0.10747457838672153  1.0000
  H   H37       1.0  0.8583213043185651  0.39901538047991647  0.6802573956604476  1.0000
  H   H38       1.0  0.1416805184341925  0.600983667951219  0.3197446474785508  1.0000
  H   H39       1.0  0.2844042803257382  0.8138289880968869  0.6098843036477322  1.0000
  H   H40       1.0  0.7155959126993566  0.18617373448724808  0.39011422011113706  1.0000
  H   H41       1.0  0.2549514780735223  0.17734426685252908  0.9027841880634428  1.0000
  H   H42       1.0  0.7450489555574862  0.8226559829246797  0.09721316877575249  1.0000
  H   H43       1.0  0.5292068148128025  0.3822156002292374  0.1015859407874586  1.0000
  H   H44       1.0  0.47078247210658464  0.6177901839195954  0.8984130654050732  1.0000
  H   H45       1.0  0.7548052308977944  0.8139624241337414  0.8053342264551309  1.0000
  H   H46       1.0  0.24519417359314843  0.18603723547587234  0.19466781351178508  1.0000
  H   H47       1.0  0.022463407064058992  0.7240588471235867  0.6330907605338612  1.0000
  H   H48       1.0  0.9775396487471468  0.2759395844567721  0.3669107874831569  1.0000
  H   H49       1.0  0.27114128438779533  0.8150642069952241  0.7869028511946895  1.0000
  H   H50       1.0  0.7288593236502763  0.18493482539241063  0.21309700960357258  1.0000
  H   H51       1.0  0.6245997301946318  0.934674919151625  0.6853970427021282  1.0000
  H   H52       1.0  0.37540085949967067  0.06532474613027972  0.3146054955588441  1.0000
  H   H53       1.0  0.15323214571836266  0.17685839921809077  0.03998517430675721  1.0000
  H   H54       1.0  0.8467719589071336  0.8231406294439978  0.9600128132803225  1.0000
  H   H55       1.0  0.8689777059811947  0.9852402085786948  0.5846677602011071  1.0000
  H   H56       1.0  0.13101387479139256  0.014755102062373699  0.4153316966796653  1.0000
  H   H57       1.0  0.8464980699949152  0.15702875002421024  0.5387205251030809  1.0000
  H   H58       1.0  0.15350646798732012  0.8429659555471075  0.4612761220606814  1.0000
  H   H59       1.0  0.6164059272303889  0.0142035395900706  0.5346335261921666  1.0000
  H   H60       1.0  0.38359149235547096  0.9857924081072511  0.46536717017935575  1.0000
  H   H61       1.0  0.9088991217885296  0.05981563578374249  0.6766631062444974  1.0000
  H   H62       1.0  0.0911028445295017  0.9401815450781897  0.32333595664639614  1.0000
  H   H63       1.0  0.8342675212153665  0.9718805730290186  0.7765117570155766  1.0000
  H   H64       1.0  0.16573186360135855  0.028119079666460302  0.2234891602535569  1.0000
  H   H65       1.0  0.7163408410783418  0.1133752991784931  0.7891146747566113  1.0000
  H   H66       1.0  0.2836618757558611  0.8866255706380956  0.21088242669116405  1.0000
  H   H67       1.0  0.18687079263633422  0.9752068844407872  0.5829525979348491  1.0000
  H   H68       1.0  0.8131187827440557  0.024795804378058495  0.4170442479219716  1.0000
  H   H69       1.0  0.15403131185447455  0.9731867671239555  0.763531624469053  1.0000
  H   H70       1.0  0.8459668484104484  0.026812866070947905  0.23646654911045328  1.0000
  H   H71       1.0  0.537103077257335  0.2431710667273776  0.720299355648429  1.0000
  H   H72       1.0  0.46290326138581156  0.7568285646887458  0.27969556980276883  1.0000
  H   H73       1.0  0.7690810282563022  0.8289246216560072  0.6155645336989936  1.0000
  H   H74       1.0  0.23091645885887155  0.1710707104323888  0.3844362919542804  1.0000
  H   H75       1.0  0.3993624063988364  0.14088050214282077  0.5271954445604907  1.0000
  H   H76       1.0  0.6006385097744557  0.8591154418289619  0.4728033785998492  1.0000
  C   C1        1.0  0.35677392614271514  0.09581712687521103  0.6569828844896366  1.0000
  C   C2        1.0  0.6432277897322934  0.9041825233365727  0.3430167839720398  1.0000
  C   C3        1.0  0.07635932083153563  0.21231534979687436  0.7769165199230559  1.0000
  C   C4        1.0  0.9236389463111365  0.7876836816173806  0.22308402833377278  1.0000
  C   C5        1.0  0.9169913619632625  0.21412978229131596  0.00977708358567499  1.0000
  C   C6        1.0  0.0830126469520565  0.7858704914169151  0.9902228908334724  1.0000
  C   C7        1.0  0.04808992331258109  0.2714459222775929  0.6482714205228606  1.0000
  C   C8        1.0  0.9519163786430409  0.7285549749270783  0.35172885985375774  1.0000
  C   C9        1.0  0.9701854083446194  0.33776877668526595  0.5919816075094461  1.0000
  C   C10       1.0  0.029819457964613594  0.6622345841969661  0.4080187801438981  1.0000
  C   C11       1.0  0.9185965903877716  0.5637948024606344  0.8885322576145784  1.0000
  C   C12       1.0  0.0814003761671387  0.4362054614133227  0.11146865648247234  1.0000
  C   C13       1.0  0.12663811971838612  0.5611040333002748  0.7955801392416864  1.0000
  C   C14       1.0  0.8733589143658379  0.4388956149647569  0.2044209041371161  1.0000
  C   C15       1.0  0.808336473249355  0.5169017760342809  0.9492400371164539  1.0000
  C   C16       1.0  0.19165806520662435  0.4830990955610872  0.0507603124596301  1.0000
  C   C17       1.0  0.19159031811891236  0.1546977038297612  0.7576358917022434  1.0000
  C   C18       1.0  0.8084079195124333  0.845301317213284  0.24236297250791247  1.0000
  C   C19       1.0  0.0265424496988302  0.2126071515047983  0.858934630583633  1.0000
  C   C20       1.0  0.9734592268277428  0.7873924848787083  0.14106279248247233  1.0000
  C   C21       1.0  0.022020363852412593  0.6929292261922554  0.8184200325066585  1.0000
  C   C22       1.0  0.9779766223767157  0.3070710445958439  0.18158200428817392  1.0000
  C   C23       1.0  0.7447210759446465  0.546661562644708  0.014260759298053904  1.0000
  C   C24       1.0  0.2552756880223301  0.45334054805603324  0.9857397669537494  1.0000
  C   C25       1.0  0.13347251940192006  0.6467327819150623  0.7801937162744325  1.0000
  C   C26       1.0  0.8665233393160464  0.3532668641347385  0.21980739015921105  1.0000
  C   C27       1.0  0.3774901859904888  0.5409615702268269  0.7138679980888798  1.0000
  C   C28       1.0  0.6225054603024418  0.4590399191926977  0.28613215915061124  1.0000
  C   C29       1.0  0.6425101731866009  0.4992160373462225  0.06962831480574752  1.0000
  C   C30       1.0  0.35748417251856063  0.5007866845330041  0.9303722082739799  1.0000
  C   C31       1.0  0.23762043914550904  0.1555845746237878  0.6793772810200311  1.0000
  C   C32       1.0  0.7623836176248985  0.8444150765613685  0.3206216999830788  1.0000
  C   C33       1.0  0.43376520372782323  0.028104163679792297  0.7085644463127283  1.0000
  C   C34       1.0  0.5662363967627827  0.9718967246639848  0.2914360862832268  1.0000
  C   C35       1.0  0.01571644272367932  0.7829816526531984  0.8012254326080498  1.0000
  C   C36       1.0  0.9842829322559369  0.21701799658521279  0.1987749233121933  1.0000
  C   C37       1.0  0.4363659239219261  0.42492497408704816  0.6627358595767563  1.0000
  C   C38       1.0  0.5636311396736178  0.5750746845491932  0.33726686784872584  1.0000
  C   C39       1.0  0.23409215942201908  0.5115286713799847  0.7509043247981639  1.0000
  C   C40       1.0  0.7659059923362506  0.4884715981662636  0.24909708759295066  1.0000
  C   C41       1.0  0.9877679812543861  0.3428490047587331  0.5117522575354416  1.0000
  C   C42       1.0  0.012238002728899697  0.6571549774047227  0.488248499130208  1.0000
  C   C43       1.0  0.19591425727814032  0.4333985250424561  0.7436938386711207  1.0000
  C   C44       1.0  0.8040839816836611  0.566601135809009  0.2563088256995202  1.0000
  C   C45       1.0  0.6698479708734624  0.2237980565113986  0.6086576870140592  1.0000
  C   C46       1.0  0.33015740482846917  0.7761997293197851  0.39133825068611844  1.0000
  C   C47       1.0  0.9121762162757819  0.6499297196461455  0.8737045707634795  1.0000
  C   C48       1.0  0.08781949754645525  0.3500711541644462  0.12629571575777027  1.0000
  C   C49       1.0  0.16285309102330098  0.2158397032376698  0.6241621693843771  1.0000
  C   C50       1.0  0.837154366624347  0.784161189268083  0.3758369252396182  1.0000
  C   C51       1.0  0.8703545508220005  0.23556644450388117  0.8799526666968804  1.0000
  C   C52       1.0  0.12964709752370138  0.7644338213168352  0.12004687248304446  1.0000
  C   C53       1.0  0.8139145680118033  0.4638660594651681  0.49393743502928816  1.0000
  C   C54       1.0  0.18608832455991123  0.5361342327702514  0.506065970538046  1.0000
  C   C55       1.0  0.9081914701452973  0.4059531021883274  0.46259097589575077  1.0000
  C   C56       1.0  0.09181348336746001  0.594049649999114  0.5374106637371272  1.0000
  C   C57       1.0  0.29871414173445743  0.3899356308903847  0.6995921175758826  1.0000
  C   C58       1.0  0.7012853597971189  0.6100634234815131  0.3004117357194644  1.0000
  C   C59       1.0  0.7632707207307805  0.43991255646101723  0.9429590420792099  1.0000
  C   C60       1.0  0.23672382756231516  0.5600883185914184  0.057041868845765016  1.0000
  C   C61       1.0  0.8742811406057953  0.3993459427885496  0.618585886009072  1.0000
  C   C62       1.0  0.1257228499657543  0.6006549638139591  0.38141676587278556  1.0000
  C   C63       1.0  0.16316101713726988  0.8380983228965208  0.6063923069952254  1.0000
  C   C64       1.0  0.8368382608017058  0.1619019315795995  0.3936062355965861  1.0000
  C   C65       1.0  0.13040619213583687  0.19128999663034554  0.9172949121793724  1.0000
  C   C66       1.0  0.8695955617571587  0.8087090276013028  0.08270320151737562  1.0000
  C   C67       1.0  0.6066191550029176  0.42272539542533133  0.059692843315993095  1.0000
  C   C68       1.0  0.3933715872370698  0.5772779319600828  0.9403071782975945  1.0000
  C   C69       1.0  0.8736250795572217  0.8350990902482636  0.7979493910115995  1.0000
  C   C70       1.0  0.12637542293354906  0.1649011837284391  0.2020518952698397  1.0000
  C   C71       1.0  0.02608032655207639  0.7906693256288263  0.6172259717999041  1.0000
  C   C72       1.0  0.9739215047073346  0.209329086450964  0.38277283252748623  1.0000
  C   C73       1.0  0.14739682489707917  0.8355805324559284  0.7870237187876938  1.0000
  C   C74       1.0  0.8526013648791776  0.1644191111101847  0.21297613883849212  1.0000
  C   C75       1.0  0.5460749090313187  0.9868693280113447  0.6629820623056306  1.0000
  C   C76       1.0  0.4539258537395838  0.013128480072573702  0.3370191797539165  1.0000
  C   C77       1.0  0.0748225481020768  0.19205387007771435  0.9936072784309575  1.0000
  C   C78       1.0  0.9251815761976377  0.8079451654985164  0.006391831853910904  1.0000
  C   C79       1.0  0.9432058058894912  0.928866170221049  0.5928125295345981  1.0000
  C   C80       1.0  0.05678551460296431  0.0711316063128038  0.4071869715680665  1.0000
  C   C81       1.0  0.7912931511181186  0.16344734003698141  0.5950035218714407  1.0000
  C   C82       1.0  0.20871236947954236  0.8365492180334114  0.4049932357411239  1.0000
  C   C83       1.0  0.5419475397895184  0.028903422503106003  0.5834392371847346  1.0000
  C   C84       1.0  0.4580522502030675  0.9710925365388049  0.4165624557749014  1.0000
  C   C85       1.0  0.8239015384289987  0.11191350188927629  0.6682165729332825  1.0000
  C   C86       1.0  0.1761027491102071  0.8880836730318931  0.3317806798012627  1.0000
  C   C87       1.0  0.9165264315365177  0.9185846359873295  0.7830081373634243  1.0000
  C   C88       1.0  0.083475168954088  0.0814162523564477  0.21699239523253777  1.0000
  C   C89       1.0  0.7224243461853845  0.14014615959681007  0.7273176299222899  1.0000
  C   C90       1.0  0.27757967123658744  0.8598534777600759  0.27267910568525633  1.0000
  C   C91       1.0  0.11166552631658533  0.9236502103885441  0.5914797201798623  1.0000
  C   C92       1.0  0.8883268246463841  0.07634879612131577  0.40851889795558105  1.0000
  C   C93       1.0  0.08495185744710199  0.9190763026457988  0.7765867429028933  1.0000
  C   C94       1.0  0.9150473627996689  0.0809245708963289  0.22341223175605762  1.0000
  C   C95       1.0  0.6276232110781663  0.20940912737521697  0.6905383886963252  1.0000
  C   C96       1.0  0.37238313740208895  0.7905905074979742  0.3094570981037633  1.0000
  C   C97       1.0  0.8902865797906401  0.8466902323074805  0.6087662480443046  1.0000
  C   C98       1.0  0.10971186042863931  0.15330694190878089  0.3912330040110988  1.0000
  C   C99       1.0  0.4261957601463067  0.09592714220021749  0.5793321827555575  1.0000
  C   C100      1.0  0.5738038652763323  0.904070037688335  0.42066756759390245  1.0000
  N   N1        1.0  0.0043326603435644975  0.2693811700982067  0.7236487538058685  1.0000
  N   N2        1.0  0.9956678126358868  0.7306190935072792  0.2763508484288907  1.0000
  N   N3        1.0  0.021715141632142818  0.5199046060926307  0.8492819777252337  1.0000
  N   N4        1.0  0.9782806593936261  0.4800956590231706  0.1507195607755492  1.0000
  N   N5        1.0  0.4750415850216996  0.49914823309590156  0.6703006601551424  1.0000
  N   N6        1.0  0.5249541386376466  0.5008526441717648  0.3297001877149982  1.0000
  N   N7        1.0  0.6653095157190378  0.3941972124537613  0.9967124877239191  1.0000
  N   N8        1.0  0.33468479196814366  0.6058061354056008  0.0032895901207367676  1.0000
  N   N9        1.0  0.7989919675980417  0.460760777157823  0.5708094184468636  1.0000
  N   N10       1.0  0.20100993252113852  0.5392376591214543  0.42919331532277044  1.0000
  N   N11       1.0  0.8173291326653214  0.23583594180058753  0.953642994433615  1.0000
  N   N12       1.0  0.18267234260378018  0.7641661812181156  0.04635784094774204  1.0000
  Cl  Cl1       1.0  0.5970671155747596  0.6491289089878478  0.510123268917738  1.0000
  Cl  Cl2       1.0  0.40293572781141057  0.3508713659622202  0.4898773299051344  1.0000
  Cl  Cl3       1.0  0.7922553276339243  0.5989494967729384  0.6989171198373116  1.0000
  Cl  Cl4       1.0  0.2077401934374876  0.4010532273215047  0.30108334018758154  1.0000
  Cl  Cl5       1.0  0.4726943793181988  0.3069278482133981  0.8704341341447877  1.0000
  Cl  Cl6       1.0  0.5273050631907239  0.6930711854160805  0.1295663510571998  1.0000
  Cl  Cl7       1.0  0.4868945965053014  0.2173354396719134  0.09290619053218312  1.0000
  Cl  Cl8       1.0  0.5131071390439247  0.7826642174540125  0.9070946006272752  1.0000
