data_image0
_chemical_formula_structural       Na4H24C32N12O8
_chemical_formula_sum              "Na4 H24 C32 N12 O8"
_cell_length_a       3.6880633331318395
_cell_length_b       8.084844446211399
_cell_length_c       25.924955640777398
_cell_angle_alpha    97.27833034871962
_cell_angle_beta     89.99906077450582
_cell_angle_gamma    89.99988268199523

_space_group_name_H-M_alt    "P 1"
_space_group_IT_number       1

loop_
  _space_group_symop_operation_xyz
  'x, y, z'

loop_
  _atom_site_type_symbol
  _atom_site_label
  _atom_site_symmetry_multiplicity
  _atom_site_fract_x
  _atom_site_fract_y
  _atom_site_fract_z
  _atom_site_occupancy
  Na  Na1       1.0  0.756380792618721  0.8813167954711786  0.9527924836441315  1.0000
  Na  Na2       1.0  0.2563900286060203  0.11868863193667067  0.5472073521285808  1.0000
  Na  Na3       1.0  0.2436099720730383  0.11865536388635428  0.047205756355168715  1.0000
  Na  Na4       1.0  0.7436142929078784  0.881347201718576  0.45279591455847895  1.0000
  H   H1        1.0  0.14951960067246975  0.5847851390003171  0.975811882532675  1.0000
  H   H2        1.0  0.6495103140758047  0.4152130142746131  0.5241879370724405  1.0000
  H   H3        1.0  0.8504494722991753  0.4151783761206713  0.024188741881744098  1.0000
  H   H4        1.0  0.35046689328140707  0.584820145994186  0.47580944577055123  1.0000
  H   H5        1.0  0.7131487336442961  0.6357194612719468  0.8331183405938491  1.0000
  H   H6        1.0  0.21312953836689275  0.3642735093541631  0.6668788265711001  1.0000
  H   H7        1.0  0.2868338966523183  0.3642527220493291  0.16688067178355234  1.0000
  H   H8        1.0  0.7868639377332869  0.6357447004143707  0.3331183957505957  1.0000
  H   H9        1.0  0.9429664779260848  0.5408089858704412  0.7784247182741739  1.0000
  H   H10       1.0  0.44295411776069216  0.45918103367636587  0.7215714185457573  1.0000
  H   H11       1.0  0.0570405552705395  0.45915705889130004  0.2215771557613665  1.0000
  H   H12       1.0  0.5570502040349866  0.5408409646089963  0.27842748517099386  1.0000
  H   H13       1.0  0.8963154354436824  0.24685966215361785  0.7519254112067629  1.0000
  H   H14       1.0  0.3963475426248736  0.7531379170058514  0.748070724980508  1.0000
  H   H15       1.0  0.10367804053148431  0.7531150747905498  0.24807562319269752  1.0000
  H   H16       1.0  0.6036730479209355  0.24687783492647236  0.25192756474672967  1.0000
  H   H17       1.0  0.7716316904132158  0.9699172516422864  0.7788728855685964  1.0000
  H   H18       1.0  0.2716809058710369  0.030079334224346593  0.7211238912667142  1.0000
  H   H19       1.0  0.22835636267853943  0.030058720201068898  0.22112780821038316  1.0000
  H   H20       1.0  0.7283830677225468  0.9699414770210097  0.27887689774190255  1.0000
  H   H21       1.0  0.4626245655433864  0.9459316337206614  0.8636931695894108  1.0000
  H   H22       1.0  0.9626337491226167  0.0540721830808408  0.6363072828692611  1.0000
  H   H23       1.0  0.5373851791096769  0.0540381396761305  0.13630845493016613  1.0000
  H   H24       1.0  0.03739497548217939  0.9459648734667638  0.3636952569772733  1.0000
  C   C1        1.0  0.2787287489963859  0.19876560171898916  0.9362379889093833  1.0000
  C   C2        1.0  0.7787213483836836  0.8012372766764457  0.563761315806275  1.0000
  C   C3        1.0  0.7212809955140215  0.8012166883082229  0.06376563591840072  1.0000
  C   C4        1.0  0.2212802619850223  0.1987896851431543  0.4362369977740457  1.0000
  C   C5        1.0  0.4099721266474887  0.5181121273891378  0.9058737525103525  1.0000
  C   C6        1.0  0.9099626171652064  0.4818855331474977  0.5941258265206671  1.0000
  C   C7        1.0  0.5899833891178332  0.4818513637891255  0.09412609955205652  1.0000
  C   C8        1.0  0.09000645554089462  0.5181502765860343  0.40587666784048804  1.0000
  C   C9        1.0  0.5072125410379799  0.37190205244868924  0.8699962294377885  1.0000
  C   C10       1.0  0.007207293824677699  0.6280963406574498  0.6300027740607348  1.0000
  C   C11       1.0  0.49280533793799464  0.6280689797900151  0.13000582681331713  1.0000
  C   C12       1.0  0.992810585246943  0.371940572165478  0.3699951315889437  1.0000
  C   C13       1.0  0.6738963150647237  0.38470660543615753  0.8210115587393363  1.0000
  C   C14       1.0  0.1738881857160735  0.6152925917581271  0.6789832273668284  1.0000
  C   C15       1.0  0.3261025836493943  0.6152694622201479  0.1789922244998721  1.0000
  C   C16       1.0  0.8261188478767496  0.3847366841309778  0.3210093845588915  1.0000
  C   C17       1.0  0.7646588512405047  0.23698335362407616  0.7890708467762197  1.0000
  C   C18       1.0  0.2646897765492113  0.7630145166002934  0.7109267647861659  1.0000
  C   C19       1.0  0.2353400475047778  0.762980257291467  0.21093286707559142  1.0000
  C   C20       1.0  0.7353497941042023  0.2370062347790451  0.289072093331015  1.0000
  C   C21       1.0  0.6938786013755448  0.08147648352511538  0.8045647053404963  1.0000
  C   C22       1.0  0.19389436656580733  0.9185252405347838  0.6954324408703842  1.0000
  C   C23       1.0  0.3061067402196187  0.9184895612576368  0.19543716872114206  1.0000
  C   C24       1.0  0.8061370696880202  0.08150175718971299  0.3045670312265258  1.0000
  C   C25       1.0  0.5284204952889409  0.0671506091785048  0.8520036510426011  1.0000
  C   C26       1.0  0.028436246299833105  0.9328490375931722  0.6479968916891752  1.0000
  C   C27       1.0  0.4715648462678815  0.93281918819779  0.1479987458746663  1.0000
  C   C28       1.0  0.9716006128757543  0.06717297263859479  0.35200239817258705  1.0000
  C   C29       1.0  0.4388482277235752  0.21194928627593868  0.885061093923092  1.0000
  C   C30       1.0  0.9388593852533165  0.7880495052654906  0.6149365302313613  1.0000
  C   C31       1.0  0.5611696512470489  0.7880229928346408  0.1149410078851787  1.0000
  C   C32       1.0  0.061172051278767015  0.2119748549800846  0.3850582165413315  1.0000
  N   N1        1.0  0.1734573526133047  0.33511574840659364  0.9667062314002098  1.0000
  N   N2        1.0  0.6734513494469992  0.6648885928368599  0.5332937583824205  1.0000
  N   N3        1.0  0.8265279888275928  0.6648603312407744  0.0332979380394676  1.0000
  N   N4        1.0  0.32653670377339233  0.335150753869044  0.4667023074966609  1.0000
  N   N5        1.0  0.24001325579946814  0.4861329857671136  0.949774604336014  1.0000
  N   N6        1.0  0.7400005357255213  0.5138700035918616  0.550225952104313  1.0000
  N   N7        1.0  0.7599639515075934  0.5138392454711393  0.05022595278455811  1.0000
  N   N8        1.0  0.2599820943706277  0.48616448738906826  0.44977417957841953  1.0000
  N   N9        1.0  0.7364853505383523  0.5374641397195673  0.8042931914629678  1.0000
  N   N10       1.0  0.23647595914340516  0.4625400554328606  0.6957058742834976  1.0000
  N   N11       1.0  0.2635189712874891  0.4625093263863604  0.1957070249979723  1.0000
  N   N12       1.0  0.7635229396752337  0.5374894480448303  0.30429407515103435  1.0000
  O   O1        1.0  0.24385070893142574  0.05531812840784061  0.953045751767171  1.0000
  O   O2        1.0  0.7438554667255772  0.9446886060913612  0.5469553182732199  1.0000
  O   O3        1.0  0.7561346326815939  0.9446541267784028  0.04695557771192681  1.0000
  O   O4        1.0  0.25612987482610095  0.055344638015078794  0.45304476784908604  1.0000
  O   O5        1.0  0.47044566156650097  0.669578261866988  0.8990782081634524  1.0000
  O   O6        1.0  0.9704333177559903  0.3304217273161072  0.6009197717238524  1.0000
  O   O7        1.0  0.5295098543200895  0.33037770016832724  0.10091982581938912  1.0000
  O   O8        1.0  0.029546600908744804  0.6696239495804832  0.39907961142407095  1.0000
