data_image0
_chemical_formula_structural       Zn16H16C96S16O56F16
_chemical_formula_sum              "Zn16 H16 C96 S16 O56 F16"
_cell_length_a       19.673585017255537
_cell_length_b       19.714280333598346
_cell_length_c       33.37258307807021
_cell_angle_alpha    79.13399356031559
_cell_angle_beta     79.25571503272269
_cell_angle_gamma    63.98607616360502

_space_group_name_H-M_alt    "P 1"
_space_group_IT_number       1

loop_
  _space_group_symop_operation_xyz
  'x, y, z'

loop_
  _atom_site_type_symbol
  _atom_site_label
  _atom_site_symmetry_multiplicity
  _atom_site_fract_x
  _atom_site_fract_y
  _atom_site_fract_z
  _atom_site_occupancy
  Zn  Zn1       1.0  0.0559415064038902  0.4002686113196817  0.47840843834256924  1.0000
  Zn  Zn2       1.0  0.9837886048947412  0.4829106728598731  0.5607045995521177  1.0000
  Zn  Zn3       1.0  0.0591578703177333  0.5599720241427592  0.48256378969902164  1.0000
  Zn  Zn4       1.0  0.9014122435594061  0.5552813891752706  0.4793802572272056  1.0000
  Zn  Zn5       1.0  0.6944209573534649  0.3497007460542605  0.27208541381807555  1.0000
  Zn  Zn6       1.0  0.6905706521381633  0.18928521141428703  0.2668374870235226  1.0000
  Zn  Zn7       1.0  0.7681338827060388  0.266877391004229  0.19076617005271143  1.0000
  Zn  Zn8       1.0  0.8490017696420152  0.19612085444715907  0.2726559463380553  1.0000
  Zn  Zn9       1.0  0.2661187052620377  0.7658949171079995  0.6892281080279686  1.0000
  Zn  Zn10      1.0  0.3489568065274611  0.6950386445133248  0.7714151820225226  1.0000
  Zn  Zn11      1.0  0.19382758355970958  0.8472508552612652  0.7709479874095707  1.0000
  Zn  Zn12      1.0  0.1899445727703863  0.6882282838668203  0.7661754240106832  1.0000
  Zn  Zn13      1.0  0.5597154778821363  0.06108574080717941  0.9835693402764819  1.0000
  Zn  Zn14      1.0  0.4014591200597835  0.05416926460714685  0.9777743576469649  1.0000
  Zn  Zn15      1.0  0.5545463515737125  0.9014780028381681  0.9779338133292157  1.0000
  Zn  Zn16      1.0  0.48338540552928316  0.9847122840052833  0.06035666673761848  1.0000
  H   H1        1.0  0.9535786946398872  0.2491025305701414  0.3513358421905224  1.0000
  H   H2        1.0  0.7466761438919178  0.45571868921535974  0.35112202542879334  1.0000
  H   H3        1.0  0.0008001815967446998  0.2978593596979807  0.39940083905728596  1.0000
  H   H4        1.0  0.09723101453128181  0.597183319285115  0.7000514034664606  1.0000
  H   H5        1.0  0.2010618656508711  0.7010447917128958  0.5968267925065405  1.0000
  H   H6        1.0  0.0498170013043406  0.5499135147859705  0.6512933864064651  1.0000
  H   H7        1.0  0.5499326009248904  0.050071586150345154  0.15270849921852658  1.0000
  H   H8        1.0  0.6532905149853293  0.1533180895890142  0.04895637218996277  1.0000
  H   H9        1.0  0.5986295154981606  0.09846906854630785  0.2001976505117327  1.0000
  H   H10       1.0  0.5014684604454872  0.7957176841327038  0.8986913478195931  1.0000
  H   H11       1.0  0.2949835924745372  0.0027416080537961116  0.8988015238155286  1.0000
  H   H12       1.0  0.45202076665566443  0.7492103969383804  0.8506235024048437  1.0000
  H   H13       1.0  0.8099846433814762  0.527548428792997  0.4187466498423405  1.0000
  H   H14       1.0  0.13590900450527954  0.6359566900647805  0.5266598373959184  1.0000
  H   H15       1.0  0.7232078981856632  0.22325342139721027  0.11428914179827392  1.0000
  H   H16       1.0  0.22229706570850996  0.9400246255146032  0.8311980900750129  1.0000
  C   C1        1.0  0.061433177357123704  0.31611802932867766  0.5616466979037399  1.0000
  C   C2        1.0  0.0695617910542836  0.569887901378813  0.5695103836507657  1.0000
  C   C3        1.0  0.18371129781597523  0.4395020448542654  0.4386816106446219  1.0000
  C   C4        1.0  0.9375883143588412  0.6837913291804367  0.43878379941743617  1.0000
  C   C5        1.0  0.9306400456774712  0.4301106965040374  0.43051655677064826  1.0000
  C   C6        1.0  0.8164675376491389  0.5610145882407025  0.5617910109298664  1.0000
  C   C7        1.0  0.5663534803824106  0.3106000778222865  0.3111794129376833  1.0000
  C   C8        1.0  0.6808492389324456  0.18002223916952442  0.18055466319556504  1.0000
  C   C9        1.0  0.6889953680336944  0.43350067140563914  0.18839060962330484  1.0000
  C   C10       1.0  0.9343817545858997  0.1884714224946719  0.18934335764156168  1.0000
  C   C11       1.0  0.8185549915318191  0.3211262597763778  0.319789845182477  1.0000
  C   C12       1.0  0.8122581981294985  0.0664686738035415  0.3114194253614784  1.0000
  C   C13       1.0  0.43324963298280034  0.6892923728655947  0.6883013495027654  1.0000
  C   C14       1.0  0.3194533367162721  0.8197327537789006  0.819380608027359  1.0000
  C   C15       1.0  0.18896796473107003  0.9330355018879217  0.6884751392809322  1.0000
  C   C16       1.0  0.0661404607742  0.8101921884675819  0.8110704016160212  1.0000
  C   C17       1.0  0.1805703561714651  0.6803112878018143  0.6799026469854682  1.0000
  C   C18       1.0  0.3121173567639275  0.5661674819472965  0.8111061350124232  1.0000
  C   C19       1.0  0.4379891970152698  0.1836206380615479  0.9387282473535166  1.0000
  C   C20       1.0  0.42998030014474153  0.9305765384941224  0.9302142668949358  1.0000
  C   C21       1.0  0.6832391479555042  0.939557848902787  0.938746628199233  1.0000
  C   C22       1.0  0.5607814373287782  0.8172116823926668  0.06146029311223341  1.0000
  C   C23       1.0  0.5697816845012653  0.07047889124790183  0.06933235672607198  1.0000
  C   C24       1.0  0.3162587814961527  0.061612870139391936  0.060935836839128385  1.0000
  C   C25       1.0  0.9009643050054449  0.40341762723665664  0.4021994239442039  1.0000
  C   C26       1.0  0.8473332470177226  0.3497103071056245  0.3484552791112492  1.0000
  C   C27       1.0  0.8282759042040126  0.44865331860950153  0.3884207417097443  1.0000
  C   C28       1.0  0.9194350649115607  0.3045104686114897  0.36195270577844946  1.0000
  C   C29       1.0  0.8023651635100537  0.42083045030233984  0.36152516903493387  1.0000
  C   C30       1.0  0.9453244700807202  0.3316004959003467  0.388473888426077  1.0000
  C   C31       1.0  0.0984868522765154  0.5986748783542453  0.59712867837559  1.0000
  C   C32       1.0  0.1518775390280069  0.65184129298261  0.6511664441745922  1.0000
  C   C33       1.0  0.1417181780374719  0.6418343798420452  0.5814470325582874  1.0000
  C   C34       1.0  0.1090893179403238  0.6090890071524485  0.6669603287028921  1.0000
  C   C35       1.0  0.1679814111392233  0.6680236787760877  0.6089675738712472  1.0000
  C   C36       1.0  0.0830046241269784  0.5831031399515824  0.6399970919590315  1.0000
  C   C37       1.0  0.3046967084870573  0.4528523154987172  0.4007817288450397  1.0000
  C   C38       1.0  0.44529847077188134  0.29715785984638643  0.34917381737421493  1.0000
  C   C39       1.0  0.2582824844663634  0.41452408647004557  0.4139149037040184  1.0000
  C   C40       1.0  0.49168992222561075  0.33547592761272665  0.33604720295494417  1.0000
  C   C41       1.0  0.37697219009480426  0.3393932904180377  0.3728096638076011  1.0000
  C   C42       1.0  0.3730217904523768  0.4106192952632739  0.3771655267522292  1.0000
  C   C43       1.0  0.7248984895851365  0.5767007950360679  0.6289124435606226  1.0000
  C   C44       1.0  0.524876592778135  0.6733764837012259  0.6211306131641265  1.0000
  C   C45       1.0  0.74191662208203  0.5858327794558277  0.5865051775056431  1.0000
  C   C46       1.0  0.5078829055788746  0.6642978779375214  0.6635249413296407  1.0000
  C   C47       1.0  0.603852462998816  0.641635549949527  0.6081582606265455  1.0000
  C   C48       1.0  0.645959670894591  0.6083828797513745  0.6418901894269737  1.0000
  C   C49       1.0  0.0769882092801879  0.2245020144708151  0.6288760951248092  1.0000
  C   C50       1.0  0.1734064982239758  0.02480725290349281  0.6213217101728646  1.0000
  C   C51       1.0  0.0861161107488044  0.24159564676502038  0.5864598062967731  1.0000
  C   C52       1.0  0.1642991622821839  0.007695897343765515  0.6637194262997214  1.0000
  C   C53       1.0  0.14178796130685362  0.10368570479962358  0.6082818836834677  1.0000
  C   C54       1.0  0.1085997891230974  0.14565202100499866  0.6419474394531194  1.0000
  C   C55       1.0  0.844952704456489  0.8011250991593074  0.3971822863459309  1.0000
  C   C56       1.0  0.9051038266458846  0.9487966456033802  0.3528858953047305  1.0000
  C   C57       1.0  0.9130692384481873  0.758154855588373  0.4138626921858659  1.0000
  C   C58       1.0  0.8370002764601098  0.9917777365082044  0.33623736785272473  1.0000
  C   C59       1.0  0.9086888863535876  0.8791056643830542  0.3751146544703658  1.0000
  C   C60       1.0  0.8414318913932989  0.8706776636049656  0.374840279235343  1.0000
  C   C61       1.0  0.6529712362135385  0.1526619758618466  0.1516149135624474  1.0000
  C   C62       1.0  0.5987677591983099  0.09894872359956967  0.09801862962763154  1.0000
  C   C63       1.0  0.6685488216300827  0.16844158927153052  0.10835821670873712  1.0000
  C   C64       1.0  0.5830270221622554  0.0831105059490511  0.14084444697660817  1.0000
  C   C65       1.0  0.6410422945498837  0.14106596254779902  0.08201634793621788  1.0000
  C   C66       1.0  0.6100362951190093  0.10988646729126117  0.16698817897258778  1.0000
  C   C67       1.0  0.6731187223982004  0.5253148718548958  0.12109289192809314  1.0000
  C   C68       1.0  0.5766859070822933  0.7250827417202076  0.12871820717262492  1.0000
  C   C69       1.0  0.6640172486770481  0.5080384224223595  0.16350193084718972  1.0000
  C   C70       1.0  0.5856915778757212  0.7424402137067289  0.08633857281698447  1.0000
  C   C71       1.0  0.6083063394573004  0.6461346202369214  0.14172315265157207  1.0000
  C   C72       1.0  0.6414956125237695  0.6042381600910359  0.1080408937871624  1.0000
  C   C73       1.0  0.0809250685974803  0.12452647042340462  0.1770503860456714  1.0000
  C   C74       1.0  0.1695339838018626  0.1249293280749555  0.07315623653066441  1.0000
  C   C75       1.0  0.0087870949809528  0.1633873055682429  0.1643856721020285  1.0000
  C   C76       1.0  0.24162834242613943  0.08626234302904123  0.08586211815938329  1.0000
  C   C77       1.0  0.11048468339850362  0.13914485346680994  0.10614054622333668  1.0000
  C   C78       1.0  0.1399329886712053  0.11014076383274578  0.14408065675318235  1.0000
  C   C79       1.0  0.34654121204755484  0.8491185639822093  0.8477108211839096  1.0000
  C   C80       1.0  0.40107002867642194  0.9020462677341855  0.9015170896455159  1.0000
  C   C81       1.0  0.301555120942588  0.9216076674264571  0.8614950194523628  1.0000
  C   C82       1.0  0.4459549388017763  0.8301094173080371  0.8880400620269457  1.0000
  C   C83       1.0  0.3297429275957739  0.94719295421055  0.8883951513479502  1.0000
  C   C84       1.0  0.4185144477364275  0.8045759445689383  0.861499174821688  1.0000
  C   C85       1.0  0.40490567257133137  0.44893390077451323  0.85280042483204  1.0000
  C   C86       1.0  0.3450583049293884  0.3011067908119642  0.8972208629953257  1.0000
  C   C87       1.0  0.33679328777806455  0.49178945897730136  0.8361119628241981  1.0000
  C   C88       1.0  0.4131924949190662  0.25824568976442214  0.9138509389047513  1.0000
  C   C89       1.0  0.3414126843818792  0.3707484354365748  0.8748973320046148  1.0000
  C   C90       1.0  0.4086007789372914  0.37930770591766116  0.8751277195859329  1.0000
  C   C91       1.0  0.945183014462451  0.7969158171567087  0.8492255056208434  1.0000
  C   C92       1.0  0.8045510116072877  0.9527091957012603  0.9008175377403663  1.0000
  C   C93       1.0  0.9916862700634184  0.8351256286329234  0.836058733469997  1.0000
  C   C94       1.0  0.7580280074341488  0.9145127721617501  0.9139199628283452  1.0000
  C   C95       1.0  0.8729416024970291  0.9103774548778107  0.8772235724961419  1.0000
  C   C96       1.0  0.8768561434241563  0.8391799154449229  0.8728565011737145  1.0000
  S   S1        1.0  0.29849569690070876  0.324877039204324  0.39725475478660144  1.0000
  S   S2        1.0  0.45153530846415885  0.4250771545397784  0.35273477181006296  1.0000
  S   S3        1.0  0.6601607977915975  0.6340386169333102  0.5616553480020628  1.0000
  S   S4        1.0  0.5895744402446822  0.61604549135663  0.6883861749478727  1.0000
  S   S5        1.0  0.134225068818786  0.16002522352100362  0.5617339981430475  1.0000
  S   S6        1.0  0.116201545284973  0.08921175430717207  0.6884826040491346  1.0000
  S   S7        1.0  0.9745773784573192  0.8031641340520751  0.40215505781012684  1.0000
  S   S8        1.0  0.7755848370755131  0.94669423489831  0.3478058209779462  1.0000
  S   S9        1.0  0.6158342019273704  0.5896344123121151  0.18825093929129377  1.0000
  S   S10       1.0  0.6338001367633553  0.660891643575859  0.061545407732893374  1.0000
  S   S11       1.0  0.0125351827800344  0.1830142868042017  0.11104911437327303  1.0000
  S   S12       1.0  0.23789702406896404  0.0664887358068142  0.1391702556199945  1.0000
  S   S13       1.0  0.2754617504051141  0.44658658310834926  0.8478443470741298  1.0000
  S   S14       1.0  0.4745495753114212  0.30338125167505586  0.9021704593796825  1.0000
  S   S15       1.0  0.9515388712179346  0.9247456049220947  0.8528013173426103  1.0000
  S   S16       1.0  0.798210466260997  0.8248707782801432  0.8972643834972515  1.0000
  O   O1        1.0  0.0004461050353085998  0.49888890173479433  0.5002294170509601  1.0000
  O   O2        1.0  0.0782573457444542  0.3151612718099343  0.5226816074272449  1.0000
  O   O3        1.0  0.03137906207135191  0.5314414167348007  0.5852569275324414  1.0000
  O   O4        1.0  0.15576483240410974  0.5058235245363394  0.4498504242205002  1.0000
  O   O5        1.0  0.0259496260220544  0.37436990345702276  0.5808452718177648  1.0000
  O   O6        1.0  0.15363655604254936  0.39176733417513543  0.4467052419241284  1.0000
  O   O7        1.0  0.0851574875575736  0.5858977876191176  0.5302788713462193  1.0000
  O   O8        1.0  0.004294476311173401  0.6570753610496709  0.45004750618144124  1.0000
  O   O9        1.0  0.8872312724183402  0.49653766312398073  0.44231257877409996  1.0000
  O   O10       1.0  0.8911170089056384  0.6525746727258268  0.4470243845179525  1.0000
  O   O11       1.0  0.9960980645363692  0.3875043946155187  0.4417957742643353  1.0000
  O   O12       1.0  0.8750226111962434  0.5258431361151212  0.580938819400302  1.0000
  O   O13       1.0  0.8153046218646766  0.5774639399698958  0.5227773832355922  1.0000
  O   O14       1.0  0.7498923125589343  0.2505423544871732  0.25073485651322613  1.0000
  O   O15       1.0  0.5960395028586093  0.35862077446805773  0.30322659743005426  1.0000
  O   O16       1.0  0.6654392337042125  0.16405972231969904  0.21893663386293138  1.0000
  O   O17       1.0  0.7248931943844426  0.3750695211560283  0.1692899453045271  1.0000
  O   O18       1.0  0.5943283409113604  0.24437734904157804  0.299990204544855  1.0000
  O   O19       1.0  0.6721519064395522  0.4344956911880543  0.22731976321150435  1.0000
  O   O20       1.0  0.7200266177797945  0.2192271644072647  0.16475818689505672  1.0000
  O   O21       1.0  0.8764139548208548  0.22359915963130564  0.16927059216617119  1.0000
  O   O22       1.0  0.8622402084164237  0.25551786235123325  0.3088716138676162  1.0000
  O   O23       1.0  0.9338221938771268  0.17346632570813386  0.22821637515023246  1.0000
  O   O24       1.0  0.7528648982552326  0.3644043320194115  0.3085690310748532  1.0000
  O   O25       1.0  0.7457420844404155  0.09281607924040718  0.300015065081233  1.0000
  O   O26       1.0  0.8585323461334156  0.09778384472036812  0.30360593525772833  1.0000
  O   O27       1.0  0.24996335907563608  0.7491037668800685  0.7496776259752238  1.0000
  O   O28       1.0  0.3749446775442565  0.7246187240790645  0.6689985198964408  1.0000
  O   O29       1.0  0.36226248981741804  0.754730353028421  0.807866627491613  1.0000
  O   O30       1.0  0.17218601304384154  0.9338894237397211  0.7274495478380629  1.0000
  O   O31       1.0  0.4344001545411444  0.6728702973890106  0.7272600123868359  1.0000
  O   O32       1.0  0.22431885358562909  0.874930148731039  0.6692321119131036  1.0000
  O   O33       1.0  0.25254817297729915  0.8628428132016451  0.8078205454222811  1.0000
  O   O34       1.0  0.09617642791712201  0.858062044875183  0.803209163091836  1.0000
  O   O35       1.0  0.16464547560666892  0.6636561153995189  0.7183127438022865  1.0000
  O   O36       1.0  0.09397425803027909  0.7442762100451289  0.799527767955567  1.0000
  O   O37       1.0  0.21868475616576433  0.7189534864634127  0.6636948257028195  1.0000
  O   O38       1.0  0.3585860864504867  0.597362665182679  0.8029769357968634  1.0000
  O   O39       1.0  0.24552696743711513  0.5925742025623322  0.7997746639119613  1.0000
  O   O40       1.0  0.5001792789635502  0.9999130980888327  0.9999329517577352  1.0000
  O   O41       1.0  0.5046049080864634  0.15718853619347337  0.9499749422595157  1.0000
  O   O42       1.0  0.3866276639179134  0.9961203223931461  0.9412866940843116  1.0000
  O   O43       1.0  0.6532377894060133  0.8917705535600291  0.9466104355542342  1.0000
  O   O44       1.0  0.39155091663651836  0.15249838986490255  0.9467293651679398  1.0000
  O   O45       1.0  0.6555069580500614  0.0056798246906381925  0.9499876184631975  1.0000
  O   O46       1.0  0.49574610778601175  0.8870648665839694  0.9413330404162891  1.0000
  O   O47       1.0  0.5773245401046766  0.8160999564699339  0.022528619017009494  1.0000
  O   O48       1.0  0.53119853319226  0.03229762154205681  0.08565725075345647  1.0000
  O   O49       1.0  0.5254897092881946  0.8754501114882418  0.08065759279813278  1.0000
  O   O50       1.0  0.585825690985395  0.08662071877423463  0.03088489955271707  1.0000
  O   O51       1.0  0.3164936824976152  0.07714207429948063  0.022120006589446486  1.0000
  O   O52       1.0  0.3741136904876897  0.026643689601797894  0.08100984791363428  1.0000
  O   O53       1.0  0.7821297788762394  0.5178620003896626  0.39992947167102944  1.0000
  O   O54       1.0  0.1591541438403183  0.6592159985926429  0.5409794915088781  1.0000
  O   O55       1.0  0.7089301099125151  0.20894269578054295  0.09098613166249692  1.0000
  O   O56       1.0  0.23217033952693103  0.9678449350378668  0.8499217745183927  1.0000
  F   F1        1.0  0.287905664735348  0.5227812170673118  0.4092197945656224  1.0000
  F   F2        1.0  0.46205026846145375  0.2272252602197256  0.3407287055113173  1.0000
  F   F3        1.0  0.7768954185016597  0.5416873444865618  0.6555332809455835  1.0000
  F   F4        1.0  0.4729662892041091  0.7084073146263707  0.5944631727543451  1.0000
  F   F5        1.0  0.0420425623449603  0.27634666788645756  0.6554316350631666  1.0000
  F   F6        1.0  0.2083018509745145  0.9730589528275287  0.5947147678508246  1.0000
  F   F7        1.0  0.7874305678162301  0.7801285043747087  0.4013867360817684  1.0000
  F   F8        1.0  0.9626039395522099  0.9697656669551904  0.3488285564189653  1.0000
  F   F9        1.0  0.7081179428044494  0.47349925143709753  0.09449994333786549  1.0000
  F   F10       1.0  0.541796439681164  0.7767170334577929  0.15541940039604904  1.0000
  F   F11       1.0  0.0948784485785552  0.10226742531540371  0.2163778564791272  1.0000
  F   F12       1.0  0.1555542056440373  0.14730549996394168  0.03385364238476999  1.0000
  F   F13       1.0  0.46237459851560914  0.47003589504102183  0.8486471959962573  1.0000
  F   F14       1.0  0.2875516947433781  0.2801098214777795  0.9013709382396229  1.0000
  F   F15       1.0  0.9619450918162047  0.7269810799428454  0.8407693279323142  1.0000
  F   F16       1.0  0.7878707350911187  0.02264418973306453  0.909214724532525  1.0000
