data_image0
_chemical_formula_structural       Zn4H40C42S2N4O18
_chemical_formula_sum              "Zn4 H40 C42 S2 N4 O18"
_cell_length_a       7.7929333483128085
_cell_length_b       11.145635122584697
_cell_length_c       14.52907115113917
_cell_angle_alpha    71.7313579558973
_cell_angle_beta     74.45086802985136
_cell_angle_gamma    69.54425553359526

_space_group_name_H-M_alt    "P 1"
_space_group_IT_number       1

loop_
  _space_group_symop_operation_xyz
  'x, y, z'

loop_
  _atom_site_type_symbol
  _atom_site_label
  _atom_site_symmetry_multiplicity
  _atom_site_fract_x
  _atom_site_fract_y
  _atom_site_fract_z
  _atom_site_occupancy
  Zn  Zn1       1.0  0.669968753190041  0.0016971191498668997  0.5567620267385537  1.0000
  Zn  Zn2       1.0  0.7712619293067676  0.5016548631169114  0.05690513881533837  1.0000
  Zn  Zn3       1.0  0.8810220328745757  0.7157880747593451  0.6295638931736108  1.0000
  Zn  Zn4       1.0  0.7733807292169315  0.21582620548251435  0.12959242341175783  1.0000
  H   H1        1.0  0.5419303516453622  0.820102682601217  0.6574564712658673  1.0000
  H   H2        1.0  0.9803672836643784  0.32006645739313205  0.15750909367438481  1.0000
  H   H3        1.0  0.14939836101572762  0.7813609528053789  0.6717881931850371  1.0000
  H   H4        1.0  0.3973204472731098  0.28143928675076774  0.17185354670324676  1.0000
  H   H5        1.0  0.9473560331878375  0.884872199053831  0.7023044616194128  1.0000
  H   H6        1.0  0.46546158293490697  0.38493931477171367  0.20237521194744099  1.0000
  H   H7        1.0  0.22109923277739102  0.6621347644831345  0.35738040128448045  1.0000
  H   H8        1.0  0.7594816405206257  0.16241259631403437  0.8573780793416291  1.0000
  H   H9        1.0  0.457435917234669  0.8807963331547838  0.08036839969466317  1.0000
  H   H10       1.0  0.5817942189236404  0.38088306770968927  0.5802535340610151  1.0000
  H   H11       1.0  0.06586697260967606  0.08582884129172899  0.2932252958362299  1.0000
  H   H12       1.0  0.5551538308995557  0.5861421106370417  0.793085278686185  1.0000
  H   H13       1.0  0.5568055464985732  0.27051538258024266  0.445463058418106  1.0000
  H   H14       1.0  0.7269830365847197  0.7704698194388867  0.9453570812561342  1.0000
  H   H15       1.0  0.28241753756284993  0.4332340402609134  0.380161606981659  1.0000
  H   H16       1.0  0.9040043753312684  0.9331999512695148  0.8803033534692377  1.0000
  H   H17       1.0  0.01966645924254341  0.12031663216190941  0.472817055405777  1.0000
  H   H18       1.0  0.38665974705246947  0.6202779982127851  0.9731106017624357  1.0000
  H   H19       1.0  0.308127273656922  0.9684529678374075  0.5344890572392061  1.0000
  H   H20       1.0  0.18834831153700549  0.4684556543392374  0.03469368267954564  1.0000
  H   H21       1.0  0.829186823088676  0.378115771896141  0.4444594823595693  1.0000
  H   H22       1.0  0.34790589259345206  0.8781099657349002  0.944791370948501  1.0000
  H   H23       1.0  0.9272987661345978  0.3531704841350063  0.32604252940651435  1.0000
  H   H24       1.0  0.39326735602339385  0.8529426232480046  0.8264147811250953  1.0000
  H   H25       1.0  0.9609338030670643  0.5683930002953658  0.4055796782074737  1.0000
  H   H26       1.0  0.06502746988862633  0.068540862881143  0.90554442660158  1.0000
  H   H27       1.0  0.0727831816873704  0.5390616357615909  0.28823920890486227  1.0000
  H   H28       1.0  0.10015174783777774  0.03896787450965889  0.7882713544108526  1.0000
  H   H29       1.0  0.7616683936355598  0.581338326273162  0.2461601589075855  1.0000
  H   H30       1.0  0.4110337715108439  0.08125938631214777  0.7463144343920194  1.0000
  H   H31       1.0  0.6497686737539824  0.6141517480806442  0.36328728196068744  1.0000
  H   H32       1.0  0.3728106567768777  0.11415732548334741  0.8634476438065095  1.0000
  H   H33       1.0  0.5758576079517397  0.0690421249020403  0.3060640629127463  1.0000
  H   H34       1.0  0.04895830463195936  0.5689198916950672  0.8061499094200715  1.0000
  H   H35       1.0  0.5636956922343473  0.8360300331310877  0.3799482353967109  1.0000
  H   H36       1.0  0.22039105175336005  0.33599390160567566  0.8800604215667392  1.0000
  H   H37       1.0  0.9884315052148127  0.7267253289654363  0.13622779034228938  1.0000
  H   H38       1.0  0.14850480637002755  0.2265242873678018  0.6364045748837841  1.0000
  H   H39       1.0  0.9871344248872445  0.9624267648157595  0.07362023053761396  1.0000
  H   H40       1.0  0.9767096190629442  0.4621902094968178  0.5737748258031277  1.0000
  C   C1        1.0  0.13385808415636544  0.872917856757354  0.33576989398348195  1.0000
  C   C2        1.0  0.6575670174882121  0.37324777490037775  0.8356533072912314  1.0000
  C   C3        1.0  0.23420122429456558  0.7552469054415667  0.3070472213249361  1.0000
  C   C4        1.0  0.703594762074694  0.2554977140585564  0.8070052401457276  1.0000
  C   C5        1.0  0.3476829497208769  0.757802463200967  0.21445717588214566  1.0000
  C   C6        1.0  0.6801300577092917  0.257914134770914  0.714432325393979  1.0000
  C   C7        1.0  0.3664050665768246  0.8783326916893796  0.15185393050210658  1.0000
  C   C8        1.0  0.6037583090791118  0.3784461410265862  0.6517424889368473  1.0000
  C   C9        1.0  0.2653255896115708  0.9952916345473355  0.18038224029207586  1.0000
  C   C10       1.0  0.559249261916612  0.4954585077573271  0.6802364789705069  1.0000
  C   C11       1.0  0.14812374982714271  0.9941086922234063  0.2718513888673969  1.0000
  C   C12       1.0  0.5860083219663396  0.49441290338436505  0.7717166073455176  1.0000
  C   C13       1.0  0.00264948974207602  0.8674831396243262  0.43237048107474163  1.0000
  C   C14       1.0  0.697521191335035  0.36784866532557453  0.9322901136719253  1.0000
  C   C15       1.0  0.4434976957067887  0.6339021062952953  0.17920845761560145  1.0000
  C   C16       1.0  0.7434560235152787  0.1339494934297321  0.6791718711524554  1.0000
  C   C17       1.0  0.4346909105283602  0.2411465551112215  0.4501992900882855  1.0000
  C   C18       1.0  0.8736314208940076  0.7411486125256701  0.9502587977933532  1.0000
  C   C19       1.0  0.2782168159683777  0.332348822215522  0.4150350723832475  1.0000
  C   C20       1.0  0.9741000863422965  0.8323182422765426  0.9152235556804061  1.0000
  C   C21       1.0  0.12277393041927087  0.29249289974863046  0.42185882940544434  1.0000
  C   C22       1.0  0.16250298976362373  0.7924554077710297  0.9221617841443149  1.0000
  C   C23       1.0  0.1351107703898435  0.1585082939334725  0.4652566178082012  1.0000
  C   C24       1.0  0.2406231049859499  0.6584791640820525  0.9655234229465607  1.0000
  C   C25       1.0  0.2956697443671813  0.07262077663542499  0.49952227085231743  1.0000
  C   C26       1.0  0.13165168175783729  0.5726079370893727  0.9997007419199239  1.0000
  C   C27       1.0  0.9493738446540829  0.387092111325714  0.3845877648985906  1.0000
  C   C28       1.0  0.27868348022239064  0.8869977062428018  0.8848977159049839  1.0000
  C   C29       1.0  0.9499945690365476  0.5312303523067002  0.34615886153839887  1.0000
  C   C30       1.0  0.17269576508008572  0.031199540917292292  0.8462481402341453  1.0000
  C   C31       1.0  0.7725760435144334  0.6195078394625071  0.3051073773801107  1.0000
  C   C32       1.0  0.30297759660638934  0.11942572702870544  0.8052318607095331  1.0000
  C   C33       1.0  0.6658790053205409  0.9893788976307364  0.27167921727341593  1.0000
  C   C34       1.0  0.0730930405170084  0.48923626908835155  0.7717575040617605  1.0000
  C   C35       1.0  0.6589509894831593  0.860139643781352  0.3116546297438988  1.0000
  C   C36       1.0  0.16938465114246515  0.3600480425437098  0.8117401854747542  1.0000
  C   C37       1.0  0.7743603459162711  0.7608445074547775  0.26408555879687884  1.0000
  C   C38       1.0  0.20081333633438442  0.26072420067185215  0.7641916105619799  1.0000
  C   C39       1.0  0.8941057102234639  0.7991952041880737  0.1766435942834051  1.0000
  C   C40       1.0  0.13001768658055107  0.29901765947462167  0.6767940241000903  1.0000
  C   C41       1.0  0.8947984526965982  0.9299871365483837  0.14086516389819087  1.0000
  C   C42       1.0  0.0342801779184967  0.4297952946673078  0.6410176960174142  1.0000
  S   S1        1.0  0.2617545477775849  0.1452503908943754  0.08837175546845802  1.0000
  S   S2        1.0  0.5050088063765515  0.6453190999822808  0.5882081364830684  1.0000
  N   N1        1.0  0.44452771553781606  0.11310452378616992  0.4925400235285979  1.0000
  N   N2        1.0  0.9493868390431356  0.6131048801035915  0.9926378298634762  1.0000
  N   N3        1.0  0.7825738563015108  0.024504849614899592  0.18766356347758523  1.0000
  N   N4        1.0  0.005162341631994069  0.524359811078142  0.687772785317023  1.0000
  O   O1        1.0  0.8902269125886377  0.977566650067942  0.4486671423761381  1.0000
  O   O2        1.0  0.6834252791071619  0.47796216676020714  0.9486053890880798  1.0000
  O   O3        1.0  0.01062783931129731  0.7545357141904816  0.48985401869747147  1.0000
  O   O4        1.0  0.7450248685396373  0.2549174087851894  0.9897894157233725  1.0000
  O   O5        1.0  0.5610217089423628  0.6468704927835276  0.09785628568791087  1.0000
  O   O6        1.0  0.6939348584621  0.1468504809831828  0.5979174003684237  1.0000
  O   O7        1.0  0.4029902915084165  0.5294034623186548  0.22817246266320276  1.0000
  O   O8        1.0  0.8398028656589316  0.029511303316056094  0.7280188378353004  1.0000
  O   O9        1.0  0.1009596009030886  0.1672300726340268  0.043296244194849016  1.0000
  O   O10       1.0  0.6889180554800798  0.6672960796967047  0.5432007391065597  1.0000
  O   O11       1.0  0.439178998799612  0.1257236614376822  0.021522088166378246  1.0000
  O   O12       1.0  0.41406688118292573  0.6257572655708257  0.5213151647000842  1.0000
  O   O13       1.0  0.2235730521480832  0.24952237011705586  0.14168750401756824  1.0000
  O   O14       1.0  0.38550016884354915  0.7495526857890695  0.6415122862924252  1.0000
  O   O15       1.0  0.6448274676235286  0.8488333335794706  0.6626552544998462  1.0000
  O   O16       1.0  0.8435506947887318  0.3487894641450993  0.16274109730289155  1.0000
  O   O17       1.0  0.013529249017856905  0.7929174574930898  0.6933437886414142  1.0000
  O   O18       1.0  0.5001508014633342  0.2930083861750958  0.1933563682181969  1.0000
