data_image0
_chemical_formula_structural       Co4H64C96N8O16
_chemical_formula_sum              "Co4 H64 C96 N8 O16"
_cell_length_a       9.392640783357729
_cell_length_b       11.287749225920239
_cell_length_c       26.037752065673875
_cell_angle_alpha    87.5952519593102
_cell_angle_beta     84.2497744863896
_cell_angle_gamma    65.39556217725486

_space_group_name_H-M_alt    "P 1"
_space_group_IT_number       1

loop_
  _space_group_symop_operation_xyz
  'x, y, z'

loop_
  _atom_site_type_symbol
  _atom_site_label
  _atom_site_symmetry_multiplicity
  _atom_site_fract_x
  _atom_site_fract_y
  _atom_site_fract_z
  _atom_site_occupancy
  Co  Co1       1.0  0.09590268267292153  0.6085116190843749  0.9565455169232635  1.0000
  Co  Co2       1.0  0.29580851343343534  0.6082459333187061  0.5434225703359914  1.0000
  Co  Co3       1.0  0.9041059571921793  0.39148244691769213  0.04344810887482711  1.0000
  Co  Co4       1.0  0.7041881292451961  0.3917637212497312  0.4565769748702877  1.0000
  H   H1        1.0  0.507251286787529  0.722762702746529  0.9013723905233418  1.0000
  H   H2        1.0  0.6943249348842643  0.7505586285441979  0.8342856175831415  1.0000
  H   H3        1.0  0.38957090038509534  0.7650178480661226  0.7181942570947725  1.0000
  H   H4        1.0  0.20959148330873498  0.728230728260627  0.7856592470130934  1.0000
  H   H5        1.0  0.9645416168091999  0.4887672302328384  0.15500026706239817  1.0000
  H   H6        1.0  0.010339263515504642  0.5165808488531454  0.2449384462610524  1.0000
  H   H7        1.0  0.3515082858285297  0.6653218486192645  0.1884725797467794  1.0000
  H   H8        1.0  0.29281618113325447  0.6506300499774724  0.0985161918993143  1.0000
  H   H9        1.0  0.9809063429086464  0.8565392439857009  0.021625165615404323  1.0000
  H   H10       1.0  0.7669390989752075  0.0801392325801089  0.02236305402294649  1.0000
  H   H11       1.0  0.5986966598094272  0.9613074379391123  0.8930501423242558  1.0000
  H   H12       1.0  0.8192797996231177  0.7436787430921329  0.89932130219659  1.0000
  H   H13       1.0  0.617810475530277  0.2659852814955315  0.010097049136263109  1.0000
  H   H14       1.0  0.3935843744085831  0.4792525553424342  0.006273050795442698  1.0000
  H   H15       1.0  0.19525280531938452  0.3507503375487886  0.8984773261924133  1.0000
  H   H16       1.0  0.40210780571244004  0.1282090647826166  0.9000402690176726  1.0000
  H   H17       1.0  0.7708805029658308  0.7227487274728973  0.5987794424263697  1.0000
  H   H18       1.0  0.5556877504938597  0.7507384478338397  0.6658042491419707  1.0000
  H   H19       1.0  0.8461082993504832  0.7645091573654953  0.781989774829583  1.0000
  H   H20       1.0  0.06317162419433228  0.7272650392305168  0.7146084990478984  1.0000
  H   H21       1.0  0.546810014873529  0.4890356441461421  0.34507072084196005  1.0000
  H   H22       1.0  0.4736561829227597  0.5168378153667703  0.2550637602573502  1.0000
  H   H23       1.0  0.9834975288680213  0.6650474130613946  0.3112578460829241  1.0000
  H   H24       1.0  0.05632528377293516  0.6504246219914975  0.4012846178613572  1.0000
  H   H25       1.0  0.1623941685013506  0.856752240189863  0.4783873408861012  1.0000
  H   H26       1.0  0.15287225800028642  0.08023972552403791  0.4776815959434231  1.0000
  H   H27       1.0  0.4404158169464054  0.9607728225274954  0.6069216944562328  1.0000
  H   H28       1.0  0.4369861627352591  0.7433826919963595  0.6007131032562113  1.0000
  H   H29       1.0  0.11664423433565217  0.2658532433867793  0.4899100735570626  1.0000
  H   H30       1.0  0.1276889900480427  0.4790048918771602  0.4937090306298941  1.0000
  H   H31       1.0  0.45463983797282753  0.35017266764678123  0.6015388707888576  1.0000
  H   H32       1.0  0.4700532397744582  0.12774270729112666  0.6000415123452923  1.0000
  H   H33       1.0  0.4927587006966831  0.2772459752819572  0.09862781931888517  1.0000
  H   H34       1.0  0.30568549141209184  0.2494490764136401  0.16571113756494069  1.0000
  H   H35       1.0  0.6104428739328539  0.2349703694284743  0.2818042780392602  1.0000
  H   H36       1.0  0.7904149284479587  0.2717701552350463  0.2143423989111994  1.0000
  H   H37       1.0  0.03545762604650088  0.5112307331465474  0.8449967134949148  1.0000
  H   H38       1.0  0.9896393831305662  0.48342198801152136  0.7550615271138525  1.0000
  H   H39       1.0  0.6484841767966003  0.3346790377573897  0.8115269067341514  1.0000
  H   H40       1.0  0.7071865685990345  0.3493630413251623  0.9014807483357927  1.0000
  H   H41       1.0  0.019114344792377797  0.14344799811865275  0.9783735099323464  1.0000
  H   H42       1.0  0.23306918087362763  0.9198470383142876  0.9776322699683249  1.0000
  H   H43       1.0  0.4012919160349925  0.038688574728645606  0.1069564974095201  1.0000
  H   H44       1.0  0.1807067616609999  0.25631045162985805  0.10068016676869719  1.0000
  H   H45       1.0  0.3821774163501175  0.7339970911961657  0.9899087238285418  1.0000
  H   H46       1.0  0.6064089961813437  0.5207424816358852  0.9937353459612552  1.0000
  H   H47       1.0  0.8047457502861948  0.6492427519855541  0.10152591814674138  1.0000
  H   H48       1.0  0.5978950626780628  0.8717840233028299  0.0999651161529229  1.0000
  H   H49       1.0  0.22913633444409243  0.2772463084095449  0.4012226874501437  1.0000
  H   H50       1.0  0.4443183534957457  0.249256590354733  0.3341959834022816  1.0000
  H   H51       1.0  0.15387913172043707  0.23550829198785558  0.2180126599000332  1.0000
  H   H52       1.0  0.9368244950616429  0.2727436394854196  0.2853953092615171  1.0000
  H   H53       1.0  0.4531798994026133  0.5109681659724219  0.6549276544834655  1.0000
  H   H54       1.0  0.5263338313024023  0.4831465087408162  0.744933829778688  1.0000
  H   H55       1.0  0.016495696095915863  0.3349476278652902  0.6887401864347708  1.0000
  H   H56       1.0  0.9436655728501582  0.3495772402309285  0.5987114544042385  1.0000
  H   H57       1.0  0.8376085497117817  0.1432622864856015  0.5216084246472761  1.0000
  H   H58       1.0  0.8471429360737945  0.9197670044755314  0.5223149969240737  1.0000
  H   H59       1.0  0.5595865628246771  0.039233908455358305  0.3930773047131452  1.0000
  H   H60       1.0  0.5630169312537205  0.25662891210035355  0.39928155143483923  1.0000
  H   H61       1.0  0.883356852594041  0.7341603086027109  0.510087308637722  1.0000
  H   H62       1.0  0.8723146775919517  0.5210057354929986  0.506291765884626  1.0000
  H   H63       1.0  0.5453615886641998  0.6498360115246843  0.3984616637189404  1.0000
  H   H64       1.0  0.5299444153673321  0.8722649974801019  0.39996071999031096  1.0000
  C   C1        1.0  0.24541897171676652  0.687678727729278  0.8875243597899427  1.0000
  C   C2        1.0  0.346809910993052  0.7221782955371623  0.8477948608840221  1.0000
  C   C3        1.0  0.4817632764545223  0.733170859672356  0.8610690506368357  1.0000
  C   C4        1.0  0.5862321476690653  0.7501102537530431  0.822974058536083  1.0000
  C   C5        1.0  0.5595511346778964  0.7592215617633047  0.7703738240869242  1.0000
  C   C6        1.0  0.4180163979770556  0.7564040942190147  0.7580943550133484  1.0000
  C   C7        1.0  0.3150059873013547  0.7362006363930433  0.7959092307579566  1.0000
  C   C8        1.0  0.09800732306137405  0.551817810819003  0.0669862574428848  1.0000
  C   C9        1.0  0.12560086586217523  0.5686985963005001  0.121008463594741  1.0000
  C   C10       1.0  0.04551676465308668  0.5314973374812979  0.1624872607458911  1.0000
  C   C11       1.0  0.07173491364213895  0.5467730441371402  0.21291284682296657  1.0000
  C   C12       1.0  0.18461377336328164  0.5921165470378328  0.2231965108432235  1.0000
  C   C13       1.0  0.26456112473204024  0.6287363180508765  0.18130112362023  1.0000
  C   C14       1.0  0.2328281991655743  0.6200926059687505  0.1308932432717143  1.0000
  C   C15       1.0  0.8928488274033481  0.8851941122648986  0.9938872323848641  1.0000
  C   C16       1.0  0.7724353239543618  0.0097560620254882  0.9939149518801216  1.0000
  C   C17       1.0  0.6609228857418189  0.042629545712479504  0.95744084954044  1.0000
  C   C18       1.0  0.6790201020086924  0.9441841226122495  0.9227162940147551  1.0000
  C   C19       1.0  0.8022117807621998  0.8222478882579126  0.9254762752917925  1.0000
  C   C20       1.0  0.5318346996812479  0.17380965658830416  0.9555225129782909  1.0000
  C   C21       1.0  0.5266527986401286  0.27719448076521064  0.9850591766349339  1.0000
  C   C22       1.0  0.4019358957775338  0.398608520941764  0.9827929017118677  1.0000
  C   C23       1.0  0.2899392029296593  0.327382346417842  0.9233107955522257  1.0000
  C   C24       1.0  0.40848998814186643  0.20232587219574333  0.9240171369892138  1.0000
  C   C25       1.0  0.0677481333419436  0.6870705997620591  0.6126940491283221  1.0000
  C   C26       1.0  0.9318592861229149  0.721757562319745  0.6524257080686979  1.0000
  C   C27       1.0  0.7858112795132399  0.7330570276518245  0.6391056052786935  1.0000
  C   C28       1.0  0.6642767469020044  0.7501081665280723  0.6771589868387123  1.0000
  C   C29       1.0  0.6818232012286671  0.7591467657905826  0.7297676932691814  1.0000
  C   C30       1.0  0.8262776351992117  0.7560399551636581  0.7420817717740533  1.0000
  C   C31       1.0  0.9496419963771391  0.7356592061506718  0.7043088411782605  1.0000
  C   C32       1.0  0.3499252838770774  0.5520150520985824  0.43297659710381  1.0000
  C   C33       1.0  0.30565325063207627  0.5687963920078547  0.3789293076424798  1.0000
  C   C34       1.0  0.4231404944803857  0.5316820899347974  0.3375109413029591  1.0000
  C   C35       1.0  0.3819084564554629  0.5469475392317165  0.2870426835493021  1.0000
  C   C36       1.0  0.22374084939637848  0.5921197251001543  0.2766833407226486  1.0000
  C   C37       1.0  0.10697156561043641  0.6285614853419546  0.3185201093895884  1.0000
  C   C38       1.0  0.1470444232010094  0.6200072974933805  0.3689607339661833  1.0000
  C   C39       1.0  0.22186808135760558  0.8852637897526776  0.5061330098647616  1.0000
  C   C40       1.0  0.21781964217129265  0.009748138350751402  0.5061225304134709  1.0000
  C   C41       1.0  0.2966846455879946  0.0424148225709615  0.5425669365590764  1.0000
  C   C42       1.0  0.377083755304085  0.9438286547500213  0.5772714775308643  1.0000
  C   C43       1.0  0.37558126446705126  0.8220025798830762  0.5745345126206729  1.0000
  C   C44       1.0  0.294830890351939  0.1734840556428737  0.5444783997827116  1.0000
  C   C45       1.0  0.19672629310287706  0.2769206002584427  0.514920428023153  1.0000
  C   C46       1.0  0.200047095326788  0.3982876803540946  0.5171919755116932  1.0000
  C   C47       1.0  0.38337785313865436  0.32685194355734387  0.5766755855894558  1.0000
  C   C48       1.0  0.38973753235816133  0.20185545723795428  0.5759905244035153  1.0000
  C   C49       1.0  0.7545585812283735  0.31232020748358025  0.11248763522516468  1.0000
  C   C50       1.0  0.6531734263212456  0.2778303832846305  0.15221365689150448  1.0000
  C   C51       1.0  0.5182319365230229  0.26684171717898414  0.1389327975770769  1.0000
  C   C52       1.0  0.413771100625553  0.24989258011805043  0.1770242137038736  1.0000
  C   C53       1.0  0.4404521028296174  0.24078127240025543  0.2296236804316294  1.0000
  C   C54       1.0  0.581989912988462  0.2435948407922126  0.24190694773783147  1.0000
  C   C55       1.0  0.6849978508249565  0.2638012203127929  0.2040963348875806  1.0000
  C   C56       1.0  0.9020129066951913  0.44818502456827514  0.9330013850876142  1.0000
  C   C57       1.0  0.8744075404803273  0.4313022908578005  0.8789827369241507  1.0000
  C   C58       1.0  0.9544823396565505  0.46849867843729265  0.8375066896133774  1.0000
  C   C59       1.0  0.9282547828709938  0.45322686945124263  0.7870836905741214  1.0000
  C   C60       1.0  0.8153778833535056  0.40787946871097347  0.7768007944840605  1.0000
  C   C61       1.0  0.7354337746637754  0.3712596963918956  0.8186983631216904  1.0000
  C   C62       1.0  0.7671794353162937  0.37990145842135803  0.8691050294380176  1.0000
  C   C63       1.0  0.10717670147772651  0.11478338684911903  0.006109140520635498  1.0000
  C   C64       1.0  0.2275822591926158  0.9902224115979834  0.006084008219787103  1.0000
  C   C65       1.0  0.3390784985909647  0.9573557488705262  0.042562435799496305  1.0000
  C   C66       1.0  0.3209865320624061  0.05579922277195951  0.0772864452360764  1.0000
  C   C67       1.0  0.1978011407917819  0.1777335086620369  0.074523574122523  1.0000
  C   C68       1.0  0.4681603706219659  0.8261883044378497  0.0444823071258895  1.0000
  C   C69       1.0  0.47332981695526405  0.7228005591041794  0.014945787346697208  1.0000
  C   C70       1.0  0.5980500309267285  0.6013884669834512  0.017212283693289993  1.0000
  C   C71       1.0  0.7100487258614195  0.6726234110085444  0.07669184271974672  1.0000
  C   C72       1.0  0.5915037047094459  0.7976769609138901  0.07598687454937898  1.0000
  C   C73       1.0  0.9322505396565647  0.3129351550657304  0.3873112541973072  1.0000
  C   C74       1.0  0.0681390106786566  0.27824039783908466  0.3475801418680007  1.0000
  C   C75       1.0  0.2141952276410778  0.26694580447453126  0.3608959999580108  1.0000
  C   C76       1.0  0.33572712729282017  0.24989564041703724  0.32284231565148497  1.0000
  C   C77       1.0  0.31818238346654953  0.24085996490989472  0.2702308002899017  1.0000
  C   C78       1.0  0.17371687266117422  0.24396969954428022  0.2579182384593253  1.0000
  C   C79       1.0  0.050356252303522815  0.2643494725719862  0.2956941182433539  1.0000
  C   C80       1.0  0.6500798706856514  0.44798388539528844  0.5670186044593066  1.0000
  C   C81       1.0  0.6943444455506976  0.43120254560870563  0.6210684811672422  1.0000
  C   C82       1.0  0.576855464234214  0.4683139246575794  0.6624877371343557  1.0000
  C   C83       1.0  0.6180885719439573  0.4530377579700797  0.7129553900735601  1.0000
  C   C84       1.0  0.7762542349800442  0.40786946950250796  0.7233151165521363  1.0000
  C   C85       1.0  0.8930260347536321  0.3714247863962186  0.6814771558764718  1.0000
  C   C86       1.0  0.8529479747014506  0.379993590638108  0.6310341461862948  1.0000
  C   C87       1.0  0.7781331855802166  0.11475365979064382  0.49386352323343624  1.0000
  C   C88       1.0  0.7821883004987454  0.9902624885941621  0.4938777199075588  1.0000
  C   C89       1.0  0.7033210183241823  0.9575938571989013  0.4574303647302997  1.0000
  C   C90       1.0  0.6229199484044302  0.0561839228594181  0.42272505582831593  1.0000
  C   C91       1.0  0.6244167291167884  0.17801292058076262  0.4254644860789298  1.0000
  C   C92       1.0  0.7051714624513677  0.826522676071157  0.455518680083145  1.0000
  C   C93       1.0  0.8032813364065204  0.7230841815256072  0.4850780250571276  1.0000
  C   C94       1.0  0.7999567519002612  0.6017161273221987  0.4828074076749829  1.0000
  C   C95       1.0  0.616627758524345  0.6731547864119564  0.42332482727314863  1.0000
  C   C96       1.0  0.6102668868335358  0.7981493249747091  0.42400805042635875  1.0000
  N   N1        1.0  0.908641753827773  0.7919226245104128  0.960341035398322  1.0000
  N   N2        1.0  0.2836964878948366  0.4252108886678129  0.9526419745255694  1.0000
  N   N3        1.0  0.2993505629728688  0.7918613064869577  0.5396673622355337  1.0000
  N   N4        1.0  0.2917900860982243  0.42476308042874694  0.5473281309756501  1.0000
  N   N5        1.0  0.0913777625550907  0.20805195200466642  0.0396567733282609  1.0000
  N   N6        1.0  0.7162978615316367  0.5747948679013534  0.047360420247223096  1.0000
  N   N7        1.0  0.7006443949078547  0.20815809210556319  0.4603305252563601  1.0000
  N   N8        1.0  0.7082168868360058  0.5752387778957697  0.45267193887043783  1.0000
  O   O1        1.0  0.25343593813335724  0.7028888742934216  0.935509479884992  1.0000
  O   O2        1.0  0.1544286604501083  0.6384943646050445  0.8741354365434475  1.0000
  O   O3        1.0  0.1221938051363339  0.626229019319382  0.0321659260984504  1.0000
  O   O4        1.0  0.05418659998132814  0.4627529628186125  0.0578981638236726  1.0000
  O   O5        1.0  0.04426655271386429  0.7023110444578935  0.5647192564172414  1.0000
  O   O6        1.0  0.2079804000379326  0.6378643225050739  0.6260417706388637  1.0000
  O   O7        1.0  0.2511610231561433  0.6264375572653977  0.4677599459630741  1.0000
  O   O8        1.0  0.4827882122156596  0.46293468968613644  0.44216329963600026  1.0000
  O   O9        1.0  0.746523645746997  0.2971032424844964  0.0645048626022628  1.0000
  O   O10       1.0  0.8455485648401008  0.3614967746227364  0.12588055982907062  1.0000
  O   O11       1.0  0.8778010568390333  0.3737728497895888  0.9678104069384543  1.0000
  O   O12       1.0  0.9458478410835556  0.5372410965373435  0.9421029329131727  1.0000
  O   O13       1.0  0.9557170707933056  0.29770348025594734  0.43528913929551283  1.0000
  O   O14       1.0  0.7920068468965841  0.3621365609300399  0.3739675152756519  1.0000
  O   O15       1.0  0.7488280943124013  0.3735633331957687  0.5322300657498502  1.0000
  O   O16       1.0  0.5172195612333541  0.5370720394124717  0.5578385675030262  1.0000
