data_image0
_chemical_formula_structural       Cd2H8C16O12F8
_chemical_formula_sum              "Cd2 H8 C16 O12 F8"
_cell_length_a       6.006078995950016
_cell_length_b       7.397500953779367
_cell_length_c       15.383543360271757
_cell_angle_alpha    92.53179343716425
_cell_angle_beta     99.556810803051
_cell_angle_gamma    97.22859988794363

_space_group_name_H-M_alt    "P 1"
_space_group_IT_number       1

loop_
  _space_group_symop_operation_xyz
  'x, y, z'

loop_
  _atom_site_type_symbol
  _atom_site_label
  _atom_site_symmetry_multiplicity
  _atom_site_fract_x
  _atom_site_fract_y
  _atom_site_fract_z
  _atom_site_occupancy
  Cd  Cd1       1.0  0.5085460368688645  0.753437185063753  0.04905187816738281  1.0000
  Cd  Cd2       1.0  0.4914421346022735  0.246554922198392  0.9509548531573911  1.0000
  H   H1        1.0  0.3193809349226767  0.9212369640665797  0.18150757919674015  1.0000
  H   H2        1.0  0.6806205509996418  0.07876597993918472  0.8184929849412014  1.0000
  H   H3        1.0  0.26121864200045763  0.039432535112851504  0.09962817068025488  1.0000
  H   H4        1.0  0.738767843183908  0.960571737498256  0.9003708890471029  1.0000
  H   H5        1.0  0.8583203210342559  0.5772912873673594  0.117651775900157  1.0000
  H   H6        1.0  0.14166365097575812  0.4227267318035218  0.882353896759227  1.0000
  H   H7        1.0  0.9791240771726921  0.7821044881151523  0.12019811763421019  1.0000
  H   H8        1.0  0.020877564856959907  0.2179081016648183  0.8798084885541613  1.0000
  C   C1        1.0  0.9597277062261753  0.21020501593023508  0.1944574289516225  1.0000
  C   C2        1.0  0.0402844052729208  0.7898102834035045  0.8055472413274457  1.0000
  C   C3        1.0  0.8763053797335231  0.12655732281423582  0.2639899346424883  1.0000
  C   C4        1.0  0.12370052898416617  0.8734524255129017  0.7360090663872754  1.0000
  C   C5        1.0  0.007883809366035213  0.13397409169382973  0.3481952298255067  1.0000
  C   C6        1.0  0.9921516144819691  0.8660315443739892  0.6518008728051541  1.0000
  C   C7        1.0  0.2291888149197376  0.226636476109789  0.3632527697793932  1.0000
  C   C8        1.0  0.7708140248159905  0.7733759477630217  0.6367428509923201  1.0000
  C   C9        1.0  0.31465680843912486  0.31106237015381316  0.29370658749525796  1.0000
  C   C10       1.0  0.6853452248420879  0.688936321013749  0.706283526317705  1.0000
  C   C11       1.0  0.1837426010948278  0.30339325874799533  0.20977658269681845  1.0000
  C   C12       1.0  0.8162553894985722  0.6965974711368832  0.7902287478103389  1.0000
  C   C13       1.0  0.812175006926701  0.20982982036580478  0.1054140914030768  1.0000
  C   C14       1.0  0.18781553487903577  0.7901785551305522  0.8945852833399427  1.0000
  C   C15       1.0  0.288272532181658  0.37735732501527514  0.13315982785230318  1.0000
  C   C16       1.0  0.711719597567068  0.6226292592304007  0.8668424804914565  1.0000
  O   O1        1.0  0.6965681090127871  0.06347338568636471  0.06878777263475648  1.0000
  O   O2        1.0  0.3034337719652953  0.9365322696917743  0.9312115654062296  1.0000
  O   O3        1.0  0.8057141385318901  0.3620991170436413  0.0700209847956188  1.0000
  O   O4        1.0  0.19427995395688671  0.6379093240881492  0.9299825001891192  1.0000
  O   O5        1.0  0.2955088969395874  0.25587649636545257  0.0722027077279108  1.0000
  O   O6        1.0  0.7044650451527162  0.7441018839283303  0.9277996803968732  1.0000
  O   O7        1.0  0.3588994395246346  0.5447421175712394  0.1371615114910014  1.0000
  O   O8        1.0  0.6411027022297233  0.45524573111583083  0.8628336057500406  1.0000
  O   O9        1.0  0.2508757948222709  0.9104703187109994  0.1191949179656433  1.0000
  O   O10       1.0  0.7491154363417821  0.08952168527043372  0.8808048391439556  1.0000
  O   O11       1.0  0.8426808955065113  0.7064168612990686  0.1339572954706725  1.0000
  O   O12       1.0  0.15731521043191074  0.2936025743658491  0.8660510655293834  1.0000
  F   F1        1.0  0.6599955495859787  0.039034899898531684  0.2537591993024719  1.0000
  F   F2        1.0  0.34000216388816545  0.9609653267168952  0.7462423928519684  1.0000
  F   F3        1.0  0.921008902187161  0.0537397756332112  0.4141198800661954  1.0000
  F   F4        1.0  0.07901153105224522  0.9462467206577402  0.5858749835852706  1.0000
  F   F5        1.0  0.3583424413571591  0.23364070549066446  0.4438598865658321  1.0000
  F   F6        1.0  0.641673323924806  0.7663171425380356  0.5561361146199388  1.0000
  F   F7        1.0  0.5323553754802219  0.3952314853938645  0.3098771375885717  1.0000
  F   F8        1.0  0.4676524562375944  0.6047726176728929  0.6901095170974259  1.0000
