data_image0
_chemical_formula_structural       Ni4H152C106N24O24
_chemical_formula_sum              "Ni4 H152 C106 N24 O24"
_cell_length_a       8.955968002143411
_cell_length_b       18.88961879685945
_cell_length_c       23.404694630971147
_cell_angle_alpha    86.08663915787322
_cell_angle_beta     78.979152292942
_cell_angle_gamma    76.27938779885675

_space_group_name_H-M_alt    "P 1"
_space_group_IT_number       1

loop_
  _space_group_symop_operation_xyz
  'x, y, z'

loop_
  _atom_site_type_symbol
  _atom_site_label
  _atom_site_symmetry_multiplicity
  _atom_site_fract_x
  _atom_site_fract_y
  _atom_site_fract_z
  _atom_site_occupancy
  Ni  Ni1       1.0  0.49999883471613066  0.5000009458914361  5.787225632119272e-07  1.0000
  Ni  Ni2       1.0  1.0155980019650525e-06  0.9999975632341814  0.5000010369114418  1.0000
  Ni  Ni3       1.0  0.4999986204716578  2.4609381909934456e-07  0.9999992976931362  1.0000
  Ni  Ni4       1.0  0.4999997730426102  0.5000003950930959  0.4999992638719489  1.0000
  H   H1        1.0  0.6111633455611027  0.3834316419474603  0.04949608882965611  1.0000
  H   H2        1.0  0.7392164479098897  0.5274565168340144  0.029221997585288772  1.0000
  H   H3        1.0  0.3646835788822214  0.476464127812214  0.13407780692097046  1.0000
  H   H4        1.0  0.4946692299631792  0.3948726834470477  0.15433235898077408  1.0000
  H   H5        1.0  0.6465667554275499  0.5846652760235712  0.12382495699242207  1.0000
  H   H6        1.0  0.45332788113029904  0.5839793573536697  0.11335904678208657  1.0000
  H   H7        1.0  0.2648387809438404  0.4150622069710223  0.0721618134151782  1.0000
  H   H8        1.0  0.38889993306108284  0.32669865673047144  0.07680421903066299  1.0000
  H   H9        1.0  0.6943422095496602  0.656985969627378  0.019382533907744894  1.0000
  H   H10       1.0  0.4910006709060396  0.6606573148042898  0.02918433566922829  1.0000
  H   H11       1.0  0.8131918440120884  0.41985270820900666  0.08516976999719357  1.0000
  H   H12       1.0  0.7568748932392352  0.3955412329276483  0.15947438141540715  1.0000
  H   H13       1.0  0.8236079730506419  0.4773188049927483  0.14160129149011166  1.0000
  H   H14       1.0  0.5193695896196358  0.9122877359415399  0.9221969777506371  1.0000
  H   H15       1.0  0.26507247312222393  0.9461371561225319  0.0378486404313065  1.0000
  H   H16       1.0  0.39131995096256833  0.9858451113948945  0.1350340822574765  1.0000
  H   H17       1.0  0.19460177924334932  0.9788287660434278  0.13762972462393458  1.0000
  H   H18       1.0  0.5341392540314233  0.8733431608643084  0.0915805852028626  1.0000
  H   H19       1.0  0.35523859012294406  0.8429122784412896  0.1013139899159796  1.0000
  H   H20       1.0  0.78998230665902  0.8912882544108458  0.87400247458077  1.0000
  H   H21       1.0  0.8351493052672722  0.9199277399643361  0.9384663230721484  1.0000
  H   H22       1.0  0.6790156484638246  0.7940270537770572  0.9516962605260912  1.0000
  H   H23       1.0  0.7196745814045897  0.8427798226836529  0.007806697434951087  1.0000
  H   H24       1.0  0.3112726674025125  0.860645962023824  0.9686360932047858  1.0000
  H   H25       1.0  0.2891820362726562  0.7894189304882675  0.022000173368716996  1.0000
  H   H26       1.0  0.4287192614301816  0.7714411416947797  0.9569843122966615  1.0000
  H   H27       1.0  0.7026697381440742  0.13370430631835006  0.7684932972301012  1.0000
  H   H28       1.0  0.8445346230971821  0.1743076536622752  0.7214160307532892  1.0000
  H   H29       1.0  0.452665442900397  0.20840568918504937  0.8129049006793136  1.0000
  H   H30       1.0  0.5360944206511604  0.2722097890811099  0.8419620371898727  1.0000
  H   H31       1.0  0.06703218313096929  0.28219586696091875  0.9695328229832112  1.0000
  H   H32       1.0  0.1918153218103525  0.9869977933927461  0.8080800177949  1.0000
  H   H33       1.0  0.9822881186834492  0.06913789606511499  0.7616396812262634  1.0000
  H   H34       1.0  0.3146710339242702  0.24885326416104897  0.8982336778738113  1.0000
  H   H35       1.0  0.12465815826781318  0.4148059320062529  0.778607266409743  1.0000
  H   H36       1.0  0.879532558794402  0.4499063458411283  0.8530864708794109  1.0000
  H   H37       1.0  0.1054869818822368  0.13692615659518742  0.9462437642302103  1.0000
  H   H38       1.0  0.8999084445701017  0.2213632239630812  0.8996168500077599  1.0000
  H   H39       1.0  0.0439840435401351  0.11658910778938748  0.45057248893935753  1.0000
  H   H40       1.0  0.29603450445110724  0.9726969036074987  0.471039941398942  1.0000
  H   H41       1.0  0.9757729108745322  0.0234479689988731  0.3659138233242982  1.0000
  H   H42       1.0  0.044148104931792886  0.10510749410723719  0.34571186866030246  1.0000
  H   H43       1.0  0.3559171065025738  0.9155474575033361  0.376415597784721  1.0000
  H   H44       1.0  0.15170569117881877  0.915988753000711  0.3867236378852325  1.0000
  H   H45       1.0  0.7523192292310696  0.08486015670035131  0.42761050677889756  1.0000
  H   H46       1.0  0.7924446429258724  0.17324927765278633  0.4230676241443233  1.0000
  H   H47       1.0  0.3711556584823085  0.8431839460113791  0.4808746080307173  1.0000
  H   H48       1.0  0.1815018766819634  0.8394269173052463  0.47085403651630725  1.0000
  H   H49       1.0  0.3184159860779871  0.0803827176801448  0.4149036744015432  1.0000
  H   H50       1.0  0.31197092493252393  0.1045914613530812  0.3405837652466913  1.0000
  H   H51       1.0  0.4427998339514545  0.022885776217087494  0.3585106528928605  1.0000
  H   H52       1.0  0.35370695597634944  0.5877317994459826  0.5777605183862845  1.0000
  H   H53       1.0  0.24900364306516554  0.5539501628966403  0.4620549587518424  1.0000
  H   H54       1.0  0.5122909174453341  0.5142683662519117  0.36494705855638887  1.0000
  H   H55       1.0  0.31122021640795344  0.5212217735717815  0.362294236899288  1.0000
  H   H56       1.0  0.499006239187935  0.626715031095614  0.40839000420665866  1.0000
  H   H57       1.0  0.299370474248441  0.657195320406494  0.3986691741340706  1.0000
  H   H58       1.0  0.5549456851457109  0.608623598129732  0.6260914594161446  1.0000
  H   H59       1.0  0.6933564827791303  0.5800171801196539  0.5616770402611946  1.0000
  H   H60       1.0  0.4247185993511308  0.7059510832841198  0.5483388170754893  1.0000
  H   H61       1.0  0.5703016811611973  0.6571930813474366  0.49223365072107567  1.0000
  H   H62       1.0  0.14049438447994334  0.6394422428627422  0.5312970228147689  1.0000
  H   H63       1.0  0.10067061783087182  0.7106596952532697  0.4778902913864157  1.0000
  H   H64       1.0  0.1570549391277609  0.7286548668018752  0.5429356271604248  1.0000
  H   H65       1.0  0.6052512597678259  0.36656968689752745  0.7315183754162149  1.0000
  H   H66       1.0  0.7402801860337148  0.3258047571996343  0.7787305552942527  1.0000
  H   H67       1.0  0.4736713622647244  0.29186051131568286  0.6870813004863834  1.0000
  H   H68       1.0  0.6503840379829597  0.22827994040979863  0.6579919362589094  1.0000
  H   H69       1.0  0.31936874261038634  0.217855217692545  0.5302955357236029  1.0000
  H   H70       1.0  0.9874323973082185  0.5131442280947595  0.6919391930881883  1.0000
  H   H71       1.0  0.8136174352548335  0.4310474485741551  0.7384510313421159  1.0000
  H   H72       1.0  0.46246309841063765  0.25118346751346365  0.6015829887666084  1.0000
  H   H73       1.0  0.31887245464481856  0.08525046057994251  0.721220236968122  1.0000
  H   H74       1.0  0.1832483411189614  0.050172793246261393  0.6467649043380774  1.0000
  H   H75       1.0  0.1889449050626197  0.3631090833468278  0.5538287120685722  1.0000
  H   H76       1.0  0.021239717031313908  0.2787311096481702  0.6005169415505945  1.0000
  H   H77       1.0  0.38883478775539265  0.6165696941497386  0.9505029360356402  1.0000
  H   H78       1.0  0.2607813250946973  0.4725431860875703  0.9707784239982328  1.0000
  H   H79       1.0  0.6353173478380542  0.5235361190795231  0.8659219349263336  1.0000
  H   H80       1.0  0.5053280168130028  0.6051281090178406  0.8456676128043338  1.0000
  H   H81       1.0  0.3534346894877132  0.41533388197899507  0.8761756624594952  1.0000
  H   H82       1.0  0.5466716006875812  0.41602143806564124  0.8866429034114203  1.0000
  H   H83       1.0  0.7351572189801202  0.5849364086859552  0.9278405020079745  1.0000
  H   H84       1.0  0.6111015198875975  0.6733005006179624  0.9231959726150617  1.0000
  H   H85       1.0  0.3056555554215167  0.3430137339483393  0.980618315481976  1.0000
  H   H86       1.0  0.5089959644941613  0.3393423882754263  0.970816166225596  1.0000
  H   H87       1.0  0.18680618808999572  0.5801464502679892  0.9148310903886382  1.0000
  H   H88       1.0  0.24312402540316205  0.6044584691816511  0.8405255320506126  1.0000
  H   H89       1.0  0.17639288458889976  0.5226792616622333  0.8583985746529306  1.0000
  H   H90       1.0  0.4806381948606671  0.0877125073847935  0.07780057100404748  1.0000
  H   H91       1.0  0.7349242634923809  0.05386472457738728  0.9621500259429823  1.0000
  H   H92       1.0  0.6086823355125262  0.014152408040793296  0.8649644311517616  1.0000
  H   H93       1.0  0.8053991715771716  0.021171478885889897  0.8623687338047643  1.0000
  H   H94       1.0  0.4658531302157911  0.1266559951326869  0.9084185377084778  1.0000
  H   H95       1.0  0.6447533080629454  0.15708796382831736  0.8986825441659432  1.0000
  H   H96       1.0  0.2100189032589981  0.1087114460738903  0.125996422650239  1.0000
  H   H97       1.0  0.1648530422551389  0.08007196036225388  0.06153249384756518  1.0000
  H   H98       1.0  0.3209838205072373  0.20597155682651186  0.04830281931974409  1.0000
  H   H99       1.0  0.28032374192866166  0.15721878873219447  0.9921928905283861  1.0000
  H   H100      1.0  0.6887255831952217  0.13935755038528438  0.03136024052757589  1.0000
  H   H101      1.0  0.7108138700355582  0.21058240200036235  0.9779964452819807  1.0000
  H   H102      1.0  0.5712814784933542  0.22855964375428778  0.043011140492524184  1.0000
  H   H103      1.0  0.29732270393044047  0.8662992166935692  0.23150985515178488  1.0000
  H   H104      1.0  0.15546024725580307  0.8256909614987007  0.27858593717496655  1.0000
  H   H105      1.0  0.5473293258034249  0.7915956434617257  0.18709179828267955  1.0000
  H   H106      1.0  0.4638995952951819  0.7277882798309959  0.15803916643338303  1.0000
  H   H107      1.0  0.9329609956341899  0.7178109210939496  0.030466680349825023  1.0000
  H   H108      1.0  0.8081746100581312  0.0130062724176199  0.19192157298869  1.0000
  H   H109      1.0  0.01769452603237198  0.9308623598982918  0.23836562366390265  1.0000
  H   H110      1.0  0.6853214563507491  0.7511502549260313  0.1017669076708714  1.0000
  H   H111      1.0  0.8753425784356991  0.5851970395668359  0.22139191233951994  1.0000
  H   H112      1.0  0.12046888246608489  0.5500998933914615  0.14691077004580674  1.0000
  H   H113      1.0  0.8945148072780994  0.8630746358912802  0.05375631411588697  1.0000
  H   H114      1.0  0.10008941839546279  0.7786408433568608  0.10038588982150287  1.0000
  H   H115      1.0  0.9560191941773721  0.8834040549394829  0.5494287595872505  1.0000
  H   H116      1.0  0.703971724720354  0.027292444580432087  0.5289621594015159  1.0000
  H   H117      1.0  0.024231731578275396  0.9765446484731299  0.6340873558871107  1.0000
  H   H118      1.0  0.9558551247522893  0.8948856692757731  0.6542898076725051  1.0000
  H   H119      1.0  0.644085252708038  0.08444516093909019  0.6235861698554928  1.0000
  H   H120      1.0  0.8483000969118067  0.0840038636590137  0.6132770332086748  1.0000
  H   H121      1.0  0.24768849785668592  0.9151308245050486  0.5723901169920254  1.0000
  H   H122      1.0  0.20755826661339685  0.8267422492839099  0.5769333098757057  1.0000
  H   H123      1.0  0.62884096772585  0.1568064910225715  0.5191264020431487  1.0000
  H   H124      1.0  0.8184945514760217  0.16056624506419578  0.5291468382657172  1.0000
  H   H125      1.0  0.6815884422578121  0.9196126264356226  0.58509822513043  1.0000
  H   H126      1.0  0.6880292602837059  0.895403335025833  0.6594163274955986  1.0000
  H   H127      1.0  0.5572065574817271  0.9771079304819495  0.6414899158975301  1.0000
  H   H128      1.0  0.646292063880459  0.4122700802835196  0.42223755955919967  1.0000
  H   H129      1.0  0.7509925512541998  0.44605280865486907  0.5379441134364383  1.0000
  H   H130      1.0  0.4877041633698908  0.4857346034953238  0.6350508105245891  1.0000
  H   H131      1.0  0.6887731154268905  0.4787801069484204  0.6377042426027087  1.0000
  H   H132      1.0  0.5009941773707638  0.3732863040311614  0.5916084322298331  1.0000
  H   H133      1.0  0.7006294321486807  0.3428071029553053  0.6013279568915946  1.0000
  H   H134      1.0  0.44505421321799316  0.391378825886207  0.3739060994157271  1.0000
  H   H135      1.0  0.30664534654829373  0.41998360909610705  0.4383208990538988  1.0000
  H   H136      1.0  0.5752829628453711  0.29405025103036303  0.4516591112435008  1.0000
  H   H137      1.0  0.4296978809908579  0.34280770753046846  0.5077640214104234  1.0000
  H   H138      1.0  0.8595096879225964  0.3605585486533016  0.4687024671025171  1.0000
  H   H139      1.0  0.8993255523882338  0.2893432782606595  0.5221100642204632  1.0000
  H   H140      1.0  0.8429488661438637  0.27134646981289023  0.4570638517607576  1.0000
  H   H141      1.0  0.3947483312978831  0.6334332854878397  0.26848131145055726  1.0000
  H   H142      1.0  0.2597199071601465  0.6741971276048487  0.22127086478953825  1.0000
  H   H143      1.0  0.5263335356308048  0.7081386429417549  0.3129169390006296  1.0000
  H   H144      1.0  0.34961598613016065  0.7717197641579219  0.3420096081206124  1.0000
  H   H145      1.0  0.6806424053239651  0.7821357623842998  0.46970441930721296  1.0000
  H   H146      1.0  0.012562947417897893  0.48686038267776865  0.3080624129489777  1.0000
  H   H147      1.0  0.18637897799494127  0.568954981803472  0.2615506186794717  1.0000
  H   H148      1.0  0.5375422084320648  0.7488124208887541  0.3984183916517593  1.0000
  H   H149      1.0  0.6811306428498086  0.9147497944993428  0.2787849057371901  1.0000
  H   H150      1.0  0.8167577799632891  0.9498236446755186  0.35323937941627986  1.0000
  H   H151      1.0  0.8110521034963013  0.6368944377242511  0.4461732634557051  1.0000
  H   H152      1.0  0.9787607445078734  0.7212724076777806  0.39948265400877137  1.0000
  C   C1        1.0  0.48336515994720486  0.44196377018358396  0.12331316253699498  1.0000
  C   C2        1.0  0.5770406147424367  0.5550892174274865  0.10446306761544118  1.0000
  C   C3        1.0  0.3798268799341996  0.380535230610448  0.0542491759305506  1.0000
  C   C4        1.0  0.6076152520986681  0.6281239744153808  0.011065181906552415  1.0000
  C   C5        1.0  0.7551345406451592  0.4420274898859161  0.12844971159630345  1.0000
  C   C6        1.0  0.297120801202624  0.9932846815344829  0.1095442010565151  1.0000
  C   C7        1.0  0.4358048497296635  0.8698819980198991  0.07085298479039182  1.0000
  C   C8        1.0  0.7435614987711076  0.9273249388367901  0.9116992847450048  1.0000
  C   C9        1.0  0.6315380438550875  0.8403575823199887  0.981551314173849  1.0000
  C   C10       1.0  0.3743202732123122  0.8121466637812842  0.9905920329646488  1.0000
  C   C11       1.0  0.7505196489729329  0.182837115499936  0.7599130561223432  1.0000
  C   C12       1.0  0.16128126899294407  0.05654407387204689  0.8799579113663255  1.0000
  C   C13       1.0  0.49279556138808533  0.2594670634293266  0.8037950186738668  1.0000
  C   C14       1.0  0.23418253192809863  0.3301475878102309  0.8336694418408612  1.0000
  C   C15       1.0  0.0815552611379218  0.31125597404502503  0.9276773593240076  1.0000
  C   C16       1.0  0.9584240922790028  0.3679899003331428  0.9160905726162765  1.0000
  C   C17       1.0  0.12591864609304787  0.0383402674246369  0.8279149939871357  1.0000
  C   C18       1.0  0.9272561108993782  0.14976018880938113  0.8288917072602757  1.0000
  C   C19       1.0  0.0089963212661459  0.08425468182148417  0.8020190756779397  1.0000
  C   C20       1.0  0.2195801604187579  0.2920696639527164  0.8872216020702763  1.0000
  C   C21       1.0  0.28921727046640205  0.0077760102641732986  0.90713944557784  1.0000
  C   C22       1.0  0.1108417686053542  0.3866114917112924  0.8208576400651066  1.0000
  C   C23       1.0  0.9752789482677002  0.40542055670228183  0.8620802735446984  1.0000
  C   C24       1.0  0.07794661441145222  0.12268260219050826  0.9058038154400092  1.0000
  C   C25       1.0  0.8115615099878327  0.3874261726920096  0.9608444277643001  1.0000
  C   C26       1.0  0.9629255352587549  0.16921225771669407  0.8805625904890062  1.0000
  C   C27       1.0  0.0489928434374818  0.05801281072477591  0.3767429540073052  1.0000
  C   C28       1.0  0.23731863539789805  0.9450060625546967  0.3957046219080168  1.0000
  C   C29       1.0  0.8145755719023667  0.11941451721364159  0.44564831898716745  1.0000
  C   C30       1.0  0.2472274066972488  0.8719787172853799  0.48906936018547487  1.0000
  C   C31       1.0  0.32584039515403873  0.05814249758550009  0.37164644498236027  1.0000
  C   C32       1.0  0.4000597393309419  0.5068139226575711  0.3904135334883065  1.0000
  C   C33       1.0  0.3764942270386342  0.6301983260058321  0.4291170251412522  1.0000
  C   C34       1.0  0.5823512635955339  0.5726005593150915  0.5883760191212204  1.0000
  C   C35       1.0  0.45346646383194406  0.6596358271957355  0.5184653965580351  1.0000
  C   C36       1.0  0.17701752409512742  0.6879270026253437  0.5093451098855722  1.0000
  C   C37       1.0  0.6934847941376034  0.3173760329562684  0.7401506870570171  1.0000
  C   C38       1.0  0.09824752234757035  0.443496619082836  0.620118759889074  1.0000
  C   C39       1.0  0.5560732796119795  0.2408699308424929  0.6961425914201199  1.0000
  C   C40       1.0  0.39865035964009365  0.16993454581243841  0.6661669016836383  1.0000
  C   C41       1.0  0.32109571040489726  0.18880497359013046  0.5721584843025979  1.0000
  C   C42       1.0  0.24308888497488113  0.13208055545690905  0.5837563205469819  1.0000
  C   C43       1.0  0.9926946461922553  0.4617750890875597  0.6721600192885473  1.0000
  C   C44       1.0  0.9063326682629339  0.35039023760931803  0.6712321448858984  1.0000
  C   C45       1.0  0.8957743703942996  0.4159006168577618  0.698081157140855  1.0000
  C   C46       1.0  0.399503693555772  0.20800363059246507  0.612614773525891  1.0000
  C   C47       1.0  0.2043484030805588  0.4923095930341857  0.5928458403297155  1.0000
  C   C48       1.0  0.318995746008234  0.1134698726546617  0.6789803303380565  1.0000
  C   C49       1.0  0.24342242454076057  0.0946602615814953  0.6377633712121875  1.0000
  C   C50       1.0  0.10685439946262681  0.3773593611395754  0.5942964124372877  1.0000
  C   C51       1.0  0.15995171338142458  0.11273173690982222  0.5391126174923784  1.0000
  C   C52       1.0  0.01309859250147839  0.33088253493075825  0.619561815115901  1.0000
  C   C53       1.0  0.5166346131018427  0.5580364781745787  0.8766875152340176  1.0000
  C   C54       1.0  0.42295827176629064  0.4449104872983724  0.8955385570753831  1.0000
  C   C55       1.0  0.6201725569031922  0.6194633826096806  0.9457516151400823  1.0000
  C   C56       1.0  0.39238197861067203  0.37187681935779426  0.9889356454909544  1.0000
  C   C57       1.0  0.24486463709474285  0.5579716677787941  0.8715506406720266  1.0000
  C   C58       1.0  0.7028809510106413  0.0067139280986552  0.8904542903605088  1.0000
  C   C59       1.0  0.5641890244004274  0.13011879164871223  0.9291450888976198  1.0000
  C   C60       1.0  0.2564399782778253  0.07267421654921691  0.08829962348211495  1.0000
  C   C61       1.0  0.36846064782348975  0.15964266161733323  0.018446449265056203  1.0000
  C   C62       1.0  0.6256779002712706  0.18785466904520828  0.009404852869636191  1.0000
  C   C63       1.0  0.24947729853866465  0.8171642246802404  0.24008861589146582  1.0000
  C   C64       1.0  0.8387158648806404  0.9434616228568087  0.1200409452188111  1.0000
  C   C65       1.0  0.5072002806527891  0.7405342742924288  0.19620502242644017  1.0000
  C   C66       1.0  0.7658142496669953  0.6698564750888707  0.16633038365630162  1.0000
  C   C67       1.0  0.9184421478999881  0.688749176930969  0.07232108045103297  1.0000
  C   C68       1.0  0.041577316847813954  0.6320163415160137  0.08390837953373878  1.0000
  C   C69       1.0  0.8740808678585028  0.9616605253781144  0.1720852449815737  1.0000
  C   C70       1.0  0.07273689757062832  0.8502422413885284  0.17110975588902724  1.0000
  C   C71       1.0  0.9909920596721375  0.9157455694263774  0.19798326081851056  1.0000
  C   C72       1.0  0.7804158117501744  0.7079360348967042  0.11277861824476079  1.0000
  C   C73       1.0  0.7107818506048171  0.9922280470855259  0.09285679684710856  1.0000
  C   C74       1.0  0.8891541007557893  0.6133876579240152  0.17913739165651774  1.0000
  C   C75       1.0  0.024717117082218455  0.5945873204214749  0.13791853905600954  1.0000
  C   C76       1.0  0.9220493208104159  0.8773209138055904  0.0941948179459544  1.0000
  C   C77       1.0  0.18844023535064028  0.6125817042951807  0.03915441108608769  1.0000
  C   C78       1.0  0.037073772609204365  0.8307912610756745  0.11943794099406087  1.0000
  C   C79       1.0  0.9510117990153267  0.9419798067472339  0.6232582252041039  1.0000
  C   C80       1.0  0.7626848373168541  0.0549865576920112  0.6042983488394993  1.0000
  C   C81       1.0  0.18542593290160164  0.880577554979915  0.5543526843480606  1.0000
  C   C82       1.0  0.7527712356222053  0.1280122638768688  0.5109310504634691  1.0000
  C   C83       1.0  0.6741628505968793  0.9418506644892303  0.6283543757380412  1.0000
  C   C84       1.0  0.5999355925483557  0.4931885032992155  0.609585202201181  1.0000
  C   C85       1.0  0.6235070680269601  0.36980355340738674  0.570880892181627  1.0000
  C   C86       1.0  0.4176491449297473  0.42740077646581637  0.411622845121471  1.0000
  C   C87       1.0  0.54653343453176  0.3403665968202034  0.48153216227383655  1.0000
  C   C88       1.0  0.8229817387923434  0.31207433396784257  0.4906542624746208  1.0000
  C   C89       1.0  0.30651445268303235  0.6826253049452048  0.2598495409155746  1.0000
  C   C90       1.0  0.901750615782319  0.5565069024842444  0.3798835631301002  1.0000
  C   C91       1.0  0.44392678466823543  0.7591297704545212  0.30385681392839087  1.0000
  C   C92       1.0  0.6013533203168677  0.8300646151445503  0.33383569617668474  1.0000
  C   C93       1.0  0.6789160778190888  0.8111892793793416  0.4278429553537747  1.0000
  C   C94       1.0  0.7569205718063969  0.8679137024078258  0.4162482743754054  1.0000
  C   C95       1.0  0.007303438923734897  0.5382262509344784  0.3278415724139521  1.0000
  C   C96       1.0  0.09366097568331352  0.6496132800113446  0.32876750473507593  1.0000
  C   C97       1.0  0.1042210144989042  0.5841039906440668  0.3019183098653072  1.0000
  C   C98       1.0  0.600503079069554  0.7919938934437808  0.38738684108774624  1.0000
  C   C99       1.0  0.7956483704811176  0.5076944705190557  0.4071544129736464  1.0000
  C   C100      1.0  0.6810110474973212  0.8865298355431931  0.32102372681705293  1.0000
  C   C101      1.0  0.756584016686311  0.905337812786598  0.36224165485495513  1.0000
  C   C102      1.0  0.8931477339427829  0.6226430658307862  0.40570312480299003  1.0000
  C   C103      1.0  0.8400676247475046  0.8872587002320032  0.46088892538642756  1.0000
  C   C104      1.0  0.9869017838901328  0.669118803466709  0.3804387603515949  1.0000
  C   C105      1.0  0.6224183605309221  0.25015485937314713  0.7499948767570286  1.0000
  C   C106      1.0  0.3775805661448929  0.7498448420820124  0.2500046089027919  1.0000
  N   N1        1.0  0.5008870764544823  0.4169224869492679  0.063301855975169  1.0000
  N   N2        1.0  0.6250591416760897  0.5553061029605004  0.039775553638321484  1.0000
  N   N3        1.0  0.593949991208625  0.48337738422964077  0.13103302314149795  1.0000
  N   N4        1.0  0.6033196043695952  0.9099824460126694  0.9481361097470254  1.0000
  N   N5        1.0  0.35627441185007314  0.946332507781534  0.058382790040042196  1.0000
  N   N6        1.0  0.4947182025521572  0.8258540884992127  0.01988890408423317  1.0000
  N   N7        1.0  0.9811352614836085  0.08305940874614488  0.43673429056865826  1.0000
  N   N8        1.0  0.22049365929203893  0.9448072835581911  0.4603909142475969  1.0000
  N   N9        1.0  0.2087900108682277  0.0166939383782889  0.36910638236050625  1.0000
  N   N10       1.0  0.46135839006354473  0.5899881246896682  0.5518599876162964  1.0000
  N   N11       1.0  0.36096518171838426  0.5537534852817886  0.4415783560054363  1.0000
  N   N12       1.0  0.34046984552496434  0.6741830347186591  0.4801004526282212  1.0000
  N   N13       1.0  0.49911017032169974  0.5830783055156272  0.9366981158099388  1.0000
  N   N14       1.0  0.3749372105263617  0.44469414652623135  0.9602257928727977  1.0000
  N   N15       1.0  0.40605004897133773  0.5166223190297928  0.8689676656256252  1.0000
  N   N16       1.0  0.3966827431528159  0.09001725431392059  0.051862707172681176  1.0000
  N   N17       1.0  0.6437213691434847  0.05366664904931888  0.9416169475497965  1.0000
  N   N18       1.0  0.5052790763576952  0.17414670134911597  0.9801093564760703  1.0000
  N   N19       1.0  0.0188670816601685  0.9169332110045615  0.563268332683961  1.0000
  N   N20       1.0  0.7795132133890731  0.0551831513983458  0.5396089452183332  1.0000
  N   N21       1.0  0.7912140732225055  0.9832997712535912  0.6308960582772939  1.0000
  N   N22       1.0  0.5386400874980168  0.4100148458914176  0.44813849614317275  1.0000
  N   N23       1.0  0.6390321582387842  0.4462494854574429  0.5584202080653426  1.0000
  N   N24       1.0  0.6595300448053222  0.3258193899514196  0.51989753400985  1.0000
  O   O1        1.0  0.8079131042538777  0.1986848010788904  0.8094417083807668  1.0000
  O   O2        1.0  0.31282772337426223  0.0320094085189098  0.954055504336459  1.0000
  O   O3        1.0  0.3639213074816114  0.948983923849837  0.882731610716213  1.0000
  O   O4        1.0  0.7152928913613226  0.4471274668396886  0.9503657567075972  1.0000
  O   O5        1.0  0.7933400946398308  0.3449254757088979  0.00448080928971002  1.0000
  O   O6        1.0  0.3662021901281277  0.31723408315562546  0.7918328205774541  1.0000
  O   O7        1.0  0.816466686897698  0.3014836074143545  0.6906997320811001  1.0000
  O   O8        1.0  0.2991853805094564  0.46801260551541896  0.5459671505713287  1.0000
  O   O9        1.0  0.19558119423093961  0.5512175028633732  0.6171493267566602  1.0000
  O   O10       1.0  0.11239292765021247  0.053175756935466695  0.5497237205250085  1.0000
  O   O11       1.0  0.14292645964434314  0.15517297057714788  0.4954368834109386  1.0000
  O   O12       1.0  0.47574468931014746  0.18294570191743278  0.7080303177683474  1.0000
  O   O13       1.0  0.19208217139150457  0.801317629456882  0.1905600219521232  1.0000
  O   O14       1.0  0.687159867424718  0.9679902912469625  0.04594264540538971  1.0000
  O   O15       1.0  0.6361158284729312  0.0510310189987493  0.11725451505786565  1.0000
  O   O16       1.0  0.2847076922725049  0.5528804122680668  0.0496344458726981  1.0000
  O   O17       1.0  0.2066525048830101  0.6550802203442386  0.9955175129282307  1.0000
  O   O18       1.0  0.6337948505644562  0.6827694352988869  0.20816744372201867  1.0000
  O   O19       1.0  0.18353456800080875  0.6985182752695636  0.30930032427278314  1.0000
  O   O20       1.0  0.7008127656538576  0.5319909153975146  0.45403474464164606  1.0000
  O   O21       1.0  0.8044161826733001  0.44878765072918003  0.38285082424319217  1.0000
  O   O22       1.0  0.8876168123288151  0.9468179545222595  0.45028002978108356  1.0000
  O   O23       1.0  0.8571067920548144  0.8448147340983709  0.5045604085744698  1.0000
  O   O24       1.0  0.5242605817441018  0.8170572703313679  0.2919693953481114  1.0000
