data_image0
_chemical_formula_structural       Zr6H74C98N2O32
_chemical_formula_sum              "Zr6 H74 C98 N2 O32"
_cell_length_a       19.085085355177554
_cell_length_b       19.069929383611353
_cell_length_c       19.07869847413785
_cell_angle_alpha    59.83813751435199
_cell_angle_beta     59.95466031436809
_cell_angle_gamma    60.01158058568281

_space_group_name_H-M_alt    "P 1"
_space_group_IT_number       1

loop_
  _space_group_symop_operation_xyz
  'x, y, z'

loop_
  _atom_site_type_symbol
  _atom_site_label
  _atom_site_symmetry_multiplicity
  _atom_site_fract_x
  _atom_site_fract_y
  _atom_site_fract_z
  _atom_site_occupancy
  Zr  Zr1       1.0  0.9037087741942006  0.41106638811275065  0.5898412036509056  1.0000
  Zr  Zr2       1.0  0.09531905196362099  0.5891835612013453  0.411893636973339  1.0000
  Zr  Zr3       1.0  0.08887103456334704  0.4034501923972515  0.5972904131302245  1.0000
  Zr  Zr4       1.0  0.9104206301331315  0.596534629169206  0.4041788569906755  1.0000
  Zr  Zr5       1.0  0.9070252050079405  0.5925423951623049  0.5933555879124054  1.0000
  Zr  Zr6       1.0  0.0919608316443005  0.40774540062141545  0.4083953837421106  1.0000
  H   H1        1.0  0.9214098178053477  0.4268926488205197  0.7199756488079955  1.0000
  H   H2        1.0  0.9316738822466778  0.719198181944762  0.4277020494960482  1.0000
  H   H3        1.0  0.21798823073815746  0.4218016044246654  0.4334275772420355  1.0000
  H   H4        1.0  0.926979462801228  0.43276569999707704  0.4222654730902704  1.0000
  H   H5        1.0  0.46312873647349323  0.6033654489110134  0.052145316304304946  1.0000
  H   H6        1.0  0.5599611356082194  0.37733453771860365  0.9719917277635161  1.0000
  H   H7        1.0  0.6465600888737413  0.6363965498581906  0.7836994510644287  1.0000
  H   H8        1.0  0.5118807740163974  0.6445848236704848  0.9094284017503468  1.0000
  H   H9        1.0  0.29715269039189  0.4147195602270558  0.1643946818761322  1.0000
  H   H10       1.0  0.4188870144510093  0.41819399631655335  0.026543688604185364  1.0000
  H   H11       1.0  0.08943892613986328  0.9722427053197721  0.37720947947614303  1.0000
  H   H12       1.0  0.880380516482667  0.05266122343825692  0.6026628768209931  1.0000
  H   H13       1.0  0.12376702153187587  0.1635727912895178  0.4154271730798413  1.0000
  H   H14       1.0  0.13603890999938534  0.02592311746579416  0.41872300512855526  1.0000
  H   H15       1.0  0.9329671605817683  0.7835075639061204  0.636905879618908  1.0000
  H   H16       1.0  0.9336789331381895  0.9094779537973281  0.6447484665096468  1.0000
  H   H17       1.0  0.4661501496610895  0.057039691791686845  0.37990846995316474  1.0000
  H   H18       1.0  0.554853208216457  0.9700839078083022  0.594936205108958  1.0000
  H   H19       1.0  0.6578307268380286  0.79099833362195  0.42268962491330353  1.0000
  H   H20       1.0  0.5188151186690109  0.9113790076034721  0.4272747095884029  1.0000
  H   H21       1.0  0.2823098336887141  0.14515565699592506  0.6375214228884971  1.0000
  H   H22       1.0  0.4081235129279007  0.010607597660950414  0.6454930786518885  1.0000
  H   H23       1.0  0.8810750924530381  0.5954037744270196  0.9698318450570084  1.0000
  H   H24       1.0  0.09801966271175645  0.3801050609559553  0.05666316911518269  1.0000
  H   H25       1.0  0.9354983571702391  0.6372752377730821  0.14548384826019842  1.0000
  H   H26       1.0  0.9365455592783293  0.6455319860666578  0.010669702363749249  1.0000
  H   H27       1.0  0.12874834008295719  0.4222040705823532  0.7913613522156311  1.0000
  H   H28       1.0  0.14318620956938585  0.42713173328768067  0.9113088253608482  1.0000
  H   H29       1.0  0.1229040556711  0.8211842584869872  0.17012289617209564  1.0000
  H   H30       1.0  0.18486614213480831  0.9348919997685387  0.05528777031154427  1.0000
  H   H31       1.0  0.9015723224267449  0.8091451929804238  0.17759271346380262  1.0000
  H   H32       1.0  0.8858525211231694  0.16930132434263367  0.8217763247264998  1.0000
  H   H33       1.0  0.824958024160182  0.05450752704871322  0.9355752998995043  1.0000
  H   H34       1.0  0.11161858038376943  0.17692160633313153  0.8098794546720569  1.0000
  H   H35       1.0  0.47127884832593037  0.377463722896863  0.5986260709440714  1.0000
  H   H36       1.0  0.5526590157973531  0.5981835772471343  0.3780214666485265  1.0000
  H   H37       1.0  0.6557506702918519  0.4331792005221049  0.6265134925977947  1.0000
  H   H38       1.0  0.5197573139605113  0.4309880734057929  0.6412928282936861  1.0000
  H   H39       1.0  0.284314697802593  0.6259379564889329  0.4341044958227869  1.0000
  H   H40       1.0  0.4078030819062235  0.6407834735056428  0.43166367613503803  1.0000
  H   H41       1.0  0.3837369302344201  0.6554489144175762  0.15941877067675853  1.0000
  H   H42       1.0  0.3334423062008725  0.5892182434106561  0.2619579847622475  1.0000
  H   H43       1.0  0.2717455044584441  0.6724671004227077  0.19663798992704076  1.0000
  H   H44       1.0  0.6734376097413916  0.29604993147894754  0.8962876769667715  1.0000
  H   H45       1.0  0.7687946101742896  0.32418534828076434  0.8292669037792353  1.0000
  H   H46       1.0  0.6952497946562489  0.35094453396130415  0.7832991784182041  1.0000
  H   H47       1.0  0.1322898053234386  0.8966540195022006  0.2959661241793086  1.0000
  H   H48       1.0  0.07662793689225121  0.828589747673732  0.32483631902249505  1.0000
  H   H49       1.0  0.1696836233429624  0.7837950013517202  0.3507801374067512  1.0000
  H   H50       1.0  0.8000580182183016  0.1606897742115478  0.6536577487454949  1.0000
  H   H51       1.0  0.8153635873400946  0.26275975450852973  0.5883915513600044  1.0000
  H   H52       1.0  0.8578174488879218  0.19622822494819311  0.6725574502636177  1.0000
  H   H53       1.0  0.3889056241707251  0.16845185500659457  0.2995207940592479  1.0000
  H   H54       1.0  0.32752783981508327  0.26594735760314603  0.32388477861826453  1.0000
  H   H55       1.0  0.2759413593239301  0.19540672399136844  0.35495391266740484  1.0000
  H   H56       1.0  0.6707981082705674  0.9003467970018306  0.6345558657838096  1.0000
  H   H57       1.0  0.768838395989796  0.8388787321596354  0.5748220382600451  1.0000
  H   H58       1.0  0.6993027404242869  0.7867384014807117  0.6670226008501883  1.0000
  H   H59       1.0  0.7951840592174194  0.6354209591584097  0.9001556619506418  1.0000
  H   H60       1.0  0.8175515804624354  0.5749425329101431  0.839789051274323  1.0000
  H   H61       1.0  0.8477886530801155  0.6668025943052741  0.7864933651098409  1.0000
  H   H62       1.0  0.14456289188352398  0.29974822360991754  0.16773860487099768  1.0000
  H   H63       1.0  0.08354158371888337  0.3234512324089281  0.26559726553794855  1.0000
  H   H64       1.0  0.17434529443021074  0.35509281269504106  0.19561299583772038  1.0000
  H   H65       1.0  0.39543820970395427  0.292916956412391  0.6496440938685026  1.0000
  H   H66       1.0  0.33663947611486117  0.3126550382706769  0.588796467056227  1.0000
  H   H67       1.0  0.2821170886099298  0.34682647258500776  0.6780373750062976  1.0000
  H   H68       1.0  0.6622086074207164  0.6489658622121156  0.2934712383501291  1.0000
  H   H69       1.0  0.7620646813146835  0.5880709323690922  0.31329121283524575  1.0000
  H   H70       1.0  0.6932088370411548  0.677310984929591  0.347447158663158  1.0000
  H   H71       1.0  0.1827884807806441  0.1344993869831513  0.8787313507530925  1.0000
  H   H72       1.0  0.23332568624462616  0.053627139891389806  0.9496143176059063  1.0000
  H   H73       1.0  0.8039615694746873  0.8779969393260671  0.13524881866987204  1.0000
  H   H74       1.0  0.7634446789361253  0.948805470932591  0.054337863235225735  1.0000
  C   C1        1.0  0.756540945929807  0.505318932590221  0.7289359773291864  1.0000
  C   C2        1.0  0.008814262359450776  0.7284862866649747  0.5059997680865324  1.0000
  C   C3        1.0  0.23548208844432858  0.5019658461727162  0.2655920364570576  1.0000
  C   C4        1.0  0.9969796270940637  0.26499293439109567  0.5024021086810676  1.0000
  C   C5        1.0  0.9954795722119556  0.2602386506830499  0.7340287854404934  1.0000
  C   C6        1.0  0.7604505332961365  0.5134831305308651  0.49423869541043064  1.0000
  C   C7        1.0  0.010152999913543851  0.7333772455417533  0.2610446269076476  1.0000
  C   C8        1.0  0.2316819212285139  0.4936182131347809  0.5144059540521866  1.0000
  C   C9        1.0  0.9974926346802849  0.5018316451348072  0.7368118521689552  1.0000
  C   C10       1.0  0.2268482624409386  0.2560106814531908  0.506711405689444  1.0000
  C   C11       1.0  0.010682647071653936  0.5062722005814424  0.2564660968915646  1.0000
  C   C12       1.0  0.763957441303859  0.7361270842838794  0.5025024585691467  1.0000
  C   C13       1.0  0.3099854495603794  0.508188043954384  0.18427351222606353  1.0000
  C   C14       1.0  0.6766805976504029  0.5043122353553147  0.805095265277785  1.0000
  C   C15       1.0  0.35585871126979635  0.5640190455882036  0.1520144785391651  1.0000
  C   C16       1.0  0.42559315971450945  0.5629529940026431  0.07562336666867962  1.0000
  C   C17       1.0  0.6514937670932711  0.43011393004178444  0.8571023805789081  1.0000
  C   C18       1.0  0.5774188464489073  0.4353991712517672  0.9293621364828866  1.0000
  C   C19       1.0  0.6259979140940147  0.5801600590284867  0.8256503960300066  1.0000
  C   C20       1.0  0.5514911267343124  0.58417445136363  0.896472129838422  1.0000
  C   C21       1.0  0.33442037484407183  0.4560588135567443  0.13838823960234956  1.0000
  C   C22       1.0  0.4029304840028091  0.4575061506052834  0.06201992368887234  1.0000
  C   C23       1.0  0.45069283980564  0.5108194917970368  0.02956925700816263  1.0000
  C   C24       1.0  0.5265581781043096  0.5106857152184008  0.9507780463247356  1.0000
  C   C25       1.0  0.013231806472866554  0.8049363616154255  0.5047138416324018  1.0000
  C   C26       1.0  0.9972644246062501  0.18396793543802675  0.5083033076630484  1.0000
  C   C27       1.0  0.06027833777863389  0.8571210329660347  0.4302917725496158  1.0000
  C   C28       1.0  0.05677739644917814  0.9294916687733165  0.43538164277776314  1.0000
  C   C29       1.0  0.9274640605369485  0.15218160198974573  0.5636648361292698  1.0000
  C   C30       1.0  0.9350253573027769  0.07588732558576118  0.5625542841310318  1.0000
  C   C31       1.0  0.07092693657438078  0.1378710558936689  0.4564294281063254  1.0000
  C   C32       1.0  0.0771499961006583  0.06164188699909801  0.4577697897721507  1.0000
  C   C33       1.0  0.9676441691563584  0.8255306215431588  0.5805430361079401  1.0000
  C   C34       1.0  0.9672732694042738  0.8964737889497989  0.5843607823371784  1.0000
  C   C35       1.0  0.011189538647961643  0.9508356341773382  0.5106922073131982  1.0000
  C   C36       1.0  0.008233796599839048  0.029593617441037272  0.5107453592239821  1.0000
  C   C37       1.0  0.30210316609306187  0.17537934099721758  0.5058760732127823  1.0000
  C   C38       1.0  0.6827486115299166  0.8108369663079955  0.5079649164342895  1.0000
  C   C39       1.0  0.35268797240049565  0.14959182653664987  0.4321430045762753  1.0000
  C   C40       1.0  0.424607252207167  0.07514233428422308  0.4375376880827204  1.0000
  C   C41       1.0  0.6535099079852031  0.8607412071740017  0.5587710964747074  1.0000
  C   C42       1.0  0.5762453776994717  0.929332585196967  0.5586031789431231  1.0000
  C   C43       1.0  0.6337784344155468  0.8310028064178001  0.46061724555578815  1.0000
  C   C44       1.0  0.5567578581557342  0.8986616656567039  0.4626673955573821  1.0000
  C   C45       1.0  0.3234845208572779  0.12456520245762444  0.581447873137968  1.0000
  C   C46       1.0  0.3942614035282332  0.05005079395214558  0.5853969253119615  1.0000
  C   C47       1.0  0.4473842080316431  0.024889087260390987  0.5122110113094108  1.0000
  C   C48       1.0  0.5267716297874544  0.949752839085804  0.511764998152934  1.0000
  C   C49       1.0  0.9987870535656856  0.5076255736263562  0.8112125467145075  1.0000
  C   C50       1.0  0.01724025179825615  0.5056903541971141  0.17554573035388193  1.0000
  C   C51       1.0  0.9275477761382974  0.5587805326059655  0.8608880787150426  1.0000
  C   C52       1.0  0.9366236427550095  0.5588181312000914  0.9292410418066053  1.0000
  C   C53       1.0  0.0664260123478472  0.43211559370981695  0.14949833945697577  1.0000
  C   C54       1.0  0.06369443553673905  0.4376530725319513  0.0749161815072057  1.0000
  C   C55       1.0  0.9711392202485242  0.5813032722645773  0.12473117574283775  1.0000
  C   C56       1.0  0.9710698470706731  0.5854056840715742  0.050071185767890825  1.0000
  C   C57       1.0  0.07499008718996689  0.46032158213778746  0.8312390583574542  1.0000
  C   C58       1.0  0.08253809987366623  0.4625782585623029  0.8986645364978469  1.0000
  C   C59       1.0  0.0125073416129169  0.5118787921216141  0.9496385790979571  1.0000
  C   C60       1.0  0.016405515878077013  0.5123210359511673  0.024741004721839464  1.0000
  C   C61       1.0  0.07347373093872275  0.848329990815117  0.14189440650151408  1.0000
  C   C62       1.0  0.07274017304506936  0.9214714707442087  0.06729322062448523  1.0000
  C   C63       1.0  0.1353126087059521  0.9622491486486455  0.026921090906306195  1.0000
  C   C64       1.0  0.9472235712051145  0.8431191491138037  0.1453094138303539  1.0000
  C   C65       1.0  0.9432816058048774  0.9163626303617747  0.07176574250117798  1.0000
  C   C66       1.0  0.8764653726844291  0.9535220397131355  0.035112305207548  1.0000
  C   C67       1.0  0.9363165169155391  0.1411058169905319  0.8489906794595895  1.0000
  C   C68       1.0  0.9384910455855219  0.0665394926841999  0.9221445855211314  1.0000
  C   C69       1.0  0.875525230232988  0.026138268708230453  0.9629275064404792  1.0000
  C   C70       1.0  0.06430857565047893  0.14460722520986743  0.8438362198925659  1.0000
  C   C71       1.0  0.06855432649159346  0.07106208274427667  0.9170897388050535  1.0000
  C   C72       1.0  0.1348296222711197  0.03440914544827939  0.9542831190729758  1.0000
  C   C73       1.0  0.011148641894166684  0.8097880180443014  0.18065580954545626  1.0000
  C   C74       1.0  0.00661377568029311  0.9565047043846208  0.03179633059262709  1.0000
  C   C75       1.0  0.9984114960614151  0.17988378845696207  0.810473569964607  1.0000
  C   C76       1.0  0.005048757033982438  0.03107887664374696  0.9572207747123826  1.0000
  C   C77       1.0  0.30648058943094003  0.4953318971872493  0.5191791914855628  1.0000
  C   C78       1.0  0.67913683188997  0.5183509708572843  0.49592101391170457  1.0000
  C   C79       1.0  0.3581688476113457  0.42421544922626714  0.5685023565851209  1.0000
  C   C80       1.0  0.42898140441236887  0.43321375507140675  0.5638486134689131  1.0000
  C   C81       1.0  0.6492215899828864  0.5678213803598668  0.42480721867902815  1.0000
  C   C82       1.0  0.5739996272771107  0.5633047392525016  0.43377267348462567  1.0000
  C   C83       1.0  0.6317026329095086  0.4694590289389283  0.5726153781170779  1.0000
  C   C84       1.0  0.5564301963753452  0.46759795006120464  0.5802766377911084  1.0000
  C   C85       1.0  0.32605803149692764  0.5720447725943815  0.4702932428593058  1.0000
  C   C86       1.0  0.3955925885624224  0.579741621696087  0.46827289814422807  1.0000
  C   C87       1.0  0.4495186624936592  0.5093152070750409  0.5144181081136168  1.0000
  C   C88       1.0  0.5267690051743729  0.513870653180753  0.5098451697732926  1.0000
  C   C89       1.0  0.3354117026147136  0.6233871741883521  0.19478116901728265  1.0000
  C   C90       1.0  0.6999744348483788  0.34566924579159064  0.8409756994889079  1.0000
  C   C91       1.0  0.11212817901684953  0.841012497819371  0.3458221734010182  1.0000
  C   C92       1.0  0.84557314144368  0.19528832785866973  0.6226130187803278  1.0000
  C   C93       1.0  0.33567070155663  0.19752537041349436  0.3479905463077984  1.0000
  C   C94       1.0  0.7007251374110414  0.8462197065842719  0.611293220554451  1.0000
  C   C95       1.0  0.8423479462588335  0.6115235166125216  0.8463817791667054  1.0000
  C   C96       1.0  0.11978893380349839  0.34797256137343885  0.19727380229030436  1.0000
  C   C97       1.0  0.3426302933747394  0.3394427848312704  0.62400162788267  1.0000
  C   C98       1.0  0.6940857935779903  0.6233028118933535  0.3400453997374839  1.0000
  N   N1        1.0  0.19836106687862556  0.07106077991251428  0.913871684238778  1.0000
  N   N2        1.0  0.8167041131964297  0.9130998784930644  0.07179382329696422  1.0000
  O   O1        1.0  0.7886848173064464  0.44722281789562157  0.6958559226385431  1.0000
  O   O2        1.0  0.06797254499996802  0.6953195608035403  0.44799789307136717  1.0000
  O   O3        1.0  0.20443652381581517  0.558684481455444  0.30005115067182  1.0000
  O   O4        1.0  0.9369639514819713  0.2992808434303385  0.5592923757042028  1.0000
  O   O5        1.0  0.05464838616114057  0.29148766399855935  0.7043942024366032  1.0000
  O   O6        1.0  0.7948824654168051  0.5707516225702352  0.43463508437235987  1.0000
  O   O7        1.0  0.9493440999205731  0.70377508586963  0.292316580637646  1.0000
  O   O8        1.0  0.19964786362935164  0.4339701193443235  0.5716434505419625  1.0000
  O   O9        1.0  0.938440463102232  0.5603344825093045  0.7046290748340596  1.0000
  O   O10       1.0  0.1956992319718651  0.29108759142283  0.4464152086455897  1.0000
  O   O11       1.0  0.06688989364360506  0.44582525018179103  0.29169156113302114  1.0000
  O   O12       1.0  0.7965442718253257  0.703826860929844  0.5611398241185908  1.0000
  O   O13       1.0  0.19880751054296308  0.285834224468161  0.5662847018142898  1.0000
  O   O14       1.0  0.9492383975243683  0.5657381846483177  0.28637870670107907  1.0000
  O   O15       1.0  0.7959001374842957  0.708911683503324  0.44006749464803346  1.0000
  O   O16       1.0  0.0550956229235311  0.4393043494064912  0.7097138014055844  1.0000
  O   O17       1.0  0.9347268086212495  0.2932065413809538  0.7043861749727893  1.0000
  O   O18       1.0  0.20473923632728505  0.5524856356413751  0.4519041097150236  1.0000
  O   O19       1.0  0.06758568479355631  0.703737513294108  0.2940046380365686  1.0000
  O   O20       1.0  0.7910384127619068  0.45094544983819423  0.5530680537602065  1.0000
  O   O21       1.0  0.056167295595322686  0.2956559854101003  0.44089356090476167  1.0000
  O   O22       1.0  0.7883861827550905  0.5630895497232163  0.7020870578655903  1.0000
  O   O23       1.0  0.9462034233488339  0.7014551395606505  0.5639078856664311  1.0000
  O   O24       1.0  0.2073044156941036  0.4403146729482901  0.2963362063045453  1.0000
  O   O25       1.0  0.9475647627355103  0.4524812172393029  0.4441224522881484  1.0000
  O   O26       1.0  0.15583258159038846  0.44352658040460113  0.4532021360285512  1.0000
  O   O27       1.0  0.9513324146113152  0.6569134885215463  0.4484167656327502  1.0000
  O   O28       1.0  0.9433443417248242  0.4475906248550744  0.6576861374300192  1.0000
  O   O29       1.0  0.03797188456655935  0.5352386112559913  0.5424959821170532  1.0000
  O   O30       1.0  0.8843299538553211  0.541676183450882  0.5359681191345302  1.0000
  O   O31       1.0  0.040737983461262756  0.539063697428219  0.385230266569515  1.0000
  O   O32       1.0  0.03503059315558945  0.3845511837423248  0.5397194461025022  1.0000
