data_image0
_chemical_formula_structural       CoH32C38S2N6O4
_chemical_formula_sum              "Co1 H32 C38 S2 N6 O4"
_cell_length_a       9.276909986520984
_cell_length_b       9.451806736710619
_cell_length_c       11.802396982984595
_cell_angle_alpha    107.09494633519773
_cell_angle_beta     104.69096528871079
_cell_angle_gamma    94.27019635481454

_space_group_name_H-M_alt    "P 1"
_space_group_IT_number       1

loop_
  _space_group_symop_operation_xyz
  'x, y, z'

loop_
  _atom_site_type_symbol
  _atom_site_label
  _atom_site_symmetry_multiplicity
  _atom_site_fract_x
  _atom_site_fract_y
  _atom_site_fract_z
  _atom_site_occupancy
  Co  Co1       1.0  0.999994932287919  8.588325854991383e-07  4.2681187295757346e-06  1.0000
  H   H1        1.0  0.7139564026882894  0.8380172107746445  0.04073880865527712  1.0000
  H   H2        1.0  0.2860299946913329  0.1619750617754576  0.9592578876822059  1.0000
  H   H3        1.0  0.44966904040804684  0.7246354459681752  0.9124583533504946  1.0000
  H   H4        1.0  0.5503232851349296  0.27537579818974917  0.08753719498593426  1.0000
  H   H5        1.0  0.466436366492239  0.0509852595456621  0.7242453553119219  1.0000
  H   H6        1.0  0.5335801467131773  0.9490182992861659  0.2757589585676782  1.0000
  H   H7        1.0  0.7328107501359468  0.14258281169814774  0.8525544456788694  1.0000
  H   H8        1.0  0.2672002606356969  0.8574096633537778  0.1474504229930673  1.0000
  H   H9        1.0  0.25710525652389987  0.8563994878261523  0.645410659592919  1.0000
  H   H10       1.0  0.7428900725505655  0.1436330956307614  0.35457950187038995  1.0000
  H   H11       1.0  0.1967021959947814  0.8619211345817988  0.7779664959722226  1.0000
  H   H12       1.0  0.8032928415729257  0.1380809750463499  0.22203334343471676  1.0000
  H   H13       1.0  0.1998229440733752  0.3747954026611423  0.5951195242274635  1.0000
  H   H14       1.0  0.8001679192266735  0.6252147650151797  0.4048644728531555  1.0000
  H   H15       1.0  0.02069639944787127  0.7785993847303272  0.5767169131310367  1.0000
  H   H16       1.0  0.9792957120880387  0.22141750948260608  0.42326129019976827  1.0000
  H   H17       1.0  0.8876182354781079  0.279079425475409  0.9957057018595776  1.0000
  H   H18       1.0  0.11236218069951319  0.7209209805198921  0.0043087152187978135  1.0000
  H   H19       1.0  0.9659902340358426  0.5498529258040389  0.11678543278198106  1.0000
  H   H20       1.0  0.03401681684450612  0.4501408320460953  0.8832393133969846  1.0000
  H   H21       1.0  0.3192398265982987  0.4273059879285838  0.3695544878763073  1.0000
  H   H22       1.0  0.6807793483157951  0.5726827915254872  0.6304493821149606  1.0000
  H   H23       1.0  0.2172656858994344  0.16060838608385097  0.2449719235433889  1.0000
  H   H24       1.0  0.7827286716358373  0.8393903613774752  0.7550261419767422  1.0000
  H   H25       1.0  0.13922875917025823  0.7099562356786889  0.39073728472259717  1.0000
  H   H26       1.0  0.8607831142574439  0.2900407231301685  0.6092662691376702  1.0000
  H   H27       1.0  0.17732255396401092  0.7420188863606967  0.26016240176937794  1.0000
  H   H28       1.0  0.8226928326315245  0.25797906872625725  0.7398395217851501  1.0000
  H   H29       1.0  0.6468589770256159  0.789765522525876  0.47328019511461156  1.0000
  H   H30       1.0  0.3531399393264821  0.21023870136561126  0.5267302114173518  1.0000
  H   H31       1.0  0.21853780068425274  0.9501492157120313  0.4246757254304684  1.0000
  H   H32       1.0  0.7814617555504951  0.0498527252980239  0.5753325692588618  1.0000
  C   C1        1.0  0.6553301802606982  0.8822298419087248  0.9694024346527784  1.0000
  C   C2        1.0  0.34465999475589365  0.11775890105808876  0.030595847703871474  1.0000
  C   C3        1.0  0.5077086517476488  0.8195811997088001  0.8981115183326978  1.0000
  C   C4        1.0  0.4922907220094928  0.18041509905678768  0.1018810014155562  1.0000
  C   C5        1.0  0.43601280038424045  0.8789422403298911  0.8072860290225278  1.0000
  C   C6        1.0  0.5639941891291613  0.12105264391683332  0.1927152469523037  1.0000
  C   C7        1.0  0.517128479898517  0.00044118501092779586  0.7935861534405007  1.0000
  C   C8        1.0  0.482887129985741  0.9995578908650553  0.20641607833315587  1.0000
  C   C9        1.0  0.6652520111599571  0.053705152436563694  0.8672755257197905  1.0000
  C   C10       1.0  0.3347598622677451  0.9462918063722934  0.13272802814047666  1.0000
  C   C11       1.0  0.2774244887640903  0.8184712841626405  0.7269154936862847  1.0000
  C   C12       1.0  0.7225765798063505  0.18153398271761736  0.2730718487504262  1.0000
  C   C13       1.0  0.12660762468225065  0.5850772119123773  0.5963575396015344  1.0000
  C   C14       1.0  0.8733863968506695  0.41492718800719786  0.4036129901601413  1.0000
  C   C15       1.0  0.1119526277609708  0.42873477206698835  0.5519925134184334  1.0000
  C   C16       1.0  0.888040175519599  0.5712685465644965  0.4479868465930963  1.0000
  C   C17       1.0  0.013477349350417016  0.6569745472155758  0.5439192356361104  1.0000
  C   C18       1.0  0.9865209060478719  0.34303421034783094  0.45605483462423985  1.0000
  C   C19       1.0  0.9811759922724762  0.3162053830590635  0.07994987377918512  1.0000
  C   C20       1.0  0.01879859548927949  0.6837941120686678  0.9200572752020334  1.0000
  C   C21       1.0  0.026958553580414  0.4672306794062564  0.14744694585247936  1.0000
  C   C22       1.0  0.973031347170071  0.5327614644272314  0.8525656457775738  1.0000
  C   C23       1.0  0.15276162034083998  0.5120131446675273  0.25221451429335673  1.0000
  C   C24       1.0  0.8472415110900257  0.4879784997203415  0.7477962678429789  1.0000
  C   C25       1.0  0.2221590825271988  0.3995057875889713  0.28789740735340524  1.0000
  C   C26       1.0  0.7778541316634602  0.6004866042554012  0.7121070181980187  1.0000
  C   C27       1.0  0.16692444907399556  0.2502743293088939  0.2178338547347849  1.0000
  C   C28       1.0  0.8330723458506029  0.7497198096843006  0.782164436301535  1.0000
  C   C29       1.0  0.20365026452888907  0.6751616905700002  0.3230852325189346  1.0000
  C   C30       1.0  0.7963607264255186  0.3248251390331375  0.6769174488823708  1.0000
  C   C31       1.0  0.4253094354076197  0.8515037122685739  0.44181671619579527  1.0000
  C   C32       1.0  0.5746996765639167  0.14848996517778082  0.5581956976510156  1.0000
  C   C33       1.0  0.5830087824281236  0.8825376122664323  0.48598356147653726  1.0000
  C   C34       1.0  0.41699877565800847  0.1174595111551042  0.5140285216893901  1.0000
  C   C35       1.0  0.3416981226401673  0.970185699445018  0.45634651119686237  1.0000
  C   C36       1.0  0.6583112024538166  0.029809098990632797  0.5436653616396825  1.0000
  C   C37       1.0  0.046730723437214294  0.09007745205111917  0.7850713533566704  1.0000
  C   C38       1.0  0.9532737671739041  0.909927687714685  0.21492509053738473  1.0000
  S   S1        1.0  0.1015545968737399  0.1226956027732768  0.6745980116675553  1.0000
  S   S2        1.0  0.8984489790733008  0.8773208665899758  0.32541534215435763  1.0000
  N   N1        1.0  0.005169179260164502  0.0658379513885166  0.8661456072612737  1.0000
  N   N2        1.0  0.9948238480477228  0.934164237642051  0.1338708106248275  1.0000
  N   N3        1.0  0.05107462758682858  0.20767718711379496  0.11239117658243461  1.0000
  N   N4        1.0  0.9489079718232746  0.7923186154201286  0.8876022352770717  1.0000
  N   N5        1.0  0.7357050552777408  0.9963221407568665  0.9539855631398807  1.0000
  N   N6        1.0  0.26429617749903395  0.003666185371074  0.046013900531782774  1.0000
  O   O1        1.0  0.25538534219285935  0.6581713604509644  0.6902924863828018  1.0000
  O   O2        1.0  0.744608933127601  0.34183415965682673  0.3096808992862207  1.0000
  O   O3        1.0  0.3621265189074805  0.7028310161190205  0.3839939500461043  1.0000
  O   O4        1.0  0.6378710266981569  0.2971721294884374  0.6160125482946697  1.0000
