data_image0
_chemical_formula_structural       Zn4H45C83N23
_chemical_formula_sum              "Zn4 H45 C83 N23"
_cell_length_a       19.026101572061926
_cell_length_b       19.03841872929858
_cell_length_c       20.248404398078392
_cell_angle_alpha    104.78619318894046
_cell_angle_beta     108.19562612286592
_cell_angle_gamma    112.38711941773641

_space_group_name_H-M_alt    "P 1"
_space_group_IT_number       1

loop_
  _space_group_symop_operation_xyz
  'x, y, z'

loop_
  _atom_site_type_symbol
  _atom_site_label
  _atom_site_symmetry_multiplicity
  _atom_site_fract_x
  _atom_site_fract_y
  _atom_site_fract_z
  _atom_site_occupancy
  Zn  Zn1       1.0  0.8853270388659882  0.8919506485471304  0.5032076476680701  1.0000
  Zn  Zn2       1.0  0.10243557695852701  0.1010174252071394  0.49940008117996376  1.0000
  Zn  Zn3       1.0  0.09290111423366912  0.9959759369561707  0.603965376645398  1.0000
  Zn  Zn4       1.0  0.8922863367188825  0.9916134614995328  0.39380237336761337  1.0000
  H   H1        1.0  0.83913773969784  0.007003781991599576  0.6131493078134866  1.0000
  H   H2        1.0  0.30048690240842296  0.7437005730812629  0.48131381729848494  1.0000
  H   H3        1.0  0.12023763545270333  0.26417221446202893  0.6176805080366989  1.0000
  H   H4        1.0  0.4280318361940516  0.7426506314983142  0.4763397559709189  1.0000
  H   H5        1.0  0.5485639028974986  0.7961259821886771  0.4461668831114878  1.0000
  H   H6        1.0  0.5614298963447127  0.9512417939433889  0.322532455359557  1.0000
  H   H7        1.0  0.3158050798138562  0.982375977367951  0.2812364566918646  1.0000
  H   H8        1.0  0.8412185119470975  0.6022528322936295  0.5441037557218777  1.0000
  H   H9        1.0  0.11497742855839023  0.7422553370216177  0.6866003092681936  1.0000
  H   H10       1.0  0.1912333626107454  0.6702409585399282  0.7303764966035615  1.0000
  H   H11       1.0  0.19032264386339653  0.5382315423001813  0.7218173677710668  1.0000
  H   H12       1.0  0.1307541612106533  0.99378462078095  0.37246333244929997  1.0000
  H   H13       1.0  0.11308629704460321  0.3832766170184457  0.6609121001696253  1.0000
  H   H14       1.0  0.29221506899992994  0.11992215238408482  0.747490454967604  1.0000
  H   H15       1.0  0.8391864156100582  0.2437869446279349  0.5197196161463609  1.0000
  H   H16       1.0  0.7586906109932842  0.3187375234433034  0.4998758080092429  1.0000
  H   H17       1.0  0.7598331140762368  0.45077081822763176  0.5080333628894209  1.0000
  H   H18       1.0  0.43711674185024657  0.19680531730504916  0.8174595067323978  1.0000
  H   H19       1.0  0.5740885745669929  0.3090324645794381  0.9309510370123276  1.0000
  H   H20       1.0  0.7065440021094676  0.46340736482502365  0.1469809063191576  1.0000
  H   H21       1.0  0.4406586441807931  0.3707433726605699  0.715560705354754  1.0000
  H   H22       1.0  0.7775896035093411  0.6206876136008858  0.03357088464446887  1.0000
  H   H23       1.0  0.1191459571264346  0.8603136354652248  0.6722244862088259  1.0000
  H   H24       1.0  0.5800991160511799  0.48163166954475406  0.8284280504720626  1.0000
  H   H25       1.0  0.6891457425458611  0.9578876631452786  0.32768264509137873  1.0000
  H   H26       1.0  0.8628442138346841  0.7457969257227218  0.15837068572117366  1.0000
  H   H27       1.0  0.8892386370145786  0.12197277007603442  0.1770933197681472  1.0000
  H   H28       1.0  0.8917029857475215  0.1571760001522407  0.06791783522907485  1.0000
  H   H29       1.0  0.8332001407272999  0.10168754000236656  0.85724205163244  1.0000
  H   H30       1.0  0.8330947231911736  0.05747267300374409  0.7305179543429077  1.0000
  H   H31       1.0  0.16383556534129443  0.23037714800982914  0.2806726838663138  1.0000
  H   H32       1.0  0.10482870857551771  0.2684607845821176  0.9680542308772289  1.0000
  H   H33       1.0  0.16484557054518936  0.26772902071723337  0.17186347126906298  1.0000
  H   H34       1.0  0.8804871192877571  0.04500634620499253  0.24415695746453983  1.0000
  H   H35       1.0  0.1056339271992641  0.22805941938008797  0.8418736987538864  1.0000
  H   H36       1.0  0.30752647336747435  0.2549586760724268  0.6048310916465169  1.0000
  H   H37       1.0  0.6875936683952802  0.8323418173953314  0.47835363760564314  1.0000
  H   H38       1.0  0.8450604992765135  0.1212175996415467  0.4769311829129065  1.0000
  H   H39       1.0  0.11569321304762072  0.1446467172366184  0.7441481372085903  1.0000
  H   H40       1.0  0.8756810985232021  0.7262440865754483  0.3965741768454834  1.0000
  H   H41       1.0  0.845163413585304  0.7178459031513569  0.5282696476793447  1.0000
  H   H42       1.0  0.8763811904249579  0.8537867775397743  0.24689571431712662  1.0000
  H   H43       1.0  0.12975706044557003  0.8574093217983434  0.5145089244566847  1.0000
  H   H44       1.0  0.2142126195769549  0.9539475773041844  0.3349220745085972  1.0000
  H   H45       1.0  0.20479020124593458  0.8038264615982413  0.4632439555130929  1.0000
  C   C1        1.0  0.907739372026441  0.03279790457296606  0.6356362512487974  1.0000
  C   C2        1.0  0.912708701465114  0.7643643628579823  0.5623918670126287  1.0000
  C   C3        1.0  0.8801498268891238  0.8343233452791309  0.29321893644505087  1.0000
  C   C4        1.0  0.053622583122958596  0.21819288881836477  0.5779281378591961  1.0000
  C   C5        1.0  0.1244196169886678  0.8969545544184285  0.48515497205055164  1.0000
  C   C6        1.0  0.8644248722667386  0.7555220912551234  0.2932236678650426  1.0000
  C   C7        1.0  0.14885298688567158  0.9086914331583811  0.42814310238505016  1.0000
  C   C8        1.0  0.9808283910127005  0.7566400408508969  0.6060045622871755  1.0000
  C   C9        1.0  0.020464622881441102  0.1375911073323692  0.2926680597210591  1.0000
  C   C10       1.0  0.23648927634604183  0.9166508990072657  0.3586027936571909  1.0000
  C   C11       1.0  0.2030382852598791  0.8829110587030867  0.4031575720935122  1.0000
  C   C12       1.0  0.9802383292377073  0.22623153887338518  0.5615787661028689  1.0000
  C   C13       1.0  0.23158510191500883  0.8329544074054239  0.43046146119210243  1.0000
  C   C14       1.0  0.29754317811936204  0.8229080623623091  0.42067130605467895  1.0000
  C   C15       1.0  0.33647114436373465  0.8640099366153678  0.38133182884054406  1.0000
  C   C16       1.0  0.2822050994963163  0.14311251083719156  0.7036172309232357  1.0000
  C   C17       1.0  0.3028862500628761  0.9088680331887389  0.34778572956362547  1.0000
  C   C18       1.0  0.3313922308324848  0.7770271000670591  0.4529217587737904  1.0000
  C   C19       1.0  0.401999048785065  0.7764300056801474  0.45018365789527337  1.0000
  C   C20       1.0  0.44533765681656945  0.8216193004596376  0.4151311792943844  1.0000
  C   C21       1.0  0.41005653130178393  0.8638373480349913  0.3788068749129252  1.0000
  C   C22       1.0  0.45211279309384633  0.9087723222487442  0.34336602346302675  1.0000
  C   C23       1.0  0.33949984586907084  0.2142851904757066  0.7007542847876778  1.0000
  C   C24       1.0  0.41396895147288143  0.9499771774069571  0.30623344120861157  1.0000
  C   C25       1.0  0.3421142284610211  0.9494057142246105  0.30835648748220007  1.0000
  C   C26       1.0  0.5220449660953363  0.828116453165336  0.4176411222328796  1.0000
  C   C27       1.0  0.5661017372254024  0.8759802263304052  0.38645342527656373  1.0000
  C   C28       1.0  0.7019485335122085  0.9295286774299714  0.3668982683996945  1.0000
  C   C29       1.0  0.5291074582329571  0.9143347052886529  0.34795861034062636  1.0000
  C   C30       1.0  0.9008005067986177  0.6052951593446991  0.576961047447611  1.0000
  C   C31       1.0  0.9784296140780384  0.6816977983653202  0.6142764265891356  1.0000
  C   C32       1.0  0.0539588049311988  0.6834374284805946  0.6562194787723427  1.0000
  C   C33       1.0  0.054133783826337385  0.6104322295120568  0.658192125769716  1.0000
  C   C34       1.0  0.6502259632616543  0.8883616280354187  0.3968888732934273  1.0000
  C   C35       1.0  0.9753720054794073  0.5323350261289261  0.6169568240708968  1.0000
  C   C36       1.0  0.897685006026201  0.5307151843322088  0.5774880066029481  1.0000
  C   C37       1.0  0.13125283335310198  0.6103349780993028  0.6975414692628448  1.0000
  C   C38       1.0  0.1307563982470867  0.5372576485743321  0.6928222482345703  1.0000
  C   C39       1.0  0.053127182271730106  0.45753899956582705  0.648134273077531  1.0000
  C   C40       1.0  0.28992220592490986  0.2129809077021747  0.6317642164818906  1.0000
  C   C41       1.0  0.9748704532220884  0.4564449589986311  0.6120464730173508  1.0000
  C   C42       1.0  0.8966660485697917  0.37793245040367657  0.5676148168658842  1.0000
  C   C43       1.0  0.8187617819374963  0.37852124849894137  0.5323975531189689  1.0000
  C   C44       1.0  0.819317289358338  0.45160000837469727  0.5369183843351806  1.0000
  C   C45       1.0  0.8788234867791829  0.7687345944249842  0.36934508078430645  1.0000
  C   C46       1.0  0.0522671447348131  0.38121688237738033  0.6350646006086151  1.0000
  C   C47       1.0  0.9766434928379225  0.30360480061262507  0.5865612827550917  1.0000
  C   C48       1.0  0.8991612294721848  0.3032546541493346  0.5561153099490994  1.0000
  C   C49       1.0  0.8291414132466884  0.6789502447713645  0.22528314167829663  1.0000
  C   C50       1.0  0.8275704386354832  0.6841303736250949  0.15633155518362665  1.0000
  C   C51       1.0  0.7807757979816472  0.6145556303882033  0.08634142996222495  1.0000
  C   C52       1.0  0.7009354154566126  0.8651516857162987  0.44322508593582904  1.0000
  C   C53       1.0  0.7337507936395511  0.5342209656261332  0.08210331608164977  1.0000
  C   C54       1.0  0.7411496727356381  0.5258125890875435  0.1501499127207424  1.0000
  C   C55       1.0  0.7874339398983923  0.5967177335741525  0.22095979311335873  1.0000
  C   C56       1.0  0.12463857186121172  0.9662204282705037  0.4125595002117137  1.0000
  C   C57       1.0  0.544423042933076  0.3214825170353564  0.8832456673903764  1.0000
  C   C58       1.0  0.46764238708581024  0.259612404156684  0.8201019107940511  1.0000
  C   C59       1.0  0.5838027173312811  0.40315630424486665  0.88763561238747  1.0000
  C   C60       1.0  0.4264792451836287  0.2765083706303173  0.7598160969610106  1.0000
  C   C61       1.0  0.4698787425370485  0.35637040723619157  0.7620192708173903  1.0000
  C   C62       1.0  0.5476675696576336  0.418596321377251  0.8248013056076432  1.0000
  C   C63       1.0  0.9702223231944559  0.13594238129097394  0.7771001144302687  1.0000
  C   C64       1.0  0.9134567363240151  0.1453919706042226  0.5060463419473392  1.0000
  C   C65       1.0  0.04564414950944241  0.19940360074185998  0.84485874828475  1.0000
  C   C66       1.0  0.045813108117585016  0.22301413527391387  0.9154607133740669  1.0000
  C   C67       1.0  0.052241616558859505  0.8366194661863702  0.6352317288604326  1.0000
  C   C68       1.0  0.969166497403819  0.1844996483984714  0.9204353050672083  1.0000
  C   C69       1.0  0.8921958902924628  0.12909849384789843  0.852412014121043  1.0000
  C   C70       1.0  0.892791037306239  0.10483387224620341  0.7819235730261909  1.0000
  C   C71       1.0  0.9506648419249403  0.1733013619330207  0.11518435624009264  1.0000
  C   C72       1.0  0.9499675632682666  0.153085982153243  0.17594112457910416  1.0000
  C   C73       1.0  0.028497215312199804  0.21269352438798708  0.1124105329897489  1.0000
  C   C74       1.0  0.0258931637760895  0.1703117317451728  0.2356195549379407  1.0000
  C   C75       1.0  0.10388020332430163  0.21476963872888896  0.23493963485678654  1.0000
  C   C76       1.0  0.04889144194894611  0.10364963308493459  0.7021372920948111  1.0000
  C   C77       1.0  0.10505389472604068  0.2360556398691074  0.17434671681180447  1.0000
  C   C78       1.0  0.9460427687725712  0.07689824322805099  0.28856842675259736  1.0000
  C   C79       1.0  0.9747722040007575  0.09698015408098111  0.707684565486538  1.0000
  C   C80       1.0  0.17453182212561563  0.20963756679486073  0.4014043162939132  1.0000
  C   C81       1.0  0.4535094537870846  0.9935355102550004  0.26875175431161574  1.0000
  C   C82       1.0  0.786348891645993  0.5827846408823163  0.28667835846616896  1.0000
  C   C83       1.0  0.08531052286743089  0.15349710773968886  0.3622043748549402  1.0000
  N   N1        1.0  0.9401309050433541  0.003440195020658604  0.592311868488693  1.0000
  N   N2        1.0  0.6532455125003906  0.47392547270204227  0.9538427331485902  1.0000
  N   N3        1.0  0.963638608490939  0.18865478542176098  0.9886681615828081  1.0000
  N   N4        1.0  0.0316967766922076  0.13956111549377678  0.534449019791289  1.0000
  N   N5        1.0  0.03530749769866049  0.22322250635733104  0.04788939575974641  1.0000
  N   N6        1.0  0.20545744599271393  0.10318195966042507  0.6420000348556343  1.0000
  N   N7        1.0  0.7766922115495092  0.9303297514155132  0.3932012089759311  1.0000
  N   N8        1.0  0.21025604383688554  0.1466432542865093  0.5971427398982456  1.0000
  N   N9        1.0  0.7759716188553297  0.8901720712459563  0.4407813511510312  1.0000
  N   N10       1.0  0.9455307868552794  0.09473198784828434  0.490132892409143  1.0000
  N   N11       1.0  0.0268738717659289  0.0470295352079972  0.6332935724347237  1.0000
  N   N12       1.0  0.09062793851029481  0.9878011493327321  0.4579178999423378  1.0000
  N   N13       1.0  0.8994350153009094  0.847755182152504  0.40933264022560667  1.0000
  N   N14       1.0  0.24851495124319462  0.255071202901263  0.43730721638502246  1.0000
  N   N15       1.0  0.4876551676495211  0.028966030730920467  0.23874106236872442  1.0000
  N   N16       1.0  0.7846932606770383  0.5702036144032051  0.3399246847041937  1.0000
  N   N17       1.0  0.028472030696093508  0.8873919629261875  0.6110819810265298  1.0000
  N   N18       1.0  0.9647864599554624  0.05868167040178213  0.3496249781856449  1.0000
  N   N19       1.0  0.050493982728482906  0.1053407628113732  0.3952578810482308  1.0000
  N   N20       1.0  0.9413514215799524  0.8422902208492076  0.5656989438107445  1.0000
  N   N21       1.0  0.9001196105989352  0.8879389112917337  0.36251397105967004  1.0000
  N   N22       1.0  0.09061580231516332  0.9453198186559463  0.5026572652827853  1.0000
  N   N23       1.0  0.6732122632940545  0.4609484025791559  0.013926879760347791  1.0000
