data_image0
_chemical_formula_structural       Cu4H36C60N8O16F12
_chemical_formula_sum              "Cu4 H36 C60 N8 O16 F12"
_cell_length_a       8.847724987638804
_cell_length_b       10.381824383962204
_cell_length_c       16.42030072428129
_cell_angle_alpha    89.99968725431417
_cell_angle_beta     89.9995214320772
_cell_angle_gamma    107.52860416512007

_space_group_name_H-M_alt    "P 1"
_space_group_IT_number       1

loop_
  _space_group_symop_operation_xyz
  'x, y, z'

loop_
  _atom_site_type_symbol
  _atom_site_label
  _atom_site_symmetry_multiplicity
  _atom_site_fract_x
  _atom_site_fract_y
  _atom_site_fract_z
  _atom_site_occupancy
  Cu  Cu1       1.0  0.3371465096029738  0.10244228056248518  0.1605734576228031  1.0000
  Cu  Cu2       1.0  0.8371408004217004  0.10243857347432343  0.3394247050013987  1.0000
  Cu  Cu3       1.0  0.6628590596625303  0.8975571783136476  0.839428579173429  1.0000
  Cu  Cu4       1.0  0.1628617386992844  0.8975619004176497  0.6605736777865301  1.0000
  H   H1        1.0  0.17513801142407454  0.3243406945541878  0.12518919556084274  1.0000
  H   H2        1.0  0.6751423668312526  0.3243445688273354  0.37480893974957036  1.0000
  H   H3        1.0  0.824868687482301  0.6756587626871282  0.8748146682395512  1.0000
  H   H4        1.0  0.3248616607578186  0.6756569135748125  0.6251882250287222  1.0000
  H   H5        1.0  0.026803923540235492  0.3735766089060776  0.0040978786406853  1.0000
  H   H6        1.0  0.5268079903354561  0.3735848729496993  0.49590137248960525  1.0000
  H   H7        1.0  0.9731964094521006  0.626420836181552  0.9959084211866905  1.0000
  H   H8        1.0  0.47319264828801977  0.6264166143274963  0.5040945742919261  1.0000
  H   H9        1.0  0.005915675008168381  0.23173915870834347  0.8776917942948117  1.0000
  H   H10       1.0  0.5059142899732337  0.23174147967095848  0.6223073891002853  1.0000
  H   H11       1.0  0.9940823454142631  0.7682613216304761  0.12231267852586568  1.0000
  H   H12       1.0  0.49408039483928684  0.7682559736075805  0.3776873396973101  1.0000
  H   H13       1.0  0.13497889474255234  0.04642290890372182  0.8774664890848881  1.0000
  H   H14       1.0  0.6349737573779494  0.0464242214912147  0.6225339635662549  1.0000
  H   H15       1.0  0.8650210262265006  0.9535765580834976  0.12253554772421889  1.0000
  H   H16       1.0  0.3650212862065345  0.9535742418945006  0.37746320123775223  1.0000
  H   H17       1.0  0.28936103625829196  0.9184672203358701  0.9545898927536454  1.0000
  H   H18       1.0  0.7893589955416117  0.9184675736742065  0.5454104966897688  1.0000
  H   H19       1.0  0.7106329308752494  0.08152821263588811  0.0454133620805024  1.0000
  H   H20       1.0  0.21063604803673291  0.08153088970730951  0.454587277116488  1.0000
  H   H21       1.0  0.28813114366234777  0.7405032707228474  0.9884580358039794  1.0000
  H   H22       1.0  0.7881249083498079  0.7405030877841412  0.5115417560786497  1.0000
  H   H23       1.0  0.7118650295384513  0.259495191011247  0.011543392013173599  1.0000
  H   H24       1.0  0.21187126488783295  0.2594953739751632  0.48845601772503483  1.0000
  H   H25       1.0  0.37689123633115423  0.5424731003438127  0.015504009127980094  1.0000
  H   H26       1.0  0.8768866555924434  0.5424724387556312  0.4844985419403115  1.0000
  H   H27       1.0  0.6231053489297622  0.45752333951589474  0.9844980276939735  1.0000
  H   H28       1.0  0.12311290661078539  0.4575260181286184  0.5155004498601412  1.0000
  H   H29       1.0  0.541386310436522  0.5368008110946719  0.13885948426804617  1.0000
  H   H30       1.0  0.0413820220681487  0.5367977165080334  0.3611421814669881  1.0000
  H   H31       1.0  0.4586124808855134  0.4631986575231652  0.8611413345391481  1.0000
  H   H32       1.0  0.9586201582378991  0.46320174724736063  0.638858028330233  1.0000
  H   H33       1.0  0.6146770011720051  0.7346144607945961  0.23223180850266795  1.0000
  H   H34       1.0  0.11467911398116837  0.7346126481955438  0.2677682303551235  1.0000
  H   H35       1.0  0.3853263087994776  0.26538500134278553  0.7677677922897316  1.0000
  H   H36       1.0  0.8853238371876557  0.2653858038136505  0.7322319794420834  1.0000
  C   C1        1.0  0.16314469011970092  0.26657298751175074  0.0689296953451901  1.0000
  C   C2        1.0  0.663144934331939  0.266574068438203  0.43106930328603704  1.0000
  C   C3        1.0  0.8368582610061495  0.7334254644680273  0.9310747774677423  1.0000
  C   C4        1.0  0.3368572460048044  0.7334253953382017  0.5689278614999651  1.0000
  C   C5        1.0  0.08158651096497492  0.2929075685450471  0.0010053795874612  1.0000
  C   C6        1.0  0.5815879505590614  0.29291175103649186  0.49899450924912236  1.0000
  C   C7        1.0  0.9184097154564554  0.70708786116127  0.9990009202527614  1.0000
  C   C8        1.0  0.4184119704652431  0.7070877159885428  0.5010020465397886  1.0000
  C   C9        1.0  0.07068826644547241  0.2148661321947642  0.9310086041673742  1.0000
  C   C10       1.0  0.5706864678966284  0.21486818038343364  0.5689909509338802  1.0000
  C   C11       1.0  0.9293146314167728  0.7851353517833816  0.0689952596381929  1.0000
  C   C12       1.0  0.4293138119241888  0.7851322967655819  0.4310056048524585  1.0000
  C   C13       1.0  0.14224731192668832  0.11195307102064331  0.9301639325435216  1.0000
  C   C14       1.0  0.6422440611677943  0.11195106706158238  0.5698350425449661  1.0000
  C   C15       1.0  0.8577537386955143  0.8880463943401581  0.06983871326525558  1.0000
  C   C16       1.0  0.35775550105999093  0.8880473898394714  0.430161513246503  1.0000
  C   C17       1.0  0.22168399308090161  0.09145173959001342  0.0001406247222562  1.0000
  C   C18       1.0  0.7216764845293895  0.0914498591543449  0.49985688478084705  1.0000
  C   C19       1.0  0.7783163399482691  0.9085457055228265  0.9998620210916511  1.0000
  C   C20       1.0  0.27831968872052937  0.9085486026133583  0.5001396710183454  1.0000
  C   C21       1.0  0.29222311346782  0.9831434940023558  0.007531601733319298  1.0000
  C   C22       1.0  0.7922195016766195  0.9831427207951936  0.49246859530608583  1.0000
  C   C23       1.0  0.7077749602366268  0.016853954350715097  0.9924716530879749  1.0000
  C   C24       1.0  0.20778077812578744  0.016857756341217098  0.5075297874869875  1.0000
  C   C25       1.0  0.40181251013694913  0.8522633776458619  0.09473217317017199  1.0000
  C   C26       1.0  0.9018091679950331  0.8522627992455301  0.405266757910681  1.0000
  C   C27       1.0  0.5981878229044921  0.14773406747538328  0.9052692546392433  1.0000
  C   C28       1.0  0.09818926455504602  0.14773565926513751  0.5947316248901017  1.0000
  C   C29       1.0  0.36083583749211817  0.740187111924513  0.04186132138809029  1.0000
  C   C30       1.0  0.860830299724512  0.7401858055617228  0.4581387928934575  1.0000
  C   C31       1.0  0.6391625950272657  0.25981134656514376  0.9581401064239116  1.0000
  C   C32       1.0  0.13916664436975887  0.25981164444718274  0.5418595899124552  1.0000
  C   C33       1.0  0.4110569066630136  0.6280491472364889  0.05712116974654439  1.0000
  C   C34       1.0  0.9110516765426127  0.6280480514382064  0.44288032076311606  1.0000
  C   C35       1.0  0.5889415258563702  0.3719493112531681  0.9428802580654575  1.0000
  C   C36       1.0  0.08894675600746642  0.37195040707246113  0.5571180620376666  1.0000
  C   C37       1.0  0.5028903546772981  0.6248737628139625  0.1257969308240803  1.0000
  C   C38       1.0  0.002886161746367608  0.6248714980991394  0.3742046063156507  1.0000
  C   C39       1.0  0.4971092075075134  0.3751246940576821  0.8742038879830999  1.0000
  C   C40       1.0  0.9971148889126696  0.375127967286872  0.6257943854796577  1.0000
  C   C41       1.0  0.5426312086763545  0.7347213233782385  0.17853198177522236  1.0000
  C   C42       1.0  0.04263069709497812  0.7347207932578003  0.3214677764957016  1.0000
  C   C43       1.0  0.4573709716419714  0.26527814038556136  0.821467010017507  1.0000
  C   C44       1.0  0.95737035355792  0.265278672124012  0.6785318243018492  1.0000
  C   C45       1.0  0.49304090196900313  0.849255605261142  0.1651880489001059  1.0000
  C   C46       1.0  0.9930412396442776  0.8492559958552948  0.3348104762412376  1.0000
  C   C47       1.0  0.5069612783493299  0.1507438585026506  0.8348109428926305  1.0000
  C   C48       1.0  0.006960169805139998  0.15074447965049842  0.6651891245537485  1.0000
  C   C49       1.0  0.547275976560357  0.9608377667027169  0.2273851316590907  1.0000
  C   C50       1.0  0.04727532030399576  0.9608379123621946  0.2726113882303238  1.0000
  C   C51       1.0  0.45273631744640147  0.0391647144720935  0.7726114240963751  1.0000
  C   C52       1.0  0.9527283484639997  0.03916255989916102  0.7273882125595178  1.0000
  C   C53       1.0  0.33610633945814783  0.28248618114045604  0.2978245938893166  1.0000
  C   C54       1.0  0.8360973370876152  0.2824863979838099  0.20217477848287757  1.0000
  C   C55       1.0  0.6638999474433617  0.7175152980130548  0.7021731798860813  1.0000
  C   C56       1.0  0.1638995004242076  0.7175171159839948  0.7978278673285217  1.0000
  C   C57       1.0  0.34553178743649937  0.4307928836011  0.3215053684878626  1.0000
  C   C58       1.0  0.8455224916113481  0.43079443894548347  0.17849710252087184  1.0000
  C   C59       1.0  0.654471881337635  0.5692075886644617  0.6784936232997294  1.0000
  C   C60       1.0  0.15447244538454902  0.5692100883949324  0.8215049342908711  1.0000
  N   N1        1.0  0.23117659140518754  0.16809967495206024  0.0682792958163532  1.0000
  N   N2        1.0  0.731173128024011  0.1680967096686103  0.4317172965584105  1.0000
  N   N3        1.0  0.7688237416178438  0.8318977701565798  0.9317239589997968  1.0000
  N   N4        1.0  0.26882756386306267  0.8319017456102313  0.5682792592304864  1.0000
  N   N5        1.0  0.3495349590374489  0.9647337740807989  0.0779961074886444  1.0000
  N   N6        1.0  0.8495286613581357  0.9647319578572964  0.42200267361268823  1.0000
  N   N7        1.0  0.6504657327943805  0.035264681160228406  0.9220059293204554  1.0000
  N   N8        1.0  0.1504697711919434  0.03526650065336411  0.5779957091880872  1.0000
  O   O1        1.0  0.49847924625784407  0.06519749891260322  0.22768824621778794  1.0000
  O   O2        1.0  0.9984797676250923  0.06519572157866801  0.2723117448276469  1.0000
  O   O3        1.0  0.501530070788185  0.9348029652250676  0.7723131815659128  1.0000
  O   O4        1.0  0.0015287785704458058  0.9348057543136007  0.7276884649515765  1.0000
  O   O5        1.0  0.6436106562026254  0.9449391530619736  0.2804460868889364  1.0000
  O   O6        1.0  0.14361219938439249  0.9449400292932707  0.21955126630132324  1.0000
  O   O7        1.0  0.35640764492166  0.055064330142549515  0.7195480328421126  1.0000
  O   O8        1.0  0.8563948583491978  0.05506043809303663  0.7804495524852868  1.0000
  O   O9        1.0  0.3517944472653626  0.2711834284021323  0.22106593469175095  1.0000
  O   O10       1.0  0.8517869807844393  0.2711785390555121  0.2789327961390312  1.0000
  O   O11       1.0  0.6482170758663415  0.7288200645104795  0.7789318390682212  1.0000
  O   O12       1.0  0.1482169934796431  0.728825975302975  0.7210698496543556  1.0000
  O   O13       1.0  0.31964697060049474  0.19991291747280124  0.3539601649902763  1.0000
  O   O14       1.0  0.8196409472669615  0.19991592757489943  0.14603834974790428  1.0000
  O   O15       1.0  0.6803533092080514  0.8000875596678158  0.6460376088005545  1.0000
  O   O16       1.0  0.18035589024486146  0.8000875863928985  0.8539642960634948  1.0000
  F   F1        1.0  0.5009697730642843  0.5089709732825798  0.3281631003162388  1.0000
  F   F2        1.0  0.0009602107956823074  0.5089735359123111  0.17183823700465684  1.0000
  F   F3        1.0  0.4990331781352283  0.4910274787476256  0.6718340644697491  1.0000
  F   F4        1.0  0.9990358558472253  0.49103098979748716  0.828165017808999  1.0000
  F   F5        1.0  0.2736786290656  0.49171165732670363  0.2671404058247262  1.0000
  F   F6        1.0  0.7736679848858544  0.4917053883513065  0.23286400965002935  1.0000
  F   F7        1.0  0.7263253452107605  0.5082928570401891  0.7328610219641759  1.0000
  F   F8        1.0  0.22632510486385374  0.5082971203675656  0.7671374181671664  1.0000
  F   F9        1.0  0.277377342455253  0.43748264291566136  0.39550476619793773  1.0000
  F   F10       1.0  0.7773668671795306  0.43748724450662724  0.1044979927194305  1.0000
  F   F11       1.0  0.7226345927242905  0.5625188281141649  0.6044948345713194  1.0000
  F   F12       1.0  0.2226296115419117  0.5625152593413959  0.8955040440922913  1.0000
