data_image0
_chemical_formula_structural       Na2Dy2H32C18O18
_chemical_formula_sum              "Na2 Dy2 H32 C18 O18"
_cell_length_a       9.049519103702968
_cell_length_b       9.1501501230451
_cell_length_c       9.334905406668014
_cell_angle_alpha    110.95559788012059
_cell_angle_beta     99.65394341399396
_cell_angle_gamma    95.13435540719676

_space_group_name_H-M_alt    "P 1"
_space_group_IT_number       1

loop_
  _space_group_symop_operation_xyz
  'x, y, z'

loop_
  _atom_site_type_symbol
  _atom_site_label
  _atom_site_symmetry_multiplicity
  _atom_site_fract_x
  _atom_site_fract_y
  _atom_site_fract_z
  _atom_site_occupancy
  Na  Na1       1.0  0.5000042420608963  0.9999988592096473  0.500004690073318  1.0000
  Na  Na2       1.0  0.999996758778039  0.4999936490963818  0.4999939111038855  1.0000
  Dy  Dy1       1.0  0.12873898234271053  0.841153310998031  0.44309937427346563  1.0000
  Dy  Dy2       1.0  0.8712606871125886  0.15884179960931277  0.5569006592579768  1.0000
  H   H1        1.0  0.5364335425681831  0.8657007457266629  0.8662286503689386  1.0000
  H   H2        1.0  0.46355803143804764  0.13428600272942495  0.1337799251999385  1.0000
  H   H3        1.0  0.44897594097493254  0.6630896955165965  0.80017739174653  1.0000
  H   H4        1.0  0.5510102864045124  0.3368982328504798  0.19982104724525837  1.0000
  H   H5        1.0  0.3700013092844117  0.8141321826256629  0.9287599070012859  1.0000
  H   H6        1.0  0.6299808541403847  0.18585811241170083  0.07123117288449517  1.0000
  H   H7        1.0  0.8784686600368091  0.04352893248378819  0.06892506478010318  1.0000
  H   H8        1.0  0.12153927097832447  0.9564839858574316  0.9310869124266149  1.0000
  H   H9        1.0  0.7259517267640306  0.9184290049062723  0.085591992126396  1.0000
  H   H10       1.0  0.2740496900741435  0.081585076376399  0.9144150003807568  1.0000
  H   H11       1.0  0.8468142754921858  0.8356925652905146  0.9533433647172557  1.0000
  H   H12       1.0  0.1531847186360267  0.16432031921227963  0.04666279546610498  1.0000
  H   H13       1.0  0.5490429547043193  0.688363116334784  0.5284599589545562  1.0000
  H   H14       1.0  0.45095795169386577  0.3116474138849695  0.4715424858882499  1.0000
  H   H15       1.0  0.6690207471193901  0.5402056890319571  0.4703492234091157  1.0000
  H   H16       1.0  0.3309706293524997  0.45979411322224445  0.5296553322917602  1.0000
  H   H17       1.0  0.6936448421184095  0.6647682698093574  0.6693363390886445  1.0000
  H   H18       1.0  0.3063485709785354  0.33523747248521824  0.33066850635513123  1.0000
  H   H19       1.0  0.5053615947715216  0.3693298788197977  0.9537329278406758  1.0000
  H   H20       1.0  0.4946466622312542  0.6306771403690873  0.046265249137846305  1.0000
  H   H21       1.0  0.39970566469484237  0.39594604034547837  0.7917786569183176  1.0000
  H   H22       1.0  0.6002984458162358  0.604063324666839  0.20822178114492118  1.0000
  H   H23       1.0  0.43111560906522345  0.20141595734777704  0.7751616865392918  1.0000
  H   H24       1.0  0.5688857292717912  0.7985898411930705  0.22483595633400447  1.0000
  H   H25       1.0  0.14764391000046828  0.525637776047887  0.23182290172448455  1.0000
  H   H26       1.0  0.852362508036272  0.4743644937372124  0.7681732946690116  1.0000
  H   H27       1.0  0.9200809954570274  0.36131351346953977  0.09053384939780063  1.0000
  H   H28       1.0  0.07992642909166389  0.6386804696964248  0.9094574656750396  1.0000
  H   H29       1.0  0.90448336006893  0.5514135468675292  0.08206596482731493  1.0000
  H   H30       1.0  0.0955255356401281  0.4485828113779958  0.9179275057845544  1.0000
  H   H31       1.0  0.8215876125739286  0.49395848132078873  0.21847410813246174  1.0000
  H   H32       1.0  0.1784177754120506  0.5060366840221561  0.781514061842415  1.0000
  C   C1        1.0  0.3285777568527024  0.8035818361086269  0.6929929860023947  1.0000
  C   C2        1.0  0.6714178669271716  0.19640852358427444  0.3070004059579431  1.0000
  C   C3        1.0  0.42806758166512526  0.7856684636517667  0.8300043245552614  1.0000
  C   C4        1.0  0.5719242084040205  0.214326602290889  0.16999756699626536  1.0000
  C   C5        1.0  0.945436816725099  0.8995977600981319  0.19733410497511264  1.0000
  C   C6        1.0  0.0545513596697873  0.10039494546852978  0.802653487680729  1.0000
  C   C7        1.0  0.842396483349624  0.9247862608434614  0.06730223812347437  1.0000
  C   C8        1.0  0.15760770560027737  0.07522426469333249  0.9327104049286915  1.0000
  C   C9        1.0  0.7778572350813137  0.7799574818697792  0.529065179496186  1.0000
  C   C10       1.0  0.2221502312854113  0.22004477477274517  0.47093976085083256  1.0000
  C   C11       1.0  0.6640995039857741  0.6610764368036397  0.5486659888068031  1.0000
  C   C12       1.0  0.33589671790603143  0.3389257590103226  0.45134023154166414  1.0000
  C   C13       1.0  0.6268398865591821  0.3554008171917715  0.7713829829609936  1.0000
  C   C14       1.0  0.3731577097126006  0.6446025885446358  0.22861532575774382  1.0000
  C   C15       1.0  0.4822704018141692  0.3266958941614746  0.8253907241770121  1.0000
  C   C16       1.0  0.5177340856733679  0.6733158474913805  0.17460847002214303  1.0000
  C   C17       1.0  0.9179231729182007  0.48620398236488427  0.16036110327347322  1.0000
  C   C18       1.0  0.0820836953989215  0.5137935603739336  0.8396281533303522  1.0000
  O   O1        1.0  0.20784168093242528  0.7028606206925899  0.6165444569302494  1.0000
  O   O2        1.0  0.7921576482918838  0.29713924475682757  0.38344968946989866  1.0000
  O   O3        1.0  0.3630965048226856  0.9207036603569276  0.6549606914705847  1.0000
  O   O4        1.0  0.6369121932273599  0.07929150725200168  0.3450344699834105  1.0000
  O   O5        1.0  0.05134070845586786  0.8190493893062862  0.17082446784790042  1.0000
  O   O6        1.0  0.9486511090632915  0.18093856136797365  0.8291770723284413  1.0000
  O   O7        1.0  0.9249719005548728  0.9602521495780537  0.33923748577796414  1.0000
  O   O8        1.0  0.07501898889115918  0.0397452482398108  0.660781140707968  1.0000
  O   O9        1.0  0.7452040936409363  0.9177747187725342  0.5502205445916815  1.0000
  O   O10       1.0  0.2548031750044403  0.08221922501604688  0.44978894195252644  1.0000
  O   O11       1.0  0.9014732138689395  0.7350072628624389  0.494705300326217  1.0000
  O   O12       1.0  0.09852158265408659  0.26498544723619216  0.5052962752878756  1.0000
  O   O13       1.0  0.6620583907129713  0.23721771515346995  0.6650865984963373  1.0000
  O   O14       1.0  0.33794432194167  0.7627821710924607  0.3349059881022853  1.0000
  O   O15       1.0  0.7052244194689263  0.4930273429365854  0.8308885724806385  1.0000
  O   O16       1.0  0.2947827158375986  0.5069796708643394  0.16910941182500486  1.0000
  O   O17       1.0  0.054902032168648404  0.5535692298833866  0.28123222913193757  1.0000
  O   O18       1.0  0.9451047994653481  0.4464283035901672  0.7187613031122098  1.0000
