data_image0
_chemical_formula_structural       CdH70C48O14
_chemical_formula_sum              "Cd1 H70 C48 O14"
_cell_length_a       6.965953792351343
_cell_length_b       11.080289130711012
_cell_length_c       17.57745756563268
_cell_angle_alpha    72.48942618642614
_cell_angle_beta     78.57201165647271
_cell_angle_gamma    71.70090947167844

_space_group_name_H-M_alt    "P 1"
_space_group_IT_number       1

loop_
  _space_group_symop_operation_xyz
  'x, y, z'

loop_
  _atom_site_type_symbol
  _atom_site_label
  _atom_site_symmetry_multiplicity
  _atom_site_fract_x
  _atom_site_fract_y
  _atom_site_fract_z
  _atom_site_occupancy
  Cd  Cd1       1.0  0.6600767050480272  0.9997209215802768  4.031593577024794e-05  1.0000
  H   H1        1.0  0.3507739875139818  0.540735357247314  0.7975056308738219  1.0000
  H   H2        1.0  0.6899248061536981  0.4592065255606954  0.20250686041210736  1.0000
  H   H3        1.0  0.7207682447609471  0.6630726190408467  0.6339023665494709  1.0000
  H   H4        1.0  0.01813555662242546  0.3372673238124264  0.36615810954383227  1.0000
  H   H5        1.0  0.6968495654117958  0.5584879456075383  0.7313489311923079  1.0000
  H   H6        1.0  0.9874566729322255  0.4414525468611215  0.26857376596248633  1.0000
  H   H7        1.0  0.8069068291517282  0.4265892924200046  0.6337812047297788  1.0000
  H   H8        1.0  0.8681258123741172  0.573824431910829  0.3659744848102592  1.0000
  H   H9        1.0  0.602661279135745  0.5209463512343717  0.5777763330200615  1.0000
  H   H10       1.0  0.7020969108560633  0.4796032301993591  0.4220379972111274  1.0000
  H   H11       1.0  0.5809358278873659  0.3503926954001387  0.7512971007966058  1.0000
  H   H12       1.0  0.6833315762187765  0.6499024405494751  0.24844130092191108  1.0000
  H   H13       1.0  0.5322105847994435  0.31301426479908656  0.6675526102640107  1.0000
  H   H14       1.0  0.5137168851215036  0.6873315878943487  0.3322144769986934  1.0000
  H   H15       1.0  0.985389187820225  0.7205204294633134  0.7103968954980714  1.0000
  H   H16       1.0  0.41683942520251077  0.2795918096393919  0.28971628536849187  1.0000
  H   H17       1.0  0.971600751368264  0.5965392185732554  0.7998192984093251  1.0000
  H   H18       1.0  0.36829194112378605  0.4037307511025574  0.200359942790783  1.0000
  H   H19       1.0  0.12263350584906617  0.6968378610213363  0.8712688605954569  1.0000
  H   H20       1.0  0.6907151823521929  0.3033504618308882  0.12877052727804994  1.0000
  H   H21       1.0  0.9061968946005905  0.8115196388963497  0.8304553041970877  1.0000
  H   H22       1.0  0.547944992326734  0.18881336231597604  0.16958563664248064  1.0000
  H   H23       1.0  0.4802084559829466  0.7098003074942626  0.7940730922829006  1.0000
  H   H24       1.0  0.9842076393530449  0.29021927219818616  0.20596271851586317  1.0000
  H   H25       1.0  0.6688771692187958  0.8541037526629937  0.7281546357954481  1.0000
  H   H26       1.0  0.2511885065739817  0.14579948914247606  0.27164394637595995  1.0000
  H   H27       1.0  0.5965894601525504  0.8659929410648599  0.6353286649689948  1.0000
  H   H28       1.0  0.09833615500424037  0.1340700863988289  0.3645374259638743  1.0000
  H   H29       1.0  0.4902192372674107  0.08751729013745549  0.6600365833180603  1.0000
  H   H30       1.0  0.23718921338504362  0.9124032269687705  0.33996248516838523  1.0000
  H   H31       1.0  0.9505082599270621  0.9631224847697482  0.6871061966731773  1.0000
  H   H32       1.0  0.600102008679727  0.03716223032272839  0.3130463859844567  1.0000
  H   H33       1.0  0.2299188871262598  0.1239480598019469  0.7779101953198834  1.0000
  H   H34       1.0  0.13071967654863675  0.875886631454669  0.2222244447485623  1.0000
  H   H35       1.0  0.3231885323335602  0.8485527276813658  0.874695559426236  1.0000
  H   H36       1.0  0.04597815129616121  0.15112623680001747  0.1252692222937029  1.0000
  H   H37       1.0  0.1585592648187983  0.24445621617643104  0.6037253662560645  1.0000
  H   H38       1.0  0.0061555905196188105  0.7558186935164882  0.3961828701206329  1.0000
  H   H39       1.0  0.8194638429608782  0.1924765414233818  0.6303313114580079  1.0000
  H   H40       1.0  0.6418415977815071  0.8078201718882456  0.36962756120742307  1.0000
  H   H41       1.0  0.9046592070338946  0.10236866728148901  0.5562316900657224  1.0000
  H   H42       1.0  0.5628059150014195  0.8974375048733735  0.4439642483897259  1.0000
  H   H43       1.0  0.878810627875424  0.2738516118439661  0.5280951118515915  1.0000
  H   H44       1.0  0.6804425273836258  0.7259206132206941  0.471777780864997  1.0000
  H   H45       1.0  0.4486311205693241  0.11747814389777742  0.5225839431645127  1.0000
  H   H46       1.0  0.08863367613640348  0.8823421970002913  0.47741726310426463  1.0000
  H   H47       1.0  0.2546485391752069  0.22829213207423754  0.46400214680443247  1.0000
  H   H48       1.0  0.9469605530693315  0.7713459429854835  0.5360115343724415  1.0000
  H   H49       1.0  0.27198568402176443  0.057241897855142596  0.4943660377862217  1.0000
  H   H50       1.0  0.823636204914159  0.9424595942165014  0.5059255182488086  1.0000
  H   H51       1.0  0.03313530055179108  0.5650908014276793  0.6372345728767074  1.0000
  H   H52       1.0  0.2360359361869584  0.4352387724162341  0.36263393017350154  1.0000
  H   H53       1.0  0.18523196069894243  0.4134271070611318  0.6186552690811383  1.0000
  H   H54       1.0  0.21852073180403414  0.5867758713084257  0.3813339137252925  1.0000
  H   H55       1.0  0.27448437870201275  0.5548960356538047  0.5796974346515215  1.0000
  H   H56       1.0  0.40978489131230567  0.44508941220094306  0.42026808517702813  1.0000
  H   H57       1.0  0.16572554488743654  0.7975395571286441  0.6118220458150462  1.0000
  H   H58       1.0  0.5751867719096495  0.20288041094027412  0.38847476528488306  1.0000
  H   H59       1.0  0.3782540404583442  0.699745689208008  0.5639005203608747  1.0000
  H   H60       1.0  0.6431553150349387  0.3005180464555437  0.43624779512071404  1.0000
  H   H61       1.0  0.39326847413125426  0.8442710976528717  0.5812083476819369  1.0000
  H   H62       1.0  0.8190470803853103  0.15584006103139103  0.4188962264576404  1.0000
  H   H63       1.0  0.00438355958723939  0.2671369061562743  0.8015316258793207  1.0000
  H   H64       1.0  0.07364036238740108  0.7321463965337571  0.1984472343856254  1.0000
  H   H65       1.0  0.7461686454789811  0.09558546251774656  0.8107338509810661  1.0000
  H   H66       1.0  0.6516784651203409  0.904290997516419  0.18922025421584718  1.0000
  H   H67       1.0  0.6005813090557691  0.2715009964848676  0.9609114308462524  1.0000
  H   H68       1.0  0.8333888055604036  0.7282377697971895  0.03874516280191639  1.0000
  H   H69       1.0  0.4190869004988968  0.2721160708797897  0.9186794398770601  1.0000
  H   H70       1.0  0.6103832332864061  0.7273437776182021  0.08110845876846176  1.0000
  C   C1        1.0  0.19664388359993257  0.37268724529528185  0.7767726262719635  1.0000
  C   C2        1.0  0.3467813683801638  0.627031859534128  0.22315395042954828  1.0000
  C   C3        1.0  0.2915794580591252  0.46836150117610503  0.7081437117433325  1.0000
  C   C4        1.0  0.46896529695281686  0.5317740200264611  0.291809882635512  1.0000
  C   C5        1.0  0.27942606539001236  0.5873673796131342  0.7410532554956434  1.0000
  C   C6        1.0  0.6086250070557782  0.4126733757855591  0.2589749135719969  1.0000
  C   C7        1.0  0.4088380937755645  0.6814071435851757  0.6888462052121299  1.0000
  C   C8        1.0  0.7795940881349067  0.3186502807922125  0.31124483131702624  1.0000
  C   C9        1.0  0.629871391356829  0.5986548451346182  0.6740342286795453  1.0000
  C   C10       1.0  0.9031868948996689  0.40151491986753746  0.32591589565474516  1.0000
  C   C11       1.0  0.6470247447394114  0.4845559661222723  0.639180878860195  1.0000
  C   C12       1.0  0.7715364562100933  0.5158493287980049  0.3606110917672893  1.0000
  C   C13       1.0  0.5196613696879097  0.3946665135637843  0.6930920535213618  1.0000
  C   C14       1.0  0.6082888190359623  0.6056360834567016  0.3067089828961258  1.0000
  C   C15       1.0  0.062432471738112894  0.6644016846298654  0.7643722125879435  1.0000
  C   C16       1.0  0.4916215307266044  0.3357699276000404  0.2357145977275295  1.0000
  C   C17       1.0  0.06287017712381983  0.7564203902308007  0.8140549996879543  1.0000
  C   C18       1.0  0.6333508193796077  0.24377932745957753  0.1859860116012513  1.0000
  C   C19       1.0  0.19227601874956673  0.8518601179643994  0.7709709375816588  1.0000
  C   C20       1.0  0.8148526841598595  0.14829148195268968  0.22907302210348493  1.0000
  C   C21       1.0  0.4097222517060213  0.7750562517135438  0.7398554445442614  1.0000
  C   C22       1.0  0.9247632653289627  0.22494003877950064  0.2601851555406114  1.0000
  C   C23       1.0  0.5361462112249386  0.8742697656713999  0.6967275098912964  1.0000
  C   C24       1.0  0.1072478462190104  0.12568095059703668  0.30319332025505474  1.0000
  C   C25       1.0  0.40481005289083766  0.01610848858810241  0.693878855248677  1.0000
  C   C26       1.0  0.11431342781633444  0.9839113014649855  0.30613676022627345  1.0000
  C   C27       1.0  0.2076227359157698  0.042088950413031484  0.66013498515877  1.0000
  C   C28       1.0  0.9091535504845896  0.9581508770133667  0.3399641142507406  1.0000
  C   C29       1.0  0.09927271083859102  0.9571613194008748  0.7011331776037578  1.0000
  C   C30       1.0  0.7569403196676845  0.04311449981679518  0.29897413176997395  1.0000
  C   C31       1.0  0.34165683263229596  0.027723442366067275  0.781279926811756  1.0000
  C   C32       1.0  0.1499267311869092  0.9721236950935788  0.21877514550521937  1.0000
  C   C33       1.0  0.2303296272420568  0.9238149818653342  0.829739382792539  1.0000
  C   C34       1.0  0.9832056295731348  0.07606637484784068  0.17034004248885282  1.0000
  C   C35       1.0  0.5025332976958764  0.03322946772351537  0.8253307412775827  1.0000
  C   C36       1.0  0.36033995004322616  0.9664890033687072  0.17464083524856724  1.0000
  C   C37       1.0  0.14429000293399227  0.15692728608571826  0.5897357632888146  1.0000
  C   C38       1.0  0.890387475811643  0.8432283207834672  0.41030909641493457  1.0000
  C   C39       1.0  0.9239470168213938  0.1831298015205363  0.5755532148803512  1.0000
  C   C40       1.0  0.6821894146548644  0.8168833177176326  0.4244873500405006  1.0000
  C   C41       1.0  0.2887650675695139  0.1389843721213424  0.5133662805086203  1.0000
  C   C42       1.0  0.9409781723280304  0.8608408043991602  0.48674562960798795  1.0000
  C   C43       1.0  0.18972476648087874  0.5032459248337985  0.6316683092638372  1.0000
  C   C44       1.0  0.3255016090760918  0.4968925124336465  0.3682926472223614  1.0000
  C   C45       1.0  0.3313127687987104  0.7593951574769947  0.6073798943073995  1.0000
  C   C46       1.0  0.698574563180095  0.24084422152147064  0.3927759778999445  1.0000
  C   C47       1.0  0.03125530242699154  0.9840811103527614  0.8759019728281388  1.0000
  C   C48       1.0  0.8903588995316837  0.015680738010949796  0.1243108776058079  1.0000
  O   O1        1.0  0.04313103034436941  0.34089079565522706  0.7582111664765138  1.0000
  O   O2        1.0  0.14293726038620488  0.6586924700133637  0.24183137135020866  1.0000
  O   O3        1.0  0.25651327618481184  0.32496778383985964  0.8435302587646022  1.0000
  O   O4        1.0  0.42542791168726524  0.6744257805204441  0.1562640840045404  1.0000
  O   O5        1.0  0.6443463544910486  0.08657487235286963  0.7787909976906063  1.0000
  O   O6        1.0  0.5088932409369347  0.9134903422223247  0.22118005122720055  1.0000
  O   O7        1.0  0.49110059016454244  0.9958099902402751  0.8996412999436886  1.0000
  O   O8        1.0  0.3858986536164011  0.0034761697909146986  0.10032627131192841  1.0000
  O   O9        1.0  0.9710461239804641  0.9089204366831113  0.9397384735259918  1.0000
  O   O10       1.0  0.818693253670638  0.09077109072136119  0.0604899203216576  1.0000
  O   O11       1.0  0.9279967617997541  0.10361946804060551  0.8470671644655995  1.0000
  O   O12       1.0  0.8779191552294495  0.896118680073215  0.1531732603234417  1.0000
  O   O13       1.0  0.49133042784190917  0.23103627874746732  0.9670022461116404  1.0000
  O   O14       1.0  0.6897248958473412  0.7686389893730876  0.03280709632188916  1.0000
