data_image0
_chemical_formula_structural       Mn4H28C24N8O26
_chemical_formula_sum              "Mn4 H28 C24 N8 O26"
_cell_length_a       7.153864010578789
_cell_length_b       10.369955544417447
_cell_length_c       13.406009167447722
_cell_angle_alpha    102.55488340354971
_cell_angle_beta     100.91193678950052
_cell_angle_gamma    102.29539812406503

_space_group_name_H-M_alt    "P 1"
_space_group_IT_number       1

loop_
  _space_group_symop_operation_xyz
  'x, y, z'

loop_
  _atom_site_type_symbol
  _atom_site_label
  _atom_site_symmetry_multiplicity
  _atom_site_fract_x
  _atom_site_fract_y
  _atom_site_fract_z
  _atom_site_occupancy
  Mn  Mn1       1.0  0.21316993049260444  0.9941315591113664  0.8042678386189122  1.0000
  Mn  Mn2       1.0  0.7868295627555356  0.005865933578370197  0.19573947781987744  1.0000
  Mn  Mn3       1.0  0.8322379762691272  0.4873478391085014  0.6919367773120084  1.0000
  Mn  Mn4       1.0  0.1677655822665969  0.5126515406924668  0.3080630927738923  1.0000
  H   H1        1.0  0.39442418111276106  0.8081064039644089  0.7235164468013691  1.0000
  H   H2        1.0  0.6055709260883975  0.19189296881969398  0.27648093779578176  1.0000
  H   H3        1.0  0.4186444693645229  0.7936781721000726  0.8422994845196283  1.0000
  H   H4        1.0  0.5813546326360495  0.20632428124651628  0.15769958313782684  1.0000
  H   H5        1.0  0.878686784234432  0.927304992542524  0.8915470078281229  1.0000
  H   H6        1.0  0.12116972210575483  0.07262437979360929  0.10833615518411219  1.0000
  H   H7        1.0  0.9751710075242245  0.7988795654943458  0.8707396301481934  1.0000
  H   H8        1.0  0.024853074870215198  0.2011331927320512  0.1292699049882273  1.0000
  H   H9        1.0  0.8941514180749196  0.7449080706644295  0.6351304434711338  1.0000
  H   H10       1.0  0.10585210151261037  0.25509132321495537  0.36487017054960086  1.0000
  H   H11       1.0  0.677674866896922  0.6994839110126989  0.6468898700287651  1.0000
  H   H12       1.0  0.32232023289602557  0.30051429647699024  0.3530998730248455  1.0000
  H   H13       1.0  0.5671784096574088  0.5888289731069491  0.81149848922864  1.0000
  H   H14       1.0  0.43281974559127434  0.41117448011637237  0.18849912648457934  1.0000
  H   H15       1.0  0.4124608414948342  0.5041995863489745  0.7062899546381302  1.0000
  H   H16       1.0  0.5875402347272285  0.4958038316708553  0.29370650574512774  1.0000
  H   H17       1.0  0.1623901218506987  0.5605654841711001  0.5919125094411726  1.0000
  H   H18       1.0  0.8376111852392399  0.4394348567946764  0.4080835106261488  1.0000
  H   H19       1.0  0.19476764397551696  0.6447101368214163  0.709221482377309  1.0000
  H   H20       1.0  0.805225364751337  0.355287148230282  0.2907730997549862  1.0000
  H   H21       1.0  0.9527558355367065  0.19328771733060532  0.6937379638276367  1.0000
  H   H22       1.0  0.04725088506981477  0.806712708090771  0.30626392886288295  1.0000
  H   H23       1.0  0.33481038213261627  0.49076678911466587  0.038151747591058376  1.0000
  H   H24       1.0  0.6651973918408634  0.5092284363167678  0.9618457469887145  1.0000
  H   H25       1.0  0.6238058691677255  0.24828142367781683  0.8090239243071122  1.0000
  H   H26       1.0  0.3762004258299214  0.7517221491897034  0.19098212837347717  1.0000
  H   H27       1.0  0.2864266511606958  0.05724692684589879  0.4365579393985043  1.0000
  H   H28       1.0  0.7135785700109311  0.9427535302556437  0.5634452748918121  1.0000
  C   C1        1.0  0.03336297985232761  0.25823208580051477  0.772358471576261  1.0000
  C   C2        1.0  0.9666382854681006  0.7417652766601321  0.22764231571892415  1.0000
  C   C3        1.0  0.1240685423979855  0.4692875513074456  0.8929492426209222  1.0000
  C   C4        1.0  0.8759346581957386  0.5307107899048588  0.10704968133488522  1.0000
  C   C5        1.0  0.24919755493620244  0.42322587731187167  0.9617738527508093  1.0000
  C   C6        1.0  0.7508090803657055  0.5767734109719312  0.03822188626582343  1.0000
  C   C7        1.0  0.2531268040499128  0.2873139567883811  0.9300047167296694  1.0000
  C   C8        1.0  0.7468780230528298  0.7126884683864746  0.06999427207235698  1.0000
  C   C9        1.0  0.09462248531617229  0.6121243212169106  0.9237627906558286  1.0000
  C   C10       1.0  0.905392491883923  0.3878761816134215  0.07624530719757414  1.0000
  C   C11       1.0  0.378485886873854  0.22103332559381528  0.9957984871672849  1.0000
  C   C12       1.0  0.6215299286974841  0.7789751973456732  0.004201224555743079  1.0000
  C   C13       1.0  0.547971328398191  0.20560495945318277  0.7254450790493223  1.0000
  C   C14       1.0  0.45202746201678684  0.7943976065207394  0.2745599400867603  1.0000
  C   C15       1.0  0.2987688324786221  0.04280091616376319  0.5964216974442422  1.0000
  C   C16       1.0  0.7012314573712504  0.9572016181300002  0.4035820000920367  1.0000
  C   C17       1.0  0.3620323449379939  0.09880016729746188  0.519509406022955  1.0000
  C   C18       1.0  0.6379696854441761  0.9012034161400422  0.48049614784808625  1.0000
  C   C19       1.0  0.5240804061763243  0.2127899951073573  0.5536869194555365  1.0000
  C   C20       1.0  0.47591803652617415  0.7872156901558753  0.4463207718009626  1.0000
  C   C21       1.0  0.11998652119317661  0.9210128364452576  0.567901687448078  1.0000
  C   C22       1.0  0.8800177634561024  0.07899277841098498  0.4321036931485053  1.0000
  C   C23       1.0  0.6063046014048439  0.2801797235452669  0.476467218102229  1.0000
  C   C24       1.0  0.3936986947230211  0.7198239126825855  0.5235414777779681  1.0000
  N   N1        1.0  0.142958414247957  0.2043783458655355  0.8355547480159871  1.0000
  N   N2        1.0  0.857042773176069  0.7956190447519519  0.1644475271488588  1.0000
  N   N3        1.0  0.018392550178283843  0.38713048620481066  0.7979430286928701  1.0000
  N   N4        1.0  0.9816100977324355  0.6128668868109272  0.20205866880699105  1.0000
  N   N5        1.0  0.6159067612198684  0.2669748944400467  0.6563267540358168  1.0000
  N   N6        1.0  0.3840943974854908  0.7330266681338172  0.34367988331435834  1.0000
  N   N7        1.0  0.39359259095836313  0.09506358375864472  0.6992197832621585  1.0000
  N   N8        1.0  0.6064066742432248  0.9049399785686847  0.3007839501995305  1.0000
  O   O1        1.0  0.33072634333282747  0.818022634821496  0.78453922151904  1.0000
  O   O2        1.0  0.6692716561230512  0.1819808747154923  0.21546136993348589  1.0000
  O   O3        1.0  0.9943780337017716  0.9004476123432427  0.8761304853426849  1.0000
  O   O4        1.0  0.005627077182097697  0.09956770529468882  0.1239018425255409  1.0000
  O   O5        1.0  0.7921713080591816  0.6641774845779834  0.637664910177328  1.0000
  O   O6        1.0  0.2078292516067677  0.3358219585833099  0.3623376031081875  1.0000
  O   O7        1.0  0.5450349418886873  0.5114486079748773  0.7480866079555284  1.0000
  O   O8        1.0  0.45496012354296067  0.4885477863041032  0.2519155438694867  1.0000
  O   O9        1.0  0.14446495438206597  0.5500383606464468  0.6619615356217139  1.0000
  O   O10       1.0  0.8555312553637863  0.44995995594725713  0.3380343251803737  1.0000
  O   O11       1.0  0.18102510923272772  0.686945025601169  0.01375049494699714  1.0000
  O   O12       1.0  0.8189814397088355  0.3130453130888283  0.986258801818394  1.0000
  O   O13       1.0  0.9738656390098162  0.6400099077215841  0.8516935589976596  1.0000
  O   O14       1.0  0.026158383977353587  0.35999454882730225  0.14830948357258217  1.0000
  O   O15       1.0  0.4048927606955673  0.10906228904800494  0.9490656767710632  1.0000
  O   O16       1.0  0.5951075681025062  0.8909402311673419  0.050937276830382  1.0000
  O   O17       1.0  0.4482299493759285  0.28075468757090505  0.09329462278783039  1.0000
  O   O18       1.0  0.5517928598645981  0.7192568525707373  0.9067041287958869  1.0000
  O   O19       1.0  0.0472229569700175  0.9000783283196514  0.6461826754385599  1.0000
  O   O20       1.0  0.9527827361669028  0.09992013255175182  0.3538232764704006  1.0000
  O   O21       1.0  0.05644792486455673  0.8521406770272434  0.47441018179102895  1.0000
  O   O22       1.0  0.9435492029145182  0.14786081164610468  0.5255914931406308  1.0000
  O   O23       1.0  0.7469531898121745  0.3882852556135461  0.513823562912954  1.0000
  O   O24       1.0  0.2530462385904216  0.6117194156945374  0.4861848363529617  1.0000
  O   O25       1.0  0.5243728854966677  0.22113169174514272  0.37970640561934477  1.0000
  O   O26       1.0  0.47563944054611806  0.7788657551562111  0.6203016633132563  1.0000
