data_image0
_chemical_formula_structural       Cu2H18C22N12
_chemical_formula_sum              "Cu2 H18 C22 N12"
_cell_length_a       5.772210938498882
_cell_length_b       9.375059906976453
_cell_length_c       10.60226763478894
_cell_angle_alpha    70.334606502325
_cell_angle_beta     76.07116399149608
_cell_angle_gamma    80.59814660522626

_space_group_name_H-M_alt    "P 1"
_space_group_IT_number       1

loop_
  _space_group_symop_operation_xyz
  'x, y, z'

loop_
  _atom_site_type_symbol
  _atom_site_label
  _atom_site_symmetry_multiplicity
  _atom_site_fract_x
  _atom_site_fract_y
  _atom_site_fract_z
  _atom_site_occupancy
  Cu  Cu1       1.0  0.7908546325716657  0.4544814573838352  0.41221462161509953  1.0000
  Cu  Cu2       1.0  0.20917923144467918  0.545523665215363  0.5877918553477812  1.0000
  H   H1        1.0  0.906802644839267  0.12169752228400196  0.4268033761073583  1.0000
  H   H2        1.0  0.0932209886247009  0.8782884908378107  0.573191190867675  1.0000
  H   H3        1.0  0.15480916961564617  0.9086173493031141  0.3596278975376564  1.0000
  H   H4        1.0  0.8452045782102644  0.0913733333558397  0.6403563103879579  1.0000
  H   H5        1.0  0.6409037349802986  0.8951257951727811  0.13032104439920997  1.0000
  H   H6        1.0  0.3590945463470234  0.1048874692342281  0.8696700843551145  1.0000
  H   H7        1.0  0.3902309552593478  0.10613736621795766  0.20025188762401316  1.0000
  H   H8        1.0  0.6097719689071895  0.8938701077795556  0.7997487654440292  1.0000
  H   H9        1.0  0.24234356693039413  0.7941943293220459  0.13230685031524564  1.0000
  H   H10       1.0  0.7576697000137287  0.2058226253634814  0.8676613203443326  1.0000
  H   H11       1.0  0.12189106739305798  0.669730100825646  0.29418483903025117  1.0000
  H   H12       1.0  0.8781263739862268  0.33028446317138815  0.7057928789864221  1.0000
  H   H13       1.0  0.07380454908131642  0.8059219995178494  0.9253438610856507  1.0000
  H   H14       1.0  0.9261425233786794  0.19405744132720315  0.07463492837769084  1.0000
  H   H15       1.0  0.7449690251343595  0.6488221892683013  0.8905169454085498  1.0000
  H   H16       1.0  0.2549259745454576  0.35115652980910983  0.10951927253477584  1.0000
  H   H17       1.0  0.5567870337656585  0.4774197213199329  0.15565199371546606  1.0000
  H   H18       1.0  0.44312746918195955  0.5225915276651988  0.8444098257757773  1.0000
  C   C1        1.0  0.6287288349938153  0.1280667889212168  0.3202167505432385  1.0000
  C   C2        1.0  0.3712985045012687  0.8719202332331192  0.6797873868322597  1.0000
  C   C3        1.0  0.8462800865905534  0.0716752996688399  0.3631834936557468  1.0000
  C   C4        1.0  0.15374021974848515  0.9283209706746975  0.6368066754391465  1.0000
  C   C5        1.0  0.9874459527132873  0.9526467321172228  0.32368991672640146  1.0000
  C   C6        1.0  0.012555766265684599  0.04735409758185939  0.6762986788588919  1.0000
  C   C7        1.0  0.9162319456729333  0.8868372521561979  0.24028511414675083  1.0000
  C   C8        1.0  0.0837881678509405  0.1131601676084912  0.7597038052316452  1.0000
  C   C9        1.0  0.7002733871542192  0.944311366707346  0.19557813131696386  1.0000
  C   C10       1.0  0.29972113263598027  0.05570304188211848  0.8044122441825011  1.0000
  C   C11       1.0  0.5584623851508965  0.06328486445364938  0.23478753917753892  1.0000
  C   C12       1.0  0.4415551172453361  0.9367193035912674  0.7652054467112922  1.0000
  C   C13       1.0  0.4662371554177581  0.24470694466082682  0.3675613804670377  1.0000
  C   C14       1.0  0.5337881176459546  0.7552948257986856  0.6324415993654712  1.0000
  C   C15       1.0  0.0737932956052845  0.7559338169544743  0.20204760697246374  1.0000
  C   C16       1.0  0.9262100981785083  0.2440649349626227  0.7979262649471012  1.0000
  C   C17       1.0  0.9547389073366545  0.7253374832185742  0.00016898292283683739  1.0000
  C   C18       1.0  0.0452170582046563  0.27464730521821673  0.9998343804433035  1.0000
  C   C19       1.0  0.7840957530430901  0.6462509998132971  0.9863775212549726  1.0000
  C   C20       1.0  0.215866053800859  0.3537482076089801  0.013650096994965086  1.0000
  C   C21       1.0  0.6905959840476755  0.5584307014067207  0.12031427152979997  1.0000
  C   C22       1.0  0.3093735389283125  0.44156400375760535  0.879710751325348  1.0000
  N   N1        1.0  0.508756961975976  0.33526890924336783  0.4349125950972664  1.0000
  N   N2        1.0  0.491276936274879  0.6647226361236703  0.565092151826491  1.0000
  N   N3        1.0  0.29433709163684796  0.41277173175467397  0.46542402945421213  1.0000
  N   N4        1.0  0.7056929070398112  0.5872231474166367  0.5345859522156361  1.0000
  N   N5        1.0  0.13291054832588148  0.37180557899577577  0.41543041133728315  1.0000
  N   N6        1.0  0.8671154132247736  0.6281926946578551  0.58458008983758  1.0000
  N   N7        1.0  0.23640345526799675  0.26891786285920466  0.35316768032106444  1.0000
  N   N8        1.0  0.763621817795716  0.7310839076003075  0.6468352995114373  1.0000
  N   N9        1.0  0.9591375929713306  0.6828614062958424  0.13554817758959103  1.0000
  N   N10       1.0  0.04087011279943199  0.31713489425472124  0.8644399569281521  1.0000
  N   N11       1.0  0.7958556451853623  0.5812773232094626  0.21131998600848326  1.0000
  N   N12       1.0  0.20414475014197822  0.4187379271333355  0.7886929143356556  1.0000
