data_image0
_chemical_formula_structural       Ag12H164C154N24O24
_chemical_formula_sum              "Ag12 H164 C154 N24 O24"
_cell_length_a       12.073947524745265
_cell_length_b       15.428576738539409
_cell_length_c       24.96435991814035
_cell_angle_alpha    90.00002030624137
_cell_angle_beta     90.00037286848281
_cell_angle_gamma    101.56396742017945

_space_group_name_H-M_alt    "P 1"
_space_group_IT_number       1

loop_
  _space_group_symop_operation_xyz
  'x, y, z'

loop_
  _atom_site_type_symbol
  _atom_site_label
  _atom_site_symmetry_multiplicity
  _atom_site_fract_x
  _atom_site_fract_y
  _atom_site_fract_z
  _atom_site_occupancy
  Ag  Ag1       1.0  0.7325922141326231  0.769043879095605  0.11899046870649954  1.0000
  Ag  Ag2       1.0  0.2674128724625149  0.2309551257869629  0.6189908812144438  1.0000
  Ag  Ag3       1.0  0.3289412764779698  0.7937175523690809  0.587681201888401  1.0000
  Ag  Ag4       1.0  0.6710599135392243  0.20628401794836285  0.0876792755053941  1.0000
  Ag  Ag5       1.0  0.44094524477611685  0.40994912247405313  0.0387003093994807  1.0000
  Ag  Ag6       1.0  0.559053283374304  0.5900542990365807  0.5387009169607282  1.0000
  Ag  Ag7       1.0  0.24036227635350116  0.6454442956620524  0.08450331467423673  1.0000
  Ag  Ag8       1.0  0.759638840152583  0.35455395637537623  0.5845033046381758  1.0000
  Ag  Ag9       1.0  0.40754760160164955  0.9448683947279973  0.6578669987350949  1.0000
  Ag  Ag10      1.0  0.592453923741452  0.05513403624183869  0.1578667953199755  1.0000
  Ag  Ag11      1.0  0.041391906938521614  0.6340538739151356  0.16160491605851493  1.0000
  Ag  Ag12      1.0  0.958605674641774  0.3659459271119089  0.6616051361682337  1.0000
  H   H1        1.0  0.3317810319836383  0.6313758054882399  0.4902342687239027  1.0000
  H   H2        1.0  0.668220051981031  0.3686269084721872  0.9902319700840609  1.0000
  H   H3        1.0  0.24300155523546613  0.7057491624011405  0.5071378342985327  1.0000
  H   H4        1.0  0.7569960129734453  0.2942521855125192  0.007136197724648201  1.0000
  H   H5        1.0  0.6438619756879332  0.2562351552009332  0.327757894711752  1.0000
  H   H6        1.0  0.35614728890324443  0.7437723778529417  0.8277582942527247  1.0000
  H   H7        1.0  0.6395654542055027  0.935476252264479  0.35934418848278693  1.0000
  H   H8        1.0  0.3604311251562748  0.06452543596074628  0.8593428570413835  1.0000
  H   H9        1.0  0.540950969512231  0.006138252331261598  0.3538909616857708  1.0000
  H   H10       1.0  0.4590445336455106  0.9938627604246263  0.8538909374241399  1.0000
  H   H11       1.0  0.8425765472896884  0.15037021566701012  0.4943460856311361  1.0000
  H   H12       1.0  0.1574217400150673  0.8496278817591046  0.9943430757974029  1.0000
  H   H13       1.0  0.7581614836734263  0.23133543258861516  0.49152674173203087  1.0000
  H   H14       1.0  0.24183941865948105  0.7686633141027599  0.9915259843800188  1.0000
  H   H15       1.0  0.535249901377682  0.6061848469521891  0.3329555698744215  1.0000
  H   H16       1.0  0.46475124358052966  0.3938134488905403  0.832956239106281  1.0000
  H   H17       1.0  0.7412111244829873  0.5833267540118497  0.2940744631943417  1.0000
  H   H18       1.0  0.2587896422834106  0.4166720939293215  0.7940732850858156  1.0000
  H   H19       1.0  0.05082045952302396  0.6641469983828615  0.8272638997016843  1.0000
  H   H20       1.0  0.9491779787467038  0.3358539335666393  0.3272628787381393  1.0000
  H   H21       1.0  0.13259694004693756  0.5839985296648249  0.8138160489598505  1.0000
  H   H22       1.0  0.8674029638852049  0.4160023615042121  0.31381518710886525  1.0000
  H   H23       1.0  0.21841381038237973  0.8172116873170052  0.1446935053609124  1.0000
  H   H24       1.0  0.7815883280297131  0.18278739576773967  0.6446931280962077  1.0000
  H   H25       1.0  0.16076564025051707  0.3816020824585279  0.0579889626380563  1.0000
  H   H26       1.0  0.8392315048019725  0.6184013962823229  0.5579924637797263  1.0000
  H   H27       1.0  0.11767466423373919  0.2689497605479899  0.07622167553203242  1.0000
  H   H28       1.0  0.8823187705077801  0.7310544383959153  0.5762249357671507  1.0000
  H   H29       1.0  0.3257888987921049  0.6190844693275253  0.31809485547866967  1.0000
  H   H30       1.0  0.6742115508652731  0.38091510927799277  0.8180925783343369  1.0000
  H   H31       1.0  0.7844513660605871  0.025370844199450494  0.22835438226930196  1.0000
  H   H32       1.0  0.21554647363792878  0.9746264984634935  0.7283519827389711  1.0000
  H   H33       1.0  0.7468298545082205  0.9175624148215461  0.025541285221883907  1.0000
  H   H34       1.0  0.2531742826615968  0.0824409594311959  0.5255428233777693  1.0000
  H   H35       1.0  0.8815013642533528  0.9903778832940301  0.0316682397812471  1.0000
  H   H36       1.0  0.1185023456078866  0.009623523481003798  0.5316677351183118  1.0000
  H   H37       1.0  0.3042416858395427  0.6251347248938471  0.6479386485306194  1.0000
  H   H38       1.0  0.6957598418600313  0.3748650303590608  0.14793643488114583  1.0000
  H   H39       1.0  0.6339908278341113  0.4416667986882672  0.31390655201686724  1.0000
  H   H40       1.0  0.3660120748174477  0.558336073086046  0.8139053416027766  1.0000
  H   H41       1.0  0.6420699306280895  0.37244463440634945  0.2583281247292391  1.0000
  H   H42       1.0  0.35793167268729326  0.6275560961516007  0.7583249004406698  1.0000
  H   H43       1.0  0.9352519766187728  0.6468748581524437  0.9401630417838335  1.0000
  H   H44       1.0  0.06474985555937  0.35312374100478644  0.4401644388828246  1.0000
  H   H45       1.0  0.5677074051943835  0.7491108277670475  0.21878006702379346  1.0000
  H   H46       1.0  0.4322979498103621  0.25089044572705177  0.7187802032612964  1.0000
  H   H47       1.0  0.5292621709380185  0.44499566021973896  0.16849308532209056  1.0000
  H   H48       1.0  0.4707369923960059  0.555003495708739  0.6684926055026567  1.0000
  H   H49       1.0  0.9546322477871385  0.9319477508359951  0.12854886231196622  1.0000
  H   H50       1.0  0.04536849202603581  0.06804996509938381  0.628548539508273  1.0000
  H   H51       1.0  0.04135692455994909  0.9229664620284055  0.0710234129240845  1.0000
  H   H52       1.0  0.9586496537320314  0.07703438960344038  0.5710215697996546  1.0000
  H   H53       1.0  0.5819031224297008  0.5786126095118362  0.11305735293119312  1.0000
  H   H54       1.0  0.4180993967512165  0.42138638303942594  0.613057079469158  1.0000
  H   H55       1.0  0.2379495291077234  0.5902733506527865  0.2266611658001736  1.0000
  H   H56       1.0  0.7620554233917504  0.4097259603053017  0.7266611749434234  1.0000
  H   H57       1.0  0.2914436796037804  0.481420564650044  0.5289646035362169  1.0000
  H   H58       1.0  0.7085569945920652  0.5185788541587684  0.0289620598260711  1.0000
  H   H59       1.0  0.2364612953595753  0.7724671756470441  0.4171639639176804  1.0000
  H   H60       1.0  0.763534759392428  0.22753269211069943  0.9171639395919229  1.0000
  H   H61       1.0  0.3434209300911135  0.7134755857207367  0.4000517311397402  1.0000
  H   H62       1.0  0.6565788794056571  0.28652687432072793  0.9000497791175733  1.0000
  H   H63       1.0  0.7986756775130887  0.261389261112015  0.39507450613056255  1.0000
  H   H64       1.0  0.20133365330413264  0.7386118442644616  0.8950724128436391  1.0000
  H   H65       1.0  0.8875422764371095  0.1831007691569296  0.39321398569843075  1.0000
  H   H66       1.0  0.1124616897681889  0.8168957072467861  0.8932128298752176  1.0000
  H   H67       1.0  0.5573796574990268  0.19929095432402724  0.5236434074286933  1.0000
  H   H68       1.0  0.4426182866671128  0.8007077923071505  0.023644489268569702  1.0000
  H   H69       1.0  0.3484750065702258  0.37106476172565545  0.16686126621446112  1.0000
  H   H70       1.0  0.6515211362979727  0.6289324092648908  0.6668661796405928  1.0000
  H   H71       1.0  0.19867312490355  0.348501827601133  0.1609329762700682  1.0000
  H   H72       1.0  0.801322905588506  0.6514920173661166  0.6609403703416987  1.0000
  H   H73       1.0  0.1704505906944149  0.5323919963295083  0.7124772343019077  1.0000
  H   H74       1.0  0.8295520203632519  0.4676086022141418  0.21247466143868377  1.0000
  H   H75       1.0  0.039482511277384454  0.643972028668415  0.5378528944370445  1.0000
  H   H76       1.0  0.9605174606944189  0.35602741662865606  0.03785311521853171  1.0000
  H   H77       1.0  0.40843242801918217  0.5052912159121803  0.2727591431459473  1.0000
  H   H78       1.0  0.5915692079512526  0.494708893704221  0.7727570294215484  1.0000
  H   H79       1.0  0.3109745059063158  0.41456272329597244  0.29959123190926823  1.0000
  H   H80       1.0  0.6890273379755315  0.585436800296115  0.7995906466650028  1.0000
  H   H81       1.0  0.3873338179821247  0.9991266242248429  0.4218533106489987  1.0000
  H   H82       1.0  0.6126656430611277  0.0008765602360441  0.9218519612734895  1.0000
  H   H83       1.0  0.40975044108726866  0.41002919940183336  0.4855893466997543  1.0000
  H   H84       1.0  0.5902553730691551  0.5899728311557054  0.985587649340637  1.0000
  H   H85       1.0  0.30947979431127237  0.9400603171747759  0.5108440472049552  1.0000
  H   H86       1.0  0.6905196532853638  0.059941699834681096  0.0108437539147985  1.0000
  H   H87       1.0  0.5951945440652439  0.6485785098196216  0.4273181924873271  1.0000
  H   H88       1.0  0.404807449165915  0.3514213763202249  0.9273182629699124  1.0000
  H   H89       1.0  0.3426154631416836  0.3601451732557663  0.39743075645540676  1.0000
  H   H90       1.0  0.6573851085552961  0.6398539686128116  0.8974288809716598  1.0000
  H   H91       1.0  0.9457116218607171  0.7715401993668821  0.025242757953208204  1.0000
  H   H92       1.0  0.05429282506750611  0.22846118786183203  0.5252449003452214  1.0000
  H   H93       1.0  0.9213160969916319  0.8586577752269519  0.9837559882022759  1.0000
  H   H94       1.0  0.07868369639449212  0.1413402894715787  0.48375778552647125  1.0000
  H   H95       1.0  0.1560786678877832  0.46423762894601583  0.9047809533277873  1.0000
  H   H96       1.0  0.8439243199637475  0.5357608676700067  0.4047808435497587  1.0000
  H   H97       1.0  0.6172260921813545  0.8165346985841637  0.4318374875082114  1.0000
  H   H98       1.0  0.3827706838138951  0.18346719521343854  0.9318366520931679  1.0000
  H   H99       1.0  0.5265554862837264  0.763000427784263  0.5164159142310609  1.0000
  H   H100      1.0  0.4734432122023123  0.2370016063719973  0.0164157736490296  1.0000
  H   H101      1.0  0.5709866290148469  0.2033735230501818  0.23600977786421143  1.0000
  H   H102      1.0  0.4290171710957296  0.7966304496326939  0.7360100180314505  1.0000
  H   H103      1.0  0.9754372502403259  0.5061456538044808  0.7514556685799151  1.0000
  H   H104      1.0  0.024560601964509526  0.4938537400889871  0.2514545648149138  1.0000
  H   H105      1.0  0.9047294380864486  0.5947142134120967  0.761244721660397  1.0000
  H   H106      1.0  0.09527154991126002  0.40528718839651395  0.2612450243569954  1.0000
  H   H107      1.0  0.8946142225816089  0.5451105902354526  0.8629709217294632  1.0000
  H   H108      1.0  0.1053856908497366  0.4548877930357945  0.36297166732628483  1.0000
  H   H109      1.0  0.9775297125203793  0.46483171071931645  0.8494069071663619  1.0000
  H   H110      1.0  0.022472835378671684  0.5351679531378296  0.34940860945022223  1.0000
  H   H111      1.0  0.11338678420550247  0.8193234762101155  0.6452621522884385  1.0000
  H   H112      1.0  0.8866095386501769  0.18067230934905604  0.1452617023854685  1.0000
  H   H113      1.0  0.4285766098203823  0.11378236415859531  0.591315669199922  1.0000
  H   H114      1.0  0.5714223479356093  0.886223191683449  0.0913179768438539  1.0000
  H   H115      1.0  0.43909981533246173  0.3589702515938242  0.23874188108013075  1.0000
  H   H116      1.0  0.5609015112065023  0.6410304238205027  0.7387413034360223  1.0000
  H   H117      1.0  0.4609119441713432  0.3252331110696006  0.3045192844261564  1.0000
  H   H118      1.0  0.5390909684987334  0.6747670865143434  0.8045182443971941  1.0000
  H   H119      1.0  0.794275512201118  0.7102176124842785  0.23027640941500493  1.0000
  H   H120      1.0  0.20572617996381126  0.2897817144843983  0.730275037160439  1.0000
  H   H121      1.0  0.9399181487520141  0.5379761335777715  0.6071607085361066  1.0000
  H   H122      1.0  0.060081004301551416  0.4620261575404285  0.10716131255905031  1.0000
  H   H123      1.0  0.9742976858773816  0.737104979354406  0.7119565809032978  1.0000
  H   H124      1.0  0.025700749965231806  0.2628923156854057  0.21195783579683797  1.0000
  H   H125      1.0  0.4488719691791729  0.6530202653490348  0.1504079981607234  1.0000
  H   H126      1.0  0.5511304212937347  0.3469794954026995  0.6504089303629996  1.0000
  H   H127      1.0  0.20352705276410893  0.5696922983102368  0.41643445079115093  1.0000
  H   H128      1.0  0.7964731309378409  0.4303075600996846  0.9164329706569421  1.0000
  H   H129      1.0  0.10218994836934314  0.6319165239240262  0.43672963039168883  1.0000
  H   H130      1.0  0.8978113500111179  0.3680833901731118  0.9367296589581927  1.0000
  H   H131      1.0  0.3242952230111272  0.9187895286228664  0.21440065767220773  1.0000
  H   H132      1.0  0.675704731785835  0.08120710880653091  0.7144019276194342  1.0000
  H   H133      1.0  0.8681508978295865  0.0714159290037344  0.3188082704141237  1.0000
  H   H134      1.0  0.1318469070515107  0.9285829944096374  0.8188055969229495  1.0000
  H   H135      1.0  0.7242615115625172  0.0637429112395438  0.42199594742937313  1.0000
  H   H136      1.0  0.27574106301231893  0.9362562968808277  0.9219957328022375  1.0000
  H   H137      1.0  0.6343698755504549  0.14086830204720965  0.4216096630714149  1.0000
  H   H138      1.0  0.3656328648722465  0.8591315665634981  0.9216113184499124  1.0000
  H   H139      1.0  0.770395712943973  0.0066219044269430994  0.5403960057089492  1.0000
  H   H140      1.0  0.22960563666715222  0.9933795312911898  0.040391247786892806  1.0000
  H   H141      1.0  0.0064114601770413875  0.7476315236532045  0.25845774649257447  1.0000
  H   H142      1.0  0.9935897738104131  0.25236457479240937  0.7584604567149499  1.0000
  H   H143      1.0  0.3165407399880564  0.20464819936744758  0.06692793317518661  1.0000
  H   H144      1.0  0.6834594716161035  0.7953506662252535  0.5669329823051968  1.0000
  H   H145      1.0  0.2647831306595165  0.20627237818421654  0.134008682273695  1.0000
  H   H146      1.0  0.7352130904323673  0.7937299943680287  0.63401429507622  1.0000
  H   H147      1.0  0.07670867596756648  0.7760770847494597  0.3530791528931872  1.0000
  H   H148      1.0  0.9232886141140357  0.2239212750461661  0.853080433444852  1.0000
  H   H149      1.0  0.6300182093668383  0.9277534322846603  0.6073080707458374  1.0000
  H   H150      1.0  0.3699786620849679  0.0722528345277524  0.10730436436130471  1.0000
  H   H151      1.0  0.2575425358903303  0.5115288354019896  0.9899877893976454  1.0000
  H   H152      1.0  0.7424583446876695  0.4884699069550392  0.489986147582485  1.0000
  H   H153      1.0  0.3915875767415359  0.8757920981567935  0.32464272072427763  1.0000
  H   H154      1.0  0.6084106532064624  0.12420816484007699  0.8246437871682702  1.0000
  H   H155      1.0  0.4909501707604349  0.8066481521711708  0.32940966593430693  1.0000
  H   H156      1.0  0.509048640433484  0.19335410897316047  0.8294104330781382  1.0000
  H   H157      1.0  0.04515846115418748  0.6836189902856303  0.024793888930837206  1.0000
  H   H158      1.0  0.9548409836843633  0.3163790950927206  0.524794887911007  1.0000
  H   H159      1.0  0.17526786119643836  0.3776212560865061  0.5931447048691965  1.0000
  H   H160      1.0  0.8247317503192593  0.6223803325298789  0.0931421492005384  1.0000
  H   H161      1.0  0.5144301835243255  0.9696157589387794  0.256244615659952  1.0000
  H   H162      1.0  0.4855655953935525  0.0303849759661432  0.7562448739508272  1.0000
  H   H163      1.0  0.6122498648957164  0.8984888978614407  0.25971250629343257  1.0000
  H   H164      1.0  0.387749959610737  0.1015144872735547  0.7597112688642157  1.0000
  C   C1        1.0  0.24314946279199753  0.6389568776232791  0.49138497021323263  1.0000
  C   C2        1.0  0.756850124422023  0.36104319473732  0.9913849527317639  1.0000
  C   C3        1.0  0.6774061331887892  0.20470251577366128  0.30710529980620294  1.0000
  C   C4        1.0  0.3225981577602965  0.7952996723587873  0.8071040019159315  1.0000
  C   C5        1.0  0.6279367908658885  0.5030042380254899  0.23768668959892383  1.0000
  C   C6        1.0  0.3720666617311039  0.4969951068912337  0.7376854854584355  1.0000
  C   C7        1.0  0.19756783029285427  0.2926398903393163  0.9979478197927422  1.0000
  C   C8        1.0  0.8023994207481877  0.7073629051476897  0.4979568280083839  1.0000
  C   C9        1.0  0.5493315535955929  0.9378379399857905  0.3626675843001126  1.0000
  C   C10       1.0  0.4506655580071097  0.0621624329893677  0.8626673384603621  1.0000
  C   C11       1.0  0.7565418833476584  0.16039696885256657  0.4862075487020192  1.0000
  C   C12       1.0  0.24346028554888488  0.8396037461296686  0.986206811322653  1.0000
  C   C13       1.0  0.5049250052430025  0.5610645414159734  0.3658744466014028  1.0000
  C   C14       1.0  0.4950767762146027  0.438934508687474  0.8658740193344769  1.0000
  C   C15       1.0  0.7037978156301676  0.5795067242280538  0.2541218472242406  1.0000
  C   C16       1.0  0.2962042135235308  0.420492669880673  0.7541207880668069  1.0000
  C   C17       1.0  0.04491738115272169  0.5942552193651237  0.8162589944572858  1.0000
  C   C18       1.0  0.9550823860116965  0.405745017107364  0.316258407345039  1.0000
  C   C19       1.0  0.2955871192559343  0.804759556132744  0.16304739109932603  1.0000
  C   C20       1.0  0.7044124523845382  0.19523825985354645  0.6630467727293097  1.0000
  C   C21       1.0  0.1875145481360292  0.3176110165921103  0.05784319030917831  1.0000
  C   C22       1.0  0.8124795974271636  0.6823904813900795  0.5578486232305977  1.0000
  C   C23       1.0  0.17668703419252552  0.57297962801686  0.5290962198031155  1.0000
  C   C24       1.0  0.8233136418799136  0.4270197911658329  0.0290960221689147  1.0000
  C   C25       1.0  0.2540594338158969  0.6482049991681508  0.3066784701899152  1.0000
  C   C26       1.0  0.7459403406384767  0.3517925625703383  0.8066784163186967  1.0000
  C   C27       1.0  0.756327349699731  0.0762611856228546  0.2522516112146604  1.0000
  C   C28       1.0  0.2436716841889748  0.9237395322028376  0.7522496904142598  1.0000
  C   C29       1.0  0.4551842195952815  0.8419354422576928  0.22267625372852962  1.0000
  C   C30       1.0  0.5448133971917458  0.15806453217983565  0.7226755241429998  1.0000
  C   C31       1.0  0.8194587120832255  0.9389058027091935  0.05258795979690941  1.0000
  C   C32       1.0  0.18054677784218853  0.06109499847770649  0.5525888635561884  1.0000
  C   C33       1.0  0.22923888337916765  0.6462728645446417  0.6632675854651781  1.0000
  C   C34       1.0  0.7707612052473182  0.35372693678626627  0.16326600481227158  1.0000
  C   C35       1.0  0.5986056126415562  0.4236366664039222  0.2738493887156679  1.0000
  C   C36       1.0  0.401396038740728  0.5763634462830608  0.7738478932485577  1.0000
  C   C37       1.0  0.006813170011156387  0.6152113727694866  0.9488699872350567  1.0000
  C   C38       1.0  0.9931869582082771  0.3847865922435928  0.4488707177785898  1.0000
  C   C39       1.0  0.4897373039538806  0.7659962968092839  0.20415469587523918  1.0000
  C   C40       1.0  0.5102658460698419  0.23400361527176017  0.7041550747980453  1.0000
  C   C41       1.0  0.5848624635227111  0.5029013368983967  0.18553547472903634  1.0000
  C   C42       1.0  0.4151395955191006  0.497098524216625  0.6855360089183975  1.0000
  C   C43       1.0  0.971729241362816  0.8876697807178997  0.09655166933617923  1.0000
  C   C44       1.0  0.0282732158508168  0.11232982693488937  0.5965513018167101  1.0000
  C   C45       1.0  0.6160692605858883  0.5774405263024178  0.153450991983398  1.0000
  C   C46       1.0  0.38393348685747947  0.4225572568315954  0.6534510114434299  1.0000
  C   C47       1.0  0.20697803683763988  0.6322611741934805  0.25601897394463446  1.0000
  C   C48       1.0  0.7930240191346556  0.36773822525845656  0.7560190720964644  1.0000
  C   C49       1.0  0.21335117556125033  0.49641861915375773  0.5448062659002275  1.0000
  C   C50       1.0  0.7866464111108867  0.503580850095652  0.0448059685112128  1.0000
  C   C51       1.0  0.25156986543660764  0.7104008112337111  0.3997451489302293  1.0000
  C   C52       1.0  0.7484292545605628  0.28959900164475977  0.8997442887530556  1.0000
  C   C53       1.0  0.7998422930872098  0.19132750623297304  0.3874912899865208  1.0000
  C   C54       1.0  0.2001621061215532  0.8086709387830808  0.8874896082507179  1.0000
  C   C55       1.0  0.5771766120110868  0.1388829859662764  0.5404622092657547  1.0000
  C   C56       1.0  0.4228232541594609  0.8611191144378693  0.04046284067087671  1.0000
  C   C57       1.0  0.2782694063173992  0.3769427569061604  0.13984223771884532  1.0000
  C   C58       1.0  0.721727525157526  0.6230556597017838  0.6398473716206041  1.0000
  C   C59       1.0  0.20814596823036874  0.6998024732558787  0.34343520371214  1.0000
  C   C60       1.0  0.7918520134016163  0.30019585792491194  0.8434344828826497  1.0000
  C   C61       1.0  0.15566924962615758  0.5965194881635225  0.6994514480975057  1.0000
  C   C62       1.0  0.8443328347652896  0.4034797505544532  0.19944930905349176  1.0000
  C   C63       1.0  0.07415087196592654  0.5868929114986373  0.5502646373525623  1.0000
  C   C64       1.0  0.9258484475611155  0.41310657020447644  0.05026556174788511  1.0000
  C   C65       1.0  0.4004677521284705  0.44811645776172065  0.2999086290057846  1.0000
  C   C66       1.0  0.599532440526069  0.5518830696397641  0.7999073535465941  1.0000
  C   C67       1.0  0.4209234070059012  0.9468407461458452  0.4416852305934853  1.0000
  C   C68       1.0  0.5790736794510137  0.053161836954259876  0.9416841866608794  1.0000
  C   C69       1.0  0.43626699419693443  0.45348563408230547  0.45134497416292874  1.0000
  C   C70       1.0  0.5637363377236966  0.546514979823243  0.9513439851035345  1.0000
  C   C71       1.0  0.3767910293621526  0.9147294915144994  0.49084724317792455  1.0000
  C   C72       1.0  0.6232080649797922  0.08527190393983367  0.9908463453405434  1.0000
  C   C73       1.0  0.761164574394627  0.16698222514577307  0.3314108780378291  1.0000
  C   C74       1.0  0.23883723388710368  0.8330187126447511  0.83140852239643  1.0000
  C   C75       1.0  0.4343072784543906  0.47880310156283895  0.3558788769388742  1.0000
  C   C76       1.0  0.5656943617406753  0.5211959203961314  0.8558778887633596  1.0000
  C   C77       1.0  0.5377947697022946  0.5859905862159279  0.4179940028444237  1.0000
  C   C78       1.0  0.4622074343470076  0.4140105968215195  0.9179942676997115  1.0000
  C   C79       1.0  0.400052824531727  0.42453862209922727  0.400260888396403  1.0000
  C   C80       1.0  0.5999496141697093  0.5754611863979588  0.9002600197597986  1.0000
  C   C81       1.0  0.883941246417166  0.8127634814793223  0.0160127064772695  1.0000
  C   C82       1.0  0.11606272748486651  0.1872365566107135  0.5160150353027362  1.0000
  C   C83       1.0  0.1301653175540594  0.5155026703012878  0.9290667397267144  1.0000
  C   C84       1.0  0.8698371856479736  0.48449589615151467  0.4290658999028167  1.0000
  C   C85       1.0  0.5475528309091827  0.8458197596030242  0.4461974523279793  1.0000
  C   C86       1.0  0.4524433201731811  0.15418217608594628  0.9461972313742921  1.0000
  C   C87       1.0  0.06224673719263763  0.6280894942591715  0.7187115613779868  1.0000
  C   C88       1.0  0.9377534784181734  0.3719111262151387  0.21871051188480817  1.0000
  C   C89       1.0  0.4981588545236876  0.8159291043240059  0.4947898447962303  1.0000
  C   C90       1.0  0.5018392963853914  0.1840716421136932  0.9947885843753781  1.0000
  C   C91       1.0  0.7778752500435571  0.7500118381243295  0.9932893414558704  1.0000
  C   C92       1.0  0.22213013045996624  0.24998492005747858  0.4932912139480408  1.0000
  C   C93       1.0  0.6359318176140221  0.17596002493218066  0.25681513758729585  1.0000
  C   C94       1.0  0.36407044950888695  0.8240433476699989  0.7568139766866437  1.0000
  C   C95       1.0  0.9885776108250539  0.5771002317935015  0.7609920918739235  1.0000
  C   C96       1.0  0.011421375305367618  0.42289984906947337  0.2609921334682426  1.0000
  C   C97       1.0  0.9818997149733731  0.5345282890518205  0.8603377043243868  1.0000
  C   C98       1.0  0.01810133168156371  0.46547140849666135  0.3603377759256929  1.0000
  C   C99       1.0  0.12203915432036892  0.7555251490851305  0.6618333832612748  1.0000
  C   C100      1.0  0.8779582591873237  0.2444739910083342  0.16183251882619487  1.0000
  C   C101      1.0  0.7752950649255581  0.9800994760782086  0.10216577276319333  1.0000
  C   C102      1.0  0.22470812819179292  0.0198994843489118  0.6021660062160592  1.0000
  C   C103      1.0  0.5042932719912727  0.0915978658858094  0.5779751680020198  1.0000
  C   C104      1.0  0.495704155490067  0.908405669124832  0.0779760394671811  1.0000
  C   C105      1.0  0.4719144742762751  0.38358463133889126  0.27817094559704003  1.0000
  C   C106      1.0  0.52808723817882  0.6164154935159514  0.7781694580298792  1.0000
  C   C107      1.0  0.7329512227751849  0.6508943589816666  0.2193202874375046  1.0000
  C   C108      1.0  0.26705014326714144  0.3491042755642935  0.7193195218353454  1.0000
  C   C109      1.0  0.03938747040979962  0.5541818231285376  0.9136225833998426  1.0000
  C   C110      1.0  0.9606138153935789  0.4458160397239793  0.4136228232870991  1.0000
  C   C111      1.0  0.017183014081858537  0.5279360129957382  0.5877087217752361  1.0000
  C   C112      1.0  0.9828158354546801  0.47206291401715805  0.08770863670445553  1.0000
  C   C113      1.0  0.04610310889982833  0.7094242089770686  0.6988143789398152  1.0000
  C   C114      1.0  0.9538979673544503  0.290574367832896  0.19881416453753087  1.0000
  C   C115      1.0  0.4255414097199902  0.7129493484461447  0.1658648029127079  1.0000
  C   C116      1.0  0.5744618557453762  0.2870497927913077  0.6658649951004778  1.0000
  C   C117      1.0  0.19347221124629496  0.6325354095005266  0.4347914112514033  1.0000
  C   C118      1.0  0.8065280605876951  0.3674638390208145  0.934790350280416  1.0000
  C   C119      1.0  0.35488125417705163  0.8601085440686587  0.20172222534742454  1.0000
  C   C120      1.0  0.6451188640278643  0.13988938081254793  0.701722609852908  1.0000
  C   C121      1.0  0.004184931787577266  0.8058718309498472  0.12210095838719331  1.0000
  C   C122      1.0  0.995817058645251  0.1941278500997967  0.6221016605905092  1.0000
  C   C123      1.0  0.8017777609556164  0.10222936374687919  0.3022946270800233  1.0000
  C   C124      1.0  0.19822263670618404  0.8977708319468787  0.8022925573137415  1.0000
  C   C125      1.0  0.7224480253715697  0.13407651172459364  0.42841910880401474  1.0000
  C   C126      1.0  0.2775551538599074  0.8659246992074825  0.928419285746827  1.0000
  C   C127      1.0  0.694917232531793  0.0322854657317606  0.5500748876297196  1.0000
  C   C128      1.0  0.3050835973151251  0.9677166602746466  0.05007196497336251  1.0000
  C   C129      1.0  0.07519976885738097  0.7188239540780685  0.27429643162182776  1.0000
  C   C130      1.0  0.9248012036876362  0.2811735135702307  0.7742977289341226  1.0000
  C   C131      1.0  0.32261151994882203  0.24410727364223558  0.10396795124420072  1.0000
  C   C132      1.0  0.6773849331684831  0.7558943512940031  0.6039741746470996  1.0000
  C   C133      1.0  0.1165331472212614  0.7357654270076494  0.3261095635351907  1.0000
  C   C134      1.0  0.8834660739931054  0.2642321909019784  0.8261111273395232  1.0000
  C   C135      1.0  0.6181591777190647  0.9880117276855029  0.5871749565143888  1.0000
  C   C136      1.0  0.3818392076050543  0.0119918317651511  0.0871724766760593  1.0000
  C   C137      1.0  0.4448792046826497  0.25579842347664783  0.1249728899580589  1.0000
  C   C138      1.0  0.5551176879243584  0.74420061283503  0.6249743185171682  1.0000
  C   C139      1.0  0.6758535169130581  0.10998102341135049  0.5260526194711446  1.0000
  C   C140      1.0  0.3241449751675134  0.8900197147264775  0.0260517435974492  1.0000
  C   C141      1.0  0.18657311116839287  0.540446813470517  0.9769855444793976  1.0000
  C   C142      1.0  0.8134270717865419  0.45954990755262765  0.4769849218663965  1.0000
  C   C143      1.0  0.28326592814293156  0.4760864384414418  0.1309191351591465  1.0000
  C   C144      1.0  0.7167275657824065  0.5239119588696042  0.6309198262326137  1.0000
  C   C145      1.0  0.4823381469953035  0.8751060343916278  0.32095039995618185  1.0000
  C   C146      1.0  0.5176585463476115  0.12489488269901727  0.8209499782432916  1.0000
  C   C147      1.0  0.06676812077989067  0.636316336188244  0.9961534914927199  1.0000
  C   C148      1.0  0.9332315052129871  0.3636804402644671  0.49615402828131044  1.0000
  C   C149      1.0  0.14948040107589836  0.43863084026427407  0.5810502286638055  1.0000
  C   C150      1.0  0.8505185256443752  0.5613687295739354  0.0810485427947327  1.0000
  C   C151      1.0  0.5221792848744612  0.9008191907842047  0.26383143648138946  1.0000
  C   C152      1.0  0.47781825696912245  0.09918156256559028  0.7638316847111214  1.0000
  C   C153      1.0  0.5073664885481224  0.9115381281470719  0.41795513349451613  1.0000
  C   C154      1.0  0.49263157567094856  0.08846306207045271  0.9179538239741023  1.0000
  N   N1        1.0  0.8668679806451536  0.8612271445228429  0.0649544561437239  1.0000
  N   N2        1.0  0.13313585704536018  0.13877303282510664  0.5649556270230178  1.0000
  N   N3        1.0  0.29092814618820745  0.32813342778909055  0.0906589366993771  1.0000
  N   N4        1.0  0.7090681188479311  0.6718681596747516  0.5906656431306488  1.0000
  N   N5        1.0  0.6736104577625355  0.11155849826511849  0.2301776157235977  1.0000
  N   N6        1.0  0.3263914043034718  0.8884414900014335  0.7301767498929267  1.0000
  N   N7        1.0  0.4136614341260554  0.8492426611965271  0.5168255291946765  1.0000
  N   N8        1.0  0.586337441441934  0.15076003568829316  0.016825326494078804  1.0000
  N   N9        1.0  0.15634262313586333  0.6009102009863341  0.0100354158614806  1.0000
  N   N10       1.0  0.8436557852693838  0.39908784429400856  0.5100348793344694  1.0000
  N   N11       1.0  0.6883626324260349  0.6511038875298851  0.16975675922731168  1.0000
  N   N12       1.0  0.3116403454506553  0.3488939415145751  0.6697565349629642  1.0000
  N   N13       1.0  0.11819568399185704  0.6667285963873368  0.23994792662586661  1.0000
  N   N14       1.0  0.881809284992251  0.3332700904074881  0.7399490990757303  1.0000
  N   N15       1.0  0.5035954009309904  0.5332344251173851  0.460641141305878  1.0000
  N   N16       1.0  0.49640657795679743  0.4667668794560029  0.9606411246375117  1.0000
  N   N17       1.0  0.05404941997067433  0.4547760338933529  0.6032441195676768  1.0000
  N   N18       1.0  0.9459493351402842  0.5452249230454597  0.10324393339604403  1.0000
  N   N19       1.0  0.21283058033851188  0.724819559398341  0.6447968358454832  1.0000
  N   N20       1.0  0.787170731668816  0.27517952543347945  0.14479488999070614  1.0000
  N   N21       1.0  0.5241330335746923  0.017197087765197197  0.6011382128170908  1.0000
  N   N22       1.0  0.4758658916791845  0.9828078341536892  0.10113743492862431  1.0000
  N   N23       1.0  0.33047678738398634  0.7322827595669777  0.1451751598208588  1.0000
  N   N24       1.0  0.6695263283799379  0.2677136756582499  0.6451764493100072  1.0000
  O   O1        1.0  0.7316593596182059  0.9289960913802345  0.1400268735279653  1.0000
  O   O2        1.0  0.26834468253356647  0.07100098946565941  0.6400276560540519  1.0000
  O   O3        1.0  0.4652300788768002  0.19716796437661796  0.1568079000100369  1.0000
  O   O4        1.0  0.5347606408028085  0.8028311732386442  0.656810478284008  1.0000
  O   O5        1.0  0.07352502454091348  0.7694496578152014  0.09606234317354284  1.0000
  O   O6        1.0  0.9264744283178671  0.23054796810953346  0.5960624334570782  1.0000
  O   O7        1.0  0.790631817330791  0.7226061211164418  0.9465030600276026  1.0000
  O   O8        1.0  0.20937258800174158  0.27739249151573364  0.4465036962600238  1.0000
  O   O9        1.0  0.5179459347173605  0.32161514520930007  0.10740556801384574  1.0000
  O   O10       1.0  0.4820527365255671  0.6783884712064603  0.6074055503393438  1.0000
  O   O11       1.0  0.1100482411608752  0.29331095224341647  0.9707412961596947  1.0000
  O   O12       1.0  0.8899348398287189  0.7066904143113818  0.4707421686492738  1.0000
  O   O13       1.0  0.9577326653089244  0.7788653970254555  0.1662133458053745  1.0000
  O   O14       1.0  0.04227177551990742  0.22113506688497614  0.6662130452751568  1.0000
  O   O15       1.0  0.29135948236680786  0.27530356755602275  0.9822716178182774  1.0000
  O   O16       1.0  0.7086256172675078  0.7247017994734862  0.4822839386438247  1.0000
  O   O17       1.0  0.7810140387617535  0.0630236240387987  0.10032506176732883  1.0000
  O   O18       1.0  0.2189856456256863  0.9369746754621958  0.6003242674939244  1.0000
  O   O19       1.0  0.6904994235748629  0.729053149910605  0.022944674957926705  1.0000
  O   O20       1.0  0.30950541890607747  0.2709402875669155  0.5229456293373432  1.0000
  O   O21       1.0  0.2166307312860383  0.5109087260050059  0.15916810555997782  1.0000
  O   O22       1.0  0.7833593079643252  0.48908446262039007  0.6591714031914294  1.0000
  O   O23       1.0  0.35378976703469084  0.5164465287587915  0.0968542876171625  1.0000
  O   O24       1.0  0.6462127230531465  0.48355638907770526  0.5968515429745196  1.0000
