data_image0
_chemical_formula_structural       Cd4H40C24S8N48
_chemical_formula_sum              "Cd4 H40 C24 S8 N48"
_cell_length_a       9.54179186301032
_cell_length_b       9.475663338011538
_cell_length_c       15.729465090033278
_cell_angle_alpha    90.00017082935994
_cell_angle_beta     90.00016124838102
_cell_angle_gamma    89.99994723384748

_space_group_name_H-M_alt    "P 1"
_space_group_IT_number       1

loop_
  _space_group_symop_operation_xyz
  'x, y, z'

loop_
  _atom_site_type_symbol
  _atom_site_label
  _atom_site_symmetry_multiplicity
  _atom_site_fract_x
  _atom_site_fract_y
  _atom_site_fract_z
  _atom_site_occupancy
  Cd  Cd1       1.0  0.2860431860376664  0.5000004913926334  0.7500001308892835  1.0000
  Cd  Cd2       1.0  0.786042792870994  4.355111897999999e-07  0.749999469614032  1.0000
  Cd  Cd3       1.0  0.7139564028281598  0.5000001111034463  0.2500019267142548  1.0000
  Cd  Cd4       1.0  0.213957252923862  5.192470169e-07  0.2499991467415938  1.0000
  H   H1        1.0  0.14920133554179674  0.9993878097442845  0.5581503285950191  1.0000
  H   H2        1.0  0.6492019898374224  0.5006108872290228  0.5581496684193327  1.0000
  H   H3        1.0  0.8507969002058434  0.9993851917853005  0.0581510847825584  1.0000
  H   H4        1.0  0.3507977497461853  0.5006140099772693  0.05815084891142421  1.0000
  H   H5        1.0  0.8507993013432013  0.0006106820779905001  0.4418504575084584  1.0000
  H   H6        1.0  0.3507986470456075  0.4993886599267725  0.4418504819355676  1.0000
  H   H7        1.0  0.14920164063582322  0.0006154107081215001  0.9418497013210398  1.0000
  H   H8        1.0  0.6492018391151788  0.49938659251409245  0.9418493014435259  1.0000
  H   H9        1.0  0.990995537053273  0.05439721737242563  0.600398927779736  1.0000
  H   H10       1.0  0.4909959799304816  0.4456027790591221  0.6003988555807993  1.0000
  H   H11       1.0  0.0090037597742381  0.05439432531441211  0.1003995291311952  1.0000
  H   H12       1.0  0.5090040074048828  0.4456046996479018  0.1004003041362296  1.0000
  H   H13       1.0  0.009005099828271999  0.945602329781792  0.3996005868256276  1.0000
  H   H14       1.0  0.5090046569525485  0.5543967680966658  0.39960129477410083  1.0000
  H   H15       1.0  0.9909937330447606  0.9456062771779231  0.8996006212219854  1.0000
  H   H16       1.0  0.4909945334357816  0.5543948475088601  0.8995998462168942  1.0000
  H   H17       1.0  0.8642428707556463  0.7142587937256907  0.8388340946858579  1.0000
  H   H18       1.0  0.3642424117054688  0.7857421479086213  0.8388343710450457  1.0000
  H   H19       1.0  0.135759033571226  0.7142568393677993  0.3388349108100357  1.0000
  H   H20       1.0  0.6357604753143634  0.7857439508583115  0.3388347628749742  1.0000
  H   H21       1.0  0.1357567181057178  0.2857418087656782  0.1611660556690993  1.0000
  H   H22       1.0  0.6357571771559023  0.21425845458274043  0.16116577930991133  1.0000
  H   H23       1.0  0.864240555288653  0.28574376312199234  0.6611646037953919  1.0000
  H   H24       1.0  0.3642401615667056  0.21425665163099689  0.6611647517313415  1.0000
  H   H25       1.0  0.9665130181752773  0.5651863120961452  0.8303372549886205  1.0000
  H   H26       1.0  0.4665124228907658  0.9348144925797828  0.8303371634069026  1.0000
  H   H27       1.0  0.03349107871330401  0.5651833973162967  0.3303385335768142  1.0000
  H   H28       1.0  0.5334902881792517  0.9348163904435794  0.33033801770002924  1.0000
  H   H29       1.0  0.0334865706875718  0.4348142903967939  0.16966353111586593  1.0000
  H   H30       1.0  0.5334871659705983  0.06518610991157908  0.1696629869480546  1.0000
  H   H31       1.0  0.9665095581697258  0.4348161498394917  0.6696616167780789  1.0000
  H   H32       1.0  0.4665103487018101  0.06518421204572888  0.6696614969062935  1.0000
  H   H33       1.0  0.24609008087829665  0.7561120514135453  0.6111182997961464  1.0000
  H   H34       1.0  0.746090512852362  0.7438878730779025  0.6111187124160439  1.0000
  H   H35       1.0  0.7539107208163358  0.7561095233716983  0.11111889181768222  1.0000
  H   H36       1.0  0.2539123960533232  0.7438910857396621  0.1111184572439754  1.0000
  H   H37       1.0  0.7539095079825487  0.24388644040606527  0.3888812148073911  1.0000
  H   H38       1.0  0.25391012403066787  0.25611167407788565  0.3888814379388492  1.0000
  H   H39       1.0  0.2460888680460371  0.24389213445632413  0.8888818942877492  1.0000
  H   H40       1.0  0.7460882408292235  0.2561095167512164  0.8888816931118699  1.0000
  C   C1        1.0  0.0023542136955754  0.7167991451709244  0.7418084526247171  1.0000
  C   C2        1.0  0.502352513697005  0.783201652208689  0.7418076643702136  1.0000
  C   C3        1.0  0.9976493308351596  0.7167963909237614  0.24180818613528743  1.0000
  C   C4        1.0  0.49764992212563897  0.7832035833342704  0.2418084579356972  1.0000
  C   C5        1.0  0.9976464231889397  0.2832004019864343  0.2581923334797054  1.0000
  C   C6        1.0  0.4976470751613888  0.21679895027953214  0.2581912144856844  1.0000
  C   C7        1.0  0.0023502580262118006  0.2832042115676004  0.7581919642196696  1.0000
  C   C8        1.0  0.5023507147588832  0.21679596382309535  0.7581923281687253  1.0000
  C   C9        1.0  0.0691988185477825  0.8756869769948781  0.652096128891614  1.0000
  C   C10       1.0  0.5692014558355183  0.6243101484182175  0.6520937836962801  1.0000
  C   C11       1.0  0.9307999693623686  0.8756863954557378  0.1520957491386312  1.0000
  C   C12       1.0  0.43080070585639163  0.6243131969202552  0.1520950997432422  1.0000
  C   C13       1.0  0.930800770315031  0.1243104594912197  0.34790402146050076  1.0000
  C   C14       1.0  0.43080127708542193  0.37568939873187895  0.3479044594118079  1.0000
  C   C15       1.0  0.06919857148078282  0.12431420703926219  0.8479056727144964  1.0000
  C   C16       1.0  0.5691988830054556  0.37568635023602326  0.8479050506107697  1.0000
  C   C17       1.0  0.20205438101594814  0.3640444011550343  0.5576634542859723  1.0000
  C   C18       1.0  0.7020549116216586  0.13595565196165887  0.5576617657569188  1.0000
  C   C19       1.0  0.7979412890197964  0.36404394292279824  0.0576660281676808  1.0000
  C   C20       1.0  0.2979430628869509  0.13596093443145207  0.05766285669548671  1.0000
  C   C21       1.0  0.7979514959769816  0.6359562013381322  0.4423386033228952  1.0000
  C   C22       1.0  0.29794362921008855  0.8640438951856667  0.4423345700990424  1.0000
  C   C23       1.0  0.2020541077627769  0.635956659576806  0.9423366651818342  1.0000
  C   C24       1.0  0.7020565259689492  0.8640386127185309  0.9423347506604145  1.0000
  S   S1        1.0  0.0874290164795894  0.31865748420470663  0.4873265316736024  1.0000
  S   S2        1.0  0.587428457584508  0.1813433825805788  0.4873242889324629  1.0000
  S   S3        1.0  0.9125676553351384  0.31865517238107804  0.9873296119286865  1.0000
  S   S4        1.0  0.4125683397019771  0.1813457561238963  0.9873258862434613  1.0000
  S   S5        1.0  0.9125758124886972  0.6813441736208928  0.5126742544362699  1.0000
  S   S6        1.0  0.4125690352260564  0.8186561645672298  0.512672046922603  1.0000
  S   S7        1.0  0.08743088551344161  0.681343319448466  0.0126737171711255  1.0000
  S   S8        1.0  0.587431249154406  0.8186527356910036  0.012671721111488  1.0000
  N   N1        1.0  0.11780207211308642  0.6627331309983405  0.7059484140148129  1.0000
  N   N2        1.0  0.6178013707289551  0.837265271125098  0.7059483586381815  1.0000
  N   N3        1.0  0.88220135421507  0.6627304838981944  0.2059498591591478  1.0000
  N   N4        1.0  0.3822008480707169  0.8372694200625619  0.20594832083943967  1.0000
  N   N5        1.0  0.8821996127911265  0.33726641615696457  0.2940517363409754  1.0000
  N   N6        1.0  0.38219717011070037  0.16273322069501014  0.2940511559644605  1.0000
  N   N7        1.0  0.1177982346487809  0.3372711739313985  0.7940515626958131  1.0000
  N   N8        1.0  0.6177987407911303  0.16273012709371676  0.7940518295145652  1.0000
  N   N9        1.0  0.1580312315145918  0.7661030417746062  0.6483935004679822  1.0000
  N   N10       1.0  0.6580327206377349  0.7338992595561677  0.6483932593925631  1.0000
  N   N11       1.0  0.8419676392397832  0.7660972660047136  0.1483942416918538  1.0000
  N   N12       1.0  0.3419703716258979  0.7339023904967165  0.148393789175195  1.0000
  N   N13       1.0  0.8419673093241045  0.23389756071567552  0.3516060141365572  1.0000
  N   N14       1.0  0.34196791624332684  0.2661013429331405  0.3516062552137527  1.0000
  N   N15       1.0  0.1580298535811835  0.23390228115410855  0.8516065444099042  1.0000
  N   N16       1.0  0.658029217235466  0.2660982119946524  0.8516063611797622  1.0000
  N   N17       1.0  0.9675302359067149  0.8466280507063572  0.7095730713952478  1.0000
  N   N18       1.0  0.4675298978252016  0.6533721554537377  0.7095731099523732  1.0000
  N   N19       1.0  0.032473039306573505  0.8466251368709267  0.20957434825918142  1.0000
  N   N20       1.0  0.5324725059765285  0.6533751095986062  0.20957459827170064  1.0000
  N   N21       1.0  0.0324714489945279  0.1533714964457999  0.29042580746148167  1.0000
  N   N22       1.0  0.5324696910346775  0.34662844703605344  0.2904264046530542  1.0000
  N   N23       1.0  0.9675265495557926  0.15337652095709595  0.79042643784625  1.0000
  N   N24       1.0  0.4675270828868037  0.34662443755924244  0.7904261878318337  1.0000
  N   N25       1.0  0.08099413761052432  0.9966841951631412  0.6075670791598995  1.0000
  N   N26       1.0  0.5809947894397495  0.5033179756489119  0.6075689668424857  1.0000
  N   N27       1.0  0.9190053796158182  0.996679403236328  0.1075692224158757  1.0000
  N   N28       1.0  0.41900622668630666  0.5033199797612795  0.1075702629049147  1.0000
  N   N29       1.0  0.9190054512453827  0.0033153519868491994  0.3924305281960017  1.0000
  N   N30       1.0  0.41900375139995566  0.49668368217802356  0.392431183512528  1.0000
  N   N31       1.0  0.0809921132031803  0.0033211992560069014  0.8924309279373049  1.0000
  N   N32       1.0  0.5809923141558428  0.49667956739705243  0.8924305231977314  1.0000
  N   N33       1.0  0.9231573222194809  0.6499803229296787  0.8008671250731325  1.0000
  N   N34       1.0  0.4231568044257373  0.850020376156877  0.8008668811588606  1.0000
  N   N35       1.0  0.0768476074513487  0.6499763125777778  0.3008684771229255  1.0000
  N   N36       1.0  0.5768468944071118  0.850023289118795  0.300867808915477  1.0000
  N   N37       1.0  0.0768443626837723  0.3500213348958  0.19913302528455296  1.0000
  N   N38       1.0  0.5768438324587778  0.14997917100048852  0.1991339049455618  1.0000
  N   N39       1.0  0.9231530294311983  0.350024289913101  0.6991316732329197  1.0000
  N   N40       1.0  0.4231537424739501  0.1499773133705133  0.6991317056908386  1.0000
  N   N41       1.0  0.2873036738543959  0.39772339845892907  0.6094828650045728  1.0000
  N   N42       1.0  0.7873042352362914  0.1022778872901782  0.6094804802227713  1.0000
  N   N43       1.0  0.7126922076160441  0.39772196400775073  0.10948529443921731  1.0000
  N   N44       1.0  0.2126950602835436  0.1022821935436937  0.10948269821421522  1.0000
  N   N45       1.0  0.7127011551178696  0.6022793147064719  0.3905198283548259  1.0000
  N   N46       1.0  0.21269430559445374  0.8977206045204869  0.3905152198827083  1.0000
  N   N47       1.0  0.2873010931236806  0.60227969382791  0.8905173989094735  1.0000
  N   N48       1.0  0.7873055765950312  0.8977173536073763  0.8905155448920964  1.0000
