data_image0
_chemical_formula_structural       Nd4H32C28N12O32
_chemical_formula_sum              "Nd4 H32 C28 N12 O32"
_cell_length_a       10.538877165891703
_cell_length_b       10.538911778793269
_cell_length_c       13.021690069862615
_cell_angle_alpha    75.36798862916261
_cell_angle_beta     75.36808169711921
_cell_angle_gamma    58.938886601281226

_space_group_name_H-M_alt    "P 1"
_space_group_IT_number       1

loop_
  _space_group_symop_operation_xyz
  'x, y, z'

loop_
  _atom_site_type_symbol
  _atom_site_label
  _atom_site_symmetry_multiplicity
  _atom_site_fract_x
  _atom_site_fract_y
  _atom_site_fract_z
  _atom_site_occupancy
  Nd  Nd1       1.0  0.24279577420453793  0.26171269985454865  0.29163001910986  1.0000
  Nd  Nd2       1.0  0.7382843567928107  0.7572055642589676  0.20837154559160342  1.0000
  Nd  Nd3       1.0  0.757200378179391  0.7382852614122161  0.7083728299919371  1.0000
  Nd  Nd4       1.0  0.2617130928741105  0.24280016957140296  0.7916272361222595  1.0000
  H   H1        1.0  0.07878580513467176  0.5956971480874813  0.3184269853338221  1.0000
  H   H2        1.0  0.4043021422953785  0.9212140961955059  0.1815724181383018  1.0000
  H   H3        1.0  0.921214689870517  0.40430632669171734  0.6815701074504189  1.0000
  H   H4        1.0  0.5956925128328409  0.07878502001725711  0.8184289614421799  1.0000
  H   H5        1.0  0.24207976267658896  0.5133948259825941  0.34938865461788987  1.0000
  H   H6        1.0  0.4866055761236864  0.7579194806090115  0.15061319669322873  1.0000
  H   H7        1.0  0.7579167328877217  0.4866086793793229  0.6506130499280685  1.0000
  H   H8        1.0  0.5133904635671698  0.24208293170234907  0.8493880409470121  1.0000
  H   H9        1.0  0.43291325557685684  0.9349186524567944  0.4056516319433283  1.0000
  H   H10       1.0  0.06508460288710449  0.5670845738297104  0.0943489536494013  1.0000
  H   H11       1.0  0.5670838763231174  0.0650815626988361  0.5943459803402431  1.0000
  H   H12       1.0  0.9349163929154612  0.43291547516769685  0.9056563881318097  1.0000
  H   H13       1.0  0.2779124589187774  0.9952107556500069  0.48502517953518515  1.0000
  H   H14       1.0  0.004793279670977271  0.7220859938284933  0.01497416188489347  1.0000
  H   H15       1.0  0.7220886906484695  0.004787165269988204  0.5149720976966278  1.0000
  H   H16       1.0  0.995212275667846  0.27791065811867816  0.9850294178305813  1.0000
  H   H17       1.0  0.5610435419645157  0.2809573358838691  0.4088545487636565  1.0000
  H   H18       1.0  0.7190417819435453  0.43895681232192624  0.09114632089426777  1.0000
  H   H19       1.0  0.4389576597136936  0.7190383552770926  0.5911439198632991  1.0000
  H   H20       1.0  0.28096215497536287  0.5610454371423613  0.9088549491670432  1.0000
  H   H21       1.0  0.618341560269748  0.4210144305949868  0.3647038975939693  1.0000
  H   H22       1.0  0.5789856632808822  0.381656921261154  0.1352970682397441  1.0000
  H   H23       1.0  0.3816521140583263  0.5789847123287616  0.6352968994373427  1.0000
  H   H24       1.0  0.42101921926949604  0.6183475481981234  0.8647020503181791  1.0000
  H   H25       1.0  0.0026441130353732096  0.8454644245368642  0.41498829271290555  1.0000
  H   H26       1.0  0.15453595483977997  0.9973557930852266  0.08501212640425132  1.0000
  H   H27       1.0  0.9973538628423525  0.15453790893212022  0.5850164240117977  1.0000
  H   H28       1.0  0.8454622438558771  0.0026421994942609044  0.9149841745087739  1.0000
  H   H29       1.0  0.20390230026603717  0.9230732580544085  0.3432000308839775  1.0000
  H   H30       1.0  0.07692595415656465  0.7961008261889049  0.15680087387760722  1.0000
  H   H31       1.0  0.796099753861071  0.07692455989337792  0.6568047708554019  1.0000
  H   H32       1.0  0.9230670134984886  0.20390610035307338  0.8431985473109904  1.0000
  C   C1        1.0  0.9032687415278247  0.2536212839961181  0.339419487634423  1.0000
  C   C2        1.0  0.7463809031006151  0.09672979766457254  0.16058148720433957  1.0000
  C   C3        1.0  0.09672828743432405  0.7463811100777279  0.660581561226273  1.0000
  C   C4        1.0  0.2536191275599859  0.9032725755906063  0.8394159100028844  1.0000
  C   C5        1.0  0.788546364189912  0.21088446527492277  0.37921162990730284  1.0000
  C   C6        1.0  0.7891174188855955  0.21145387131785037  0.1207913101638241  1.0000
  C   C7        1.0  0.21145419268149387  0.7891145076188619  0.620791702310754  1.0000
  C   C8        1.0  0.21088761871356365  0.7885461894641708  0.8792055632121033  1.0000
  C   C9        1.0  0.9742052605478831  0.9632302062912359  0.392301999293558  1.0000
  C   C10       1.0  0.03677109294933701  0.025792993755501908  0.10769476022112198  1.0000
  C   C11       1.0  0.025793291083402906  0.03677105825702401  0.6076982051023234  1.0000
  C   C12       1.0  0.9632300481467693  0.9742049186910294  0.8923032883394059  1.0000
  C   C13       1.0  0.08542000257936881  0.005169215952996401  0.3534528035383886  1.0000
  C   C14       1.0  0.9948325823069838  0.9145797139825615  0.1465467122413031  1.0000
  C   C15       1.0  0.9145810525211998  0.994830892358685  0.646547138941848  1.0000
  C   C16       1.0  0.005164919470900021  0.08542379008877532  0.8534532608676952  1.0000
  C   C17       1.0  0.8715987989487244  0.41153178053400563  0.3016427952262574  1.0000
  C   C18       1.0  0.5884700597252462  0.1283999587492843  0.19835648945737458  1.0000
  C   C19       1.0  0.12839631076884228  0.5884707093291582  0.6983532318925539  1.0000
  C   C20       1.0  0.4115288350864147  0.8716068498941286  0.8016425703826684  1.0000
  C   C21       1.0  0.32569222237146533  0.26113652744662375  0.5230499052742557  1.0000
  C   C22       1.0  0.7388660252196856  0.6743044149251743  0.9769509160040285  1.0000
  C   C23       1.0  0.6743115798109116  0.7388512588863846  0.4769572749234356  1.0000
  C   C24       1.0  0.2611457055071114  0.32568780365433264  0.023041572565091394  1.0000
  C   C25       1.0  0.15996639030693421  0.2957394608783446  0.5512865499908981  1.0000
  C   C26       1.0  0.7042675429890934  0.8400304065379416  0.9487147217907006  1.0000
  C   C27       1.0  0.8400298362314161  0.7042751848052758  0.4487099689080978  1.0000
  C   C28       1.0  0.29572663085225065  0.1599675912038592  0.05128850487018611  1.0000
  N   N1        1.0  0.048054977207442624  0.15029745753321322  0.33016058432804835  1.0000
  N   N2        1.0  0.8497043074834922  0.9519445282565471  0.1698411107157795  1.0000
  N   N3        1.0  0.9519430325548585  0.8497049098296472  0.6698410470818102  1.0000
  N   N4        1.0  0.15029323665010713  0.048059018182137  0.8301550057496667  1.0000
  N   N5        1.0  0.8289077732129259  0.06280715688807698  0.40742005814401944  1.0000
  N   N6        1.0  0.9371933661163538  0.17109060110669114  0.09258215027563212  1.0000
  N   N7        1.0  0.17109031535787275  0.9371907255363111  0.592586270042247  1.0000
  N   N8        1.0  0.06281123255164547  0.8289083835717151  0.9074127135371554  1.0000
  N   N9        1.0  0.642954275577054  0.3118898392917941  0.39093722359770317  1.0000
  N   N10       1.0  0.6881109150856161  0.3570452156392109  0.109062775796211  1.0000
  N   N11       1.0  0.35704591988758233  0.6881058531597474  0.6090629764662124  1.0000
  N   N12       1.0  0.31189555918714973  0.642955911482382  0.8909351470346107  1.0000
  O   O1        1.0  0.18723740213670242  0.5272967609714314  0.2938667845862851  1.0000
  O   O2        1.0  0.47270326190197665  0.8127624882145953  0.2061326456307313  1.0000
  O   O3        1.0  0.8127636529638664  0.47270334734025726  0.7061331578939444  1.0000
  O   O4        1.0  0.5272968039272996  0.18723763833460794  0.793867485629043  1.0000
  O   O5        1.0  0.3326383017987737  0.02409506354667461  0.4164542756752779  1.0000
  O   O6        1.0  0.9759083458959952  0.6673613474559588  0.08354515555196682  1.0000
  O   O7        1.0  0.6673623228417753  0.9759039771348624  0.5835428859131041  1.0000
  O   O8        1.0  0.024095170318140943  0.33263756225180424  0.91645838165617  1.0000
  O   O9        1.0  0.9827752174670366  0.4355272700186319  0.2646705346863172  1.0000
  O   O10       1.0  0.56447104987366  0.017224237142450197  0.2353309173076852  1.0000
  O   O11       1.0  0.0172255368088657  0.5644673365652507  0.735326695706199  1.0000
  O   O12       1.0  0.43552383702597547  0.9827825936102174  0.7646735256227968  1.0000
  O   O13       1.0  0.7365117119570854  0.516857436750719  0.304033930198365  1.0000
  O   O14       1.0  0.4831423619841075  0.26348816342741804  0.19596453901407068  1.0000
  O   O15       1.0  0.263485875816336  0.48314387145546095  0.6959641489909314  1.0000
  O   O16       1.0  0.516858476201463  0.7365208554469336  0.8040314092143319  1.0000
  O   O17       1.0  0.3783899248792368  0.27645540729107415  0.42447582080392  1.0000
  O   O18       1.0  0.7235451507200638  0.6216079404198427  0.07552354844421665  1.0000
  O   O19       1.0  0.6216108145402401  0.7235225741902339  0.5755223404904226  1.0000
  O   O20       1.0  0.27647668036173906  0.3783895043041454  0.9244782490330081  1.0000
  O   O21       1.0  0.3962142941070894  0.2201544957234418  0.6009659622046539  1.0000
  O   O22       1.0  0.7798451251170562  0.6037843761564474  0.8990320669834586  1.0000
  O   O23       1.0  0.603787948953375  0.7798389474409718  0.399033509037892  1.0000
  O   O24       1.0  0.22015660148785096  0.39621019524297196  0.1009665172869347  1.0000
  O   O25       1.0  0.09268998409942948  0.3166555951020555  0.476157454936029  1.0000
  O   O26       1.0  0.6833432954344758  0.907309918772292  0.0238461427939994  1.0000
  O   O27       1.0  0.9072957141920883  0.6833481956072376  0.5238386128978121  1.0000
  O   O28       1.0  0.31665039503412373  0.09270356865417281  0.9761595427028877  1.0000
  O   O29       1.0  0.10506388507324974  0.2985202427194338  0.6503126584062426  1.0000
  O   O30       1.0  0.7014764186381938  0.8949352884677281  0.8496908755740266  1.0000
  O   O31       1.0  0.8949472601447398  0.7014753169071781  0.3496792944530113  1.0000
  O   O32       1.0  0.2985223427210428  0.10505477644454694  0.15031991376979187  1.0000
