data_image0
_chemical_formula_structural       Cd2H28C36N8O12
_chemical_formula_sum              "Cd2 H28 C36 N8 O12"
_cell_length_a       7.801155348135022
_cell_length_b       8.467692176693038
_cell_length_c       13.698551485094756
_cell_angle_alpha    94.03496779408059
_cell_angle_beta     95.50468010505159
_cell_angle_gamma    98.82627014585674

_space_group_name_H-M_alt    "P 1"
_space_group_IT_number       1

loop_
  _space_group_symop_operation_xyz
  'x, y, z'

loop_
  _atom_site_type_symbol
  _atom_site_label
  _atom_site_symmetry_multiplicity
  _atom_site_fract_x
  _atom_site_fract_y
  _atom_site_fract_z
  _atom_site_occupancy
  Cd  Cd1       1.0  0.831456713357653  0.1145434684727746  0.23488211616663787  1.0000
  Cd  Cd2       1.0  0.16854711862342955  0.8854483001925149  0.7651212329658392  1.0000
  H   H1        1.0  0.3019633737381256  0.17223682024986434  0.2030262916421819  1.0000
  H   H2        1.0  0.6980314104817111  0.8277547206214494  0.7969766956428472  1.0000
  H   H3        1.0  0.41208724791728474  0.37373335009544933  0.2152790255386279  1.0000
  H   H4        1.0  0.5879058078362789  0.6262662293886551  0.7847175601391498  1.0000
  H   H5        1.0  0.8919646949635052  0.0618039899752532  0.4881200837552555  1.0000
  H   H6        1.0  0.1080401130226463  0.9382033297845639  0.5118837699101206  1.0000
  H   H7        1.0  0.5904412222931016  0.172763116196009  0.7261547972777508  1.0000
  H   H8        1.0  0.40956023383233026  0.827240350594593  0.2738444261574386  1.0000
  H   H9        1.0  0.37255050105603965  0.27221687541364764  0.6108974512009199  1.0000
  H   H10       1.0  0.6274474851593868  0.7277794616196046  0.38910434445353564  1.0000
  H   H11       1.0  0.8006806721733285  0.44146818851160663  0.3279065610170946  1.0000
  H   H12       1.0  0.19932089551264204  0.5585269515756651  0.6720931476855229  1.0000
  H   H13       1.0  0.006800580999389192  0.5267446213902502  0.39002590555931255  1.0000
  H   H14       1.0  0.9931980258415865  0.47326220847067185  0.609979288208983  1.0000
  H   H15       1.0  0.06947961479659878  0.11503158600418571  0.04795341896124229  1.0000
  H   H16       1.0  0.9305240650778827  0.8849684774208627  0.9520487118228901  1.0000
  H   H17       1.0  0.3654641033330535  0.4902487824545787  0.9062124679589516  1.0000
  H   H18       1.0  0.6345438437059698  0.5097538080225732  0.0937906365567187  1.0000
  H   H19       1.0  0.3009671090796857  0.7008866086228169  0.027204116869931703  1.0000
  H   H20       1.0  0.6990266346093178  0.29910934329233635  0.9727909259787921  1.0000
  H   H21       1.0  0.2903066726367172  0.2763386997216628  0.3998099297308145  1.0000
  H   H22       1.0  0.7096926589811334  0.7236587727641538  0.600189761159953  1.0000
  H   H23       1.0  0.1107967745131688  0.7306815478098017  0.20038145548175382  1.0000
  H   H24       1.0  0.8892132464097742  0.2693185824945274  0.7996187345220919  1.0000
  H   H25       1.0  0.4957212685322929  0.11534599483551489  0.10952495385485861  1.0000
  H   H26       1.0  0.5042763910732688  0.8846574382162374  0.8904755806646846  1.0000
  H   H27       1.0  0.801481224148759  0.7120532248411635  0.2716269142792882  1.0000
  H   H28       1.0  0.19852837675315982  0.2879528666275278  0.7283734379649118  1.0000
  C   C1        1.0  0.4306327351172359  0.24792531533289972  0.22044240595312203  1.0000
  C   C2        1.0  0.5693590563260003  0.7520731925857832  0.7795577506501772  1.0000
  C   C3        1.0  0.5012602783892391  0.22698698956288155  0.3233161259193906  1.0000
  C   C4        1.0  0.4987456621914887  0.7730128833976125  0.6766802436023909  1.0000
  C   C5        1.0  0.5163388590172246  0.22680893905578614  0.4863143774173864  1.0000
  C   C6        1.0  0.4836633255896885  0.7731909321094294  0.5136840362696731  1.0000
  C   C7        1.0  0.6624892230018206  0.1697495174318391  0.451192060165873  1.0000
  C   C8        1.0  0.3375093823759983  0.830244199112322  0.5488038369606016  1.0000
  C   C9        1.0  0.7823191285015271  0.11028994663314513  0.5150815412313889  1.0000
  C   C10       1.0  0.21768877799144093  0.8897126119004357  0.48492083020335747  1.0000
  C   C11       1.0  0.7537388259167346  0.11166609396266132  0.6144407794323355  1.0000
  C   C12       1.0  0.24626543033264886  0.8883386685967737  0.3855593232553217  1.0000
  C   C13       1.0  0.6106147139949627  0.17513394797106233  0.648656174853393  1.0000
  C   C14       1.0  0.3893898383958287  0.8248721091603458  0.35134616986358935  1.0000
  C   C15       1.0  0.4885462901462745  0.23259996374087422  0.5853817653896272  1.0000
  C   C16       1.0  0.5114583861241186  0.7673988376541915  0.41461817505767573  1.0000
  C   C17       1.0  0.8710350908276254  0.0377230549646583  0.6848148406545889  1.0000
  C   C18       1.0  0.12896596342616817  0.9622769114328307  0.3151864536636424  1.0000
  C   C19       1.0  0.9144621363286376  0.5355532133163268  0.324998051136184  1.0000
  C   C20       1.0  0.08553806780552262  0.46445025287584946  0.6750018536874336  1.0000
  C   C21       1.0  0.996761485234771  0.49523159963253977  0.23384344396901474  1.0000
  C   C22       1.0  0.0032352590669902375  0.5047731593363239  0.7661607470491845  1.0000
  C   C23       1.0  0.15067815465072698  0.5235357484226598  0.10671178388528801  1.0000
  C   C24       1.0  0.8493197851883141  0.4764710891914988  0.8932844805084629  1.0000
  C   C25       1.0  0.0840538808819815  0.35922550468136905  0.11218582560375981  1.0000
  C   C26       1.0  0.9159463884363392  0.6407801353883686  0.8878090332265742  1.0000
  C   C27       1.0  0.12001984154358068  0.2414726336866977  0.04443862899496049  1.0000
  C   C28       1.0  0.8799732424369751  0.758525906773983  0.9555615793008272  1.0000
  C   C29       1.0  0.22351388284617718  0.2916022882561435  0.970874199227339  1.0000
  C   C30       1.0  0.7764828636970337  0.7083951191456849  0.029125388278444603  1.0000
  C   C31       1.0  0.28684033614062804  0.45616111039507257  0.9650707383774203  1.0000
  C   C32       1.0  0.7131573539333829  0.5438339320662067  0.0349288152477172  1.0000
  C   C33       1.0  0.25238176570970694  0.574533135942666  0.0326355271896972  1.0000
  C   C34       1.0  0.7476130532258551  0.4254689693966896  0.9673633949964539  1.0000
  C   C35       1.0  0.2580741723370465  0.1674574569347557  0.8955946114326707  1.0000
  C   C36       1.0  0.7419236516941723  0.8325387523242256  0.10440425189812431  1.0000
  N   N1        1.0  0.4184748355255082  0.26354575962815124  0.4033545629629601  1.0000
  N   N2        1.0  0.5815270283018777  0.7364506750310937  0.5966473877689751  1.0000
  N   N3        1.0  0.6492354110811009  0.17403072872242834  0.3488553119639377  1.0000
  N   N4        1.0  0.3507587503874702  0.8259666135954049  0.6511441721568616  1.0000
  N   N5        1.0  0.9877491639385951  0.3460003689097988  0.1924226344951094  1.0000
  N   N6        1.0  0.012248538454471762  0.6539957445184829  0.807574029592928  1.0000
  N   N7        1.0  0.09302665465649082  0.6049777608252287  0.1848464469873221  1.0000
  N   N8        1.0  0.9069717739766149  0.3950221085447084  0.8151540108650082  1.0000
  O   O1        1.0  0.5486932522903771  0.21040519964049767  0.15241043813853142  1.0000
  O   O2        1.0  0.4512973017221001  0.789587027079712  0.8475829068036731  1.0000
  O   O3        1.0  0.9563742458811009  0.9333601513744939  0.6482403935221441  1.0000
  O   O4        1.0  0.043627524535125396  0.06663514843061341  0.35176298058505745  1.0000
  O   O5        1.0  0.8775859777687957  0.07461179254232772  0.7768069464622086  1.0000
  O   O6        1.0  0.12241537262641344  0.9253894684271418  0.2231965898853403  1.0000
  O   O7        1.0  0.8720428618820294  0.6912564981603283  0.3331928855333075  1.0000
  O   O8        1.0  0.1279502220985336  0.30874204230035224  0.6668073227624802  1.0000
  O   O9        1.0  0.23013888512983985  0.02036086252179811  0.9163086526945036  1.0000
  O   O10       1.0  0.7698619540746422  0.9796378731908536  0.08369186575623641  1.0000
  O   O11       1.0  0.30773958654383904  0.20658906360755222  0.8134780906340636  1.0000
  O   O12       1.0  0.6922637037780747  0.7934085703913852  0.18652322149601017  1.0000
