data_image0
_chemical_formula_structural       Hg4H44C40Br4N40
_chemical_formula_sum              "Hg4 H44 C40 Br4 N40"
_cell_length_a       9.998030944304281
_cell_length_b       12.099496579060862
_cell_length_c       13.007312564001555
_cell_angle_alpha    89.99995062079645
_cell_angle_beta     90.00003602925325
_cell_angle_gamma    101.67767011929904

_space_group_name_H-M_alt    "P 1"
_space_group_IT_number       1

loop_
  _space_group_symop_operation_xyz
  'x, y, z'

loop_
  _atom_site_type_symbol
  _atom_site_label
  _atom_site_symmetry_multiplicity
  _atom_site_fract_x
  _atom_site_fract_y
  _atom_site_fract_z
  _atom_site_occupancy
  Hg  Hg1       1.0  0.3526052206494654  0.597724709591816  0.9135598102608282  1.0000
  Hg  Hg2       1.0  0.14739465337272867  0.9022749593681708  0.4135593526766143  1.0000
  Hg  Hg3       1.0  0.6473942808665214  0.40227381524596234  0.0864398345548167  1.0000
  Hg  Hg4       1.0  0.8526052582923641  0.09772525336514089  0.5864402921384623  1.0000
  H   H1        1.0  0.04484073476963602  0.6325786516136915  0.6695984895295338  1.0000
  H   H2        1.0  0.4551601952200884  0.8674220638526151  0.16959897791738138  1.0000
  H   H3        1.0  0.9551601774319567  0.3674215625114457  0.33040115528578434  1.0000
  H   H4        1.0  0.5448405119067274  0.132577306325075  0.8303998980999053  1.0000
  H   H5        1.0  0.16060517979472883  0.6514900452687229  0.7727597121103212  1.0000
  H   H6        1.0  0.33939481293622725  0.8485105837410958  0.2727586219101426  1.0000
  H   H7        1.0  0.8393959374818963  0.3485110128035487  0.22724147030133676  1.0000
  H   H8        1.0  0.6606038931173258  0.15148878365325663  0.7272394853083453  1.0000
  H   H9        1.0  0.9280621902484683  0.519793925656657  0.5777504140079514  1.0000
  H   H10       1.0  0.5719381235878629  0.9802075862678308  0.0777506261985508  1.0000
  H   H11       1.0  0.07193772141685173  0.48020628707633517  0.42224999960544096  1.0000
  H   H12       1.0  0.42806278861373676  0.019792627857306403  0.9222490186167602  1.0000
  H   H13       1.0  0.8983714483515328  0.3758491272745133  0.5403691839268062  1.0000
  H   H14       1.0  0.601628472697122  0.12415166722132648  0.04036969574786299  1.0000
  H   H15       1.0  0.10162825823900337  0.6241502415110319  0.45963046088855447  1.0000
  H   H16       1.0  0.39837164404251973  0.8758493894597591  0.9596299490669224  1.0000
  H   H17       1.0  0.6778282141567188  0.43903383480532193  0.5600818627720868  1.0000
  H   H18       1.0  0.8221705133725125  0.060966098096059795  0.060082532163896495  1.0000
  H   H19       1.0  0.3221709020464091  0.5609672204839384  0.4399177820424498  1.0000
  H   H20       1.0  0.17782939829257324  0.9390341146372592  0.939917112651173  1.0000
  H   H21       1.0  0.7160605333202597  0.47487175312403446  0.6913103487080221  1.0000
  H   H22       1.0  0.7839392752399307  0.025128072959979895  0.19131102826839447  1.0000
  H   H23       1.0  0.2839393783450675  0.5251284596089646  0.30869006490536316  1.0000
  H   H24       1.0  0.21606163696166902  0.9748721411651571  0.8086886165469237  1.0000
  H   H25       1.0  0.6908580773752889  0.3324762583379552  0.650680177409555  1.0000
  H   H26       1.0  0.8091427067991788  0.1675236026409905  0.15068075512098028  1.0000
  H   H27       1.0  0.3091428348263108  0.6675239557871747  0.34931946740575626  1.0000
  H   H28       1.0  0.19085720486590677  0.8324766100923213  0.8493188896940892  1.0000
  H   H29       1.0  0.9588848949308186  0.7410095795185895  0.8082837336254441  1.0000
  H   H30       1.0  0.5411155603125268  0.7589917423115797  0.30828333928329943  1.0000
  H   H31       1.0  0.041115016734274  0.25899063321472937  0.1917159111896254  1.0000
  H   H32       1.0  0.4588843513523244  0.2410084704220523  0.6917155367334614  1.0000
  H   H33       1.0  0.9697940351555374  0.6324461980457058  0.8992549157355398  1.0000
  H   H34       1.0  0.5302062708144177  0.8675542048228378  0.39925519793276715  1.0000
  H   H35       1.0  0.03020587650978971  0.3675540146872933  0.1007454978778455  1.0000
  H   H36       1.0  0.4697924352396115  0.1324451625708818  0.6007444468823522  1.0000
  H   H37       1.0  0.8471132152153871  0.6067843187049604  0.7988613681205621  1.0000
  H   H38       1.0  0.6528880297105317  0.8932161683385188  0.2988616892555953  1.0000
  H   H39       1.0  0.1528876969862125  0.3932158954201769  0.20113827669475629  1.0000
  H   H40       1.0  0.3471118819547954  0.10678404439448029  0.7011387243577899  1.0000
  H   H41       1.0  0.11855015579175192  0.14625563193514776  0.9910747933892237  1.0000
  H   H42       1.0  0.3814488055314412  0.35374491135846137  0.49107371939052047  1.0000
  H   H43       1.0  0.8814487553373027  0.8537445794057137  0.008926389022235496  1.0000
  H   H44       1.0  0.6185521066701584  0.6462553027666758  0.5089259254247905  1.0000
  C   C1        1.0  0.10713855424820203  0.3373091214434538  0.8534144563618326  1.0000
  C   C2        1.0  0.3928611180980113  0.16269069280599516  0.35341584734332077  1.0000
  C   C3        1.0  0.892860356880611  0.6626910898977201  0.1465859572513111  1.0000
  C   C4        1.0  0.6071407946405641  0.8373095227103275  0.6465853350688702  1.0000
  C   C5        1.0  0.2028735779156605  0.31220072589621845  0.9314106164272783  1.0000
  C   C6        1.0  0.29712414119923375  0.18779902125569234  0.43141040327019187  1.0000
  C   C7        1.0  0.7971243326768873  0.6877994840528175  0.06859056598394628  1.0000
  C   C8        1.0  0.7028773613902431  0.8121995063650972  0.5685907791425746  1.0000
  C   C9        1.0  0.04724153196634971  0.4838678790216449  0.7593672850904907  1.0000
  C   C10       1.0  0.4527582877664856  0.0161328567258181  0.2593680537273073  1.0000
  C   C11       1.0  0.9527595853098063  0.5161331790512662  0.24063235972452898  1.0000
  C   C12       1.0  0.5472422142860084  0.9838656695037783  0.7406315910885795  1.0000
  C   C13       1.0  0.0145069138333298  0.257998344437361  0.7948028196228873  1.0000
  C   C14       1.0  0.48549172202401547  0.2420015167512446  0.29480265439502756  1.0000
  C   C15       1.0  0.9854912018337671  0.7420027094594418  0.20519836278803888  1.0000
  C   C16       1.0  0.5145099856400108  0.7579978548173116  0.7051985280174478  1.0000
  C   C17       1.0  0.9779206988451605  0.1362667230314756  0.8119234716971062  1.0000
  C   C18       1.0  0.5220801842349658  0.36373300498798494  0.3119252906108585  1.0000
  C   C19       1.0  0.022078007208868645  0.8637326443622438  0.1880761731180129  1.0000
  C   C20       1.0  0.4779197274303542  0.6362672077450141  0.6880751230025337  1.0000
  C   C21       1.0  0.057092694459555636  0.6087647274217289  0.7498748846400145  1.0000
  C   C22       1.0  0.4429072842345152  0.891235920457959  0.24987534800892763  1.0000
  C   C23       1.0  0.9429082177420441  0.3912354867034082  0.25012476017529645  1.0000
  C   C24       1.0  0.5570914218192798  0.10876344693608077  0.7501235280078687  1.0000
  C   C25       1.0  0.9645514608411362  0.4036200044481646  0.6941288521292037  1.0000
  C   C26       1.0  0.5354465534491483  0.09638066047625667  0.19412858530391466  1.0000
  C   C27       1.0  0.03544644975116999  0.596380205501184  0.3058715614836984  1.0000
  C   C28       1.0  0.4645533582161789  0.9036195522567425  0.8058718283094706  1.0000
  C   C29       1.0  0.8863844191843597  0.4335051944297561  0.6035774491052946  1.0000
  C   C30       1.0  0.6136155406357275  0.0664955479454008  0.10357801292715857  1.0000
  C   C31       1.0  0.11361428686942794  0.5664941729642835  0.3964214269115017  1.0000
  C   C32       1.0  0.3863843710295924  0.9335046647875913  0.8964224006862265  1.0000
  C   C33       1.0  0.7338407306819976  0.4196813336575077  0.6278660628635249  1.0000
  C   C34       1.0  0.7661600394985014  0.0803185461336255  0.1278666895890836  1.0000
  C   C35       1.0  0.2661581804465812  0.580318877683986  0.37213358195130297  1.0000
  C   C36       1.0  0.23383987216635663  0.9196816666000062  0.8721321864276773  1.0000
  C   C37       1.0  0.9516406827264136  0.6498915417485306  0.8181289996053775  1.0000
  C   C38       1.0  0.5483595734815908  0.8501089280153025  0.3181293045814256  1.0000
  C   C39       1.0  0.04836022947518608  0.35010867237660637  0.18187064520993348  1.0000
  C   C40       1.0  0.4516391325724314  0.1498904393784173  0.6818703402336935  1.0000
  Br  Br1       1.0  0.2630311068826003  0.6658426238515104  0.07299642842349388  1.0000
  Br  Br2       1.0  0.23696755770458117  0.8341573245402074  0.5729966405254172  1.0000
  Br  Br3       1.0  0.7369688047827269  0.3341575888814887  0.9270039851898912  1.0000
  Br  Br4       1.0  0.7630323539607461  0.16584288819278467  0.4270037730879748  1.0000
  N   N1        1.0  0.9857345750876902  0.0807864994480525  0.9000546908137749  1.0000
  N   N2        1.0  0.5142645660526596  0.4192139970640838  0.4000556926945506  1.0000
  N   N3        1.0  0.014264541115672043  0.9192145558408881  0.0999457227990774  1.0000
  N   N4        1.0  0.48573634614893996  0.5807862170610533  0.5999439521207677  1.0000
  N   N5        1.0  0.37850728372556836  0.3324984315856128  0.030564304466352592  1.0000
  N   N6        1.0  0.12149198551195892  0.16750080493458344  0.5305638252752373  1.0000
  N   N7        1.0  0.6214926279395173  0.6675017811476991  0.9694353403487168  1.0000
  N   N8        1.0  0.8785087216150841  0.8324985652427795  0.46943581954036506  1.0000
  N   N9        1.0  0.8879544429464235  0.9598548354961949  0.7845723510949723  1.0000
  N   N10       1.0  0.6120463830657101  0.5401439754341552  0.28457293526479777  1.0000
  N   N11       1.0  0.11204626418062699  0.0401445346811684  0.21542729372063008  1.0000
  N   N12       1.0  0.3879523229883119  0.45985539195956454  0.7154267095503215  1.0000
  N   N13       1.0  0.9288124189293185  0.9718815158899331  0.8807182736330573  1.0000
  N   N14       1.0  0.5711878756705102  0.528118902263543  0.38071884762214125  1.0000
  N   N15       1.0  0.0711874927357741  0.028118696843378598  0.11928137118201217  1.0000
  N   N16       1.0  0.42881203599458223  0.4718813104697688  0.6192807971929281  1.0000
  N   N17       1.0  0.9490621872724462  0.29399403601799184  0.7151493758502099  1.0000
  N   N18       1.0  0.5509378409848794  0.20600661435656778  0.2151497975153518  1.0000
  N   N19       1.0  0.05093893000370996  0.706007022054919  0.284850268964817  1.0000
  N   N20       1.0  0.4490608650693844  0.7939927530368392  0.7848506160980833  1.0000
  N   N21       1.0  0.31787543331388685  0.3844103120695621  0.958044095464501  1.0000
  N   N22       1.0  0.1821240981364554  0.1155885719563088  0.4580446531816661  1.0000
  N   N23       1.0  0.6821234778149261  0.6155898992716119  0.0419563181486495  1.0000
  N   N24       1.0  0.8178776095273362  0.8844107996125603  0.5419557604324936  1.0000
  N   N25       1.0  0.19722917702373624  0.21849147542314998  0.9888814019369361  1.0000
  N   N26       1.0  0.3027695778799782  0.28150822573068274  0.48888188524639276  1.0000
  N   N27       1.0  0.8027707346415909  0.7815087373098422  0.011119011676448999  1.0000
  N   N28       1.0  0.6972311292473065  0.7184911444463679  0.5111185283675252  1.0000
  N   N29       1.0  0.11815525659451252  0.448088903085214  0.834880224849378  1.0000
  N   N30       1.0  0.3818431987714561  0.0519100811083106  0.33488016163597206  1.0000
  N   N31       1.0  0.8818432443854362  0.5519096203601065  0.16512095756265666  1.0000
  N   N32       1.0  0.6181575083558215  0.9480892890687401  0.665120251977946  1.0000
  N   N33       1.0  0.30695603227027857  0.23174742355651293  0.05024402677491219  1.0000
  N   N34       1.0  0.19304224850234417  0.2682517953439429  0.5502442703708184  1.0000
  N   N35       1.0  0.6930436743202649  0.7682519452290322  0.9497556180404485  1.0000
  N   N36       1.0  0.806957663162507  0.7317484173896885  0.4497546056459356  1.0000
  N   N37       1.0  0.9177530831028875  0.061864825793932696  0.7399370565534935  1.0000
  N   N38       1.0  0.5822475507465796  0.4381341176370838  0.23993807624549385  1.0000
  N   N39       1.0  0.08224682856243959  0.9381353869390666  0.2600633570598915  1.0000
  N   N40       1.0  0.4177521558439565  0.5618652511484611  0.7600615685698668  1.0000
