data_image0
_chemical_formula_structural       Mn2H8C8O12
_chemical_formula_sum              "Mn2 H8 C8 O12"
_cell_length_a       7.166809431297996
_cell_length_b       7.565019791376748
_cell_length_c       7.814312613266682
_cell_angle_alpha    91.23952712120692
_cell_angle_beta     117.3126185911611
_cell_angle_gamma    118.28972992526587

_space_group_name_H-M_alt    "P 1"
_space_group_IT_number       1

loop_
  _space_group_symop_operation_xyz
  'x, y, z'

loop_
  _atom_site_type_symbol
  _atom_site_label
  _atom_site_symmetry_multiplicity
  _atom_site_fract_x
  _atom_site_fract_y
  _atom_site_fract_z
  _atom_site_occupancy
  Mn  Mn1       1.0  0.5000014326902262  4.9947736115971134e-06  0.5000059796009282  1.0000
  Mn  Mn2       1.0  0.4999995877980938  0.4999972853638896  0.9999995934102868  1.0000
  H   H1        1.0  0.737425662163304  0.4046194140741619  0.4462389651278684  1.0000
  H   H2        1.0  0.38672308524470383  0.09546214284253553  0.0537443697591087  1.0000
  H   H3        1.0  0.26257704749214394  0.595386808232739  0.5537628323968774  1.0000
  H   H4        1.0  0.6132742284580108  0.9045330768217713  0.9462526755487913  1.0000
  H   H5        1.0  0.916701033908517  0.36575188350099824  0.6411062355645357  1.0000
  H   H6        1.0  0.40989738298637973  0.13448476034373874  0.8589219101601132  1.0000
  H   H7        1.0  0.08329960737700057  0.6342464590715621  0.35889306797576376  1.0000
  H   H8        1.0  0.5900988949421662  0.8655136103466109  0.14107615121734812  1.0000
  C   C1        1.0  0.03439123020955069  0.770175179925943  0.05025804531445748  1.0000
  C   C2        1.0  0.7140999635374073  0.729710739913749  0.4497621876476999  1.0000
  C   C3        1.0  0.9656098898425829  0.22981693522746136  0.94973602830067  1.0000
  C   C4        1.0  0.2858950860080044  0.27029409904577767  0.5502308276294414  1.0000
  C   C5        1.0  0.9281552220648878  0.7544628954467074  0.8388149750553636  1.0000
  C   C6        1.0  0.8351877312482759  0.7456883939343586  0.6612386227425588  1.0000
  C   C7        1.0  0.07183971840984792  0.24553092825748027  0.16117387829336854  1.0000
  C   C8        1.0  0.16482865631536475  0.254322531855351  0.3387658332739321  1.0000
  O   O1        1.0  0.7651913064592791  0.296795648883311  0.5030556535029831  1.0000
  O   O2        1.0  0.4654972853180938  0.20334646358826086  0.9970037268485397  1.0000
  O   O3        1.0  0.23480360106677292  0.703205917902082  0.49694149911383073  1.0000
  O   O4        1.0  0.5345018754347921  0.7966487870861417  0.002992014710550135  1.0000
  O   O5        1.0  0.2603989282220171  0.9240521568581884  0.17147101834832776  1.0000
  O   O6        1.0  0.6648611987710924  0.5757414098055734  0.3286934666909858  1.0000
  O   O7        1.0  0.7396028281380753  0.07594761123842632  0.8285352041953187  1.0000
  O   O8        1.0  0.33514936254388095  0.4242676058677048  0.6713246839590995  1.0000
  O   O9        1.0  0.8976601330901987  0.6327780050114883  0.10159404407489361  1.0000
  O   O10       1.0  0.6636349499040654  0.8671546308012456  0.39842149282675626  1.0000
  O   O11       1.0  0.10233211822864527  0.36721089420336755  0.8984016825542367  1.0000
  O   O12       1.0  0.33636658195785435  0.13285147035756492  0.6015854581072162  1.0000
