data_image0
_chemical_formula_structural       Zn6H25C56I9O24
_chemical_formula_sum              "Zn6 H25 C56 I9 O24"
_cell_length_a       18.7406526137887
_cell_length_b       18.703458279867323
_cell_length_c       18.943471794441198
_cell_angle_alpha    108.90259365211936
_cell_angle_beta     109.54539050984238
_cell_angle_gamma    109.66177217010072

_space_group_name_H-M_alt    "P 1"
_space_group_IT_number       1

loop_
  _space_group_symop_operation_xyz
  'x, y, z'

loop_
  _atom_site_type_symbol
  _atom_site_label
  _atom_site_symmetry_multiplicity
  _atom_site_fract_x
  _atom_site_fract_y
  _atom_site_fract_z
  _atom_site_occupancy
  Zn  Zn1       1.0  0.05113124029526965  0.5606383119175573  0.9916963985006008  1.0000
  Zn  Zn2       1.0  0.9320266767186426  0.43020988551417355  0.9939894316872183  1.0000
  Zn  Zn3       1.0  0.9396637290376333  0.9993834652895117  0.4422574813022777  1.0000
  Zn  Zn4       1.0  0.06503636965531001  0.003876694028050999  0.5698238991613067  1.0000
  Zn  Zn5       1.0  0.497653828226838  0.5625477326716393  0.5548315501510644  1.0000
  Zn  Zn6       1.0  0.48924663709691885  0.43416797597736684  0.4258498113845875  1.0000
  H   H1        1.0  0.897440638093329  0.18411792983993547  0.8104400498527939  1.0000
  H   H2        1.0  0.8961908333512342  0.07871254643711721  0.6903568371224227  1.0000
  H   H3        1.0  0.008786659499563147  0.32485682676207267  0.6034954988533343  1.0000
  H   H4        1.0  0.6595306025837645  0.40256700737470646  0.6028262055219926  1.0000
  H   H5        1.0  0.02706328407223436  0.7953002448927223  0.33490523916356124  1.0000
  H   H6        1.0  0.8997059624368688  0.7265124999715552  0.936574505239065  1.0000
  H   H7        1.0  0.8305237209495646  0.6676911934773386  0.9672890612300692  1.0000
  H   H8        1.0  0.9056412339870833  0.8222414764044644  0.6405963599297024  1.0000
  H   H9        1.0  0.7075012905497005  0.7668542716010763  0.3288408472532965  1.0000
  H   H10       1.0  0.38150543178638696  0.2182267723913043  0.4827907183197554  1.0000
  H   H11       1.0  0.23402409173551317  0.6659232905082744  0.29174224909336727  1.0000
  H   H12       1.0  0.9032920489895844  0.810311903379322  0.1914352224044793  1.0000
  H   H13       1.0  0.1485096128094483  0.34370998264913766  0.08430160289935881  1.0000
  H   H14       1.0  0.11037357274695843  0.34056004260184386  0.6757817736470884  1.0000
  H   H15       1.0  0.11474628044882001  0.4476805857250667  0.7995336639964635  1.0000
  H   H16       1.0  0.012344328235720181  0.4312078822802691  0.7285621663161521  1.0000
  H   H17       1.0  0.7731581197427247  0.7275886351464536  0.8352864481218846  1.0000
  H   H18       1.0  0.7042046474041329  0.6690133556986168  0.8663020654847176  1.0000
  H   H19       1.0  0.7790905780855939  0.6997545565217465  0.6191427614585195  1.0000
  H   H20       1.0  0.6341181825171419  0.5720077279751407  0.2759759666962439  1.0000
  H   H21       1.0  0.5837972012752674  0.6343893472932934  0.302271990935232  1.0000
  H   H22       1.0  0.7567879046016658  0.7041165919714985  0.3000354228590398  1.0000
  H   H23       1.0  0.28813102707341903  0.12013526020806611  0.5162027933421314  1.0000
  H   H24       1.0  0.13532276849775834  0.31437791010722543  0.5669254800948238  1.0000
  H   H25       1.0  0.0750271974726786  0.2496533213674113  0.4519846926760708  1.0000
  C   C1        1.0  0.13597623729008748  0.5385975470593819  0.11897279461891225  1.0000
  C   C2        1.0  0.20768140582234204  0.5470186594574216  0.19283414211769678  1.0000
  C   C3        1.0  0.24927220860900698  0.613437630059437  0.2779295207659659  1.0000
  C   C4        1.0  0.3087751561186494  0.6132057705517012  0.3472133524856957  1.0000
  C   C5        1.0  0.3322022484485174  0.5473825345333196  0.3350596052255598  1.0000
  C   C6        1.0  0.29330352276573995  0.4849406063710476  0.24832795290468831  1.0000
  C   C7        1.0  0.2872240517286927  0.40354728812566526  0.1886468253319934  1.0000
  C   C8        1.0  0.2128787820489323  0.40003704363326886  0.1127329923018011  1.0000
  C   C9        1.0  0.0010955373764716175  0.3214289574634818  0.7536444244063534  1.0000
  C   C10       1.0  0.9665395700468836  0.29667898807444004  0.80205077362033  1.0000
  C   C11       1.0  0.9264359911820037  0.2067639190344508  0.7752995760375898  1.0000
  C   C12       1.0  0.9415040566813887  0.5738904143668293  0.09022241259117451  1.0000
  C   C13       1.0  0.9252414242394452  0.14715514085980166  0.706931659393071  1.0000
  C   C14       1.0  0.9616103931247509  0.17329763842764834  0.6592535506435981  1.0000
  C   C15       1.0  0.9974772263828271  0.2613933813567542  0.6835040652257549  1.0000
  C   C16       1.0  0.04587594045874251  0.3308139501988522  0.6659279900390942  1.0000
  C   C17       1.0  0.048979248799845714  0.3983661838447432  0.7447364228615427  1.0000
  C   C18       1.0  0.8063767206630671  0.587502247916177  0.8371797995869913  1.0000
  C   C19       1.0  0.8257031929294244  0.5209484449664358  0.8129171551301795  1.0000
  C   C20       1.0  0.7698076683687421  0.4535309036842179  0.7265139901701689  1.0000
  C   C21       1.0  0.7004747542050538  0.45455963065845856  0.6695471101974774  1.0000
  C   C22       1.0  0.6811517733999893  0.5220394213862676  0.6957719761230268  1.0000
  C   C23       1.0  0.8970687893305964  0.5196226077810167  0.8772922504103563  1.0000
  C   C24       1.0  0.7357916574843275  0.5879952359883378  0.7811768299232826  1.0000
  C   C25       1.0  0.755204774707366  0.6733552974035675  0.8488900048357524  1.0000
  C   C26       1.0  0.8348955444889867  0.6727332101543341  0.9125161572284669  1.0000
  C   C27       1.0  0.9130517286194575  0.8761117638843386  0.5225519374181644  1.0000
  C   C28       1.0  0.981556220310182  0.8867380159382349  0.36814603415901814  1.0000
  C   C29       1.0  0.1425512006152729  0.11644390254866718  0.5272642643343631  1.0000
  C   C30       1.0  0.9682278886835507  0.11018598710923301  0.5926134617738371  1.0000
  C   C31       1.0  0.3795622814111398  0.3611731388976339  0.4723721255390957  1.0000
  C   C32       1.0  0.3916332564603311  0.538389632590807  0.40282180522596905  1.0000
  C   C33       1.0  0.6220477462132905  0.5835545716603221  0.47421108371995063  1.0000
  C   C34       1.0  0.9727925761572326  0.3615741946390045  0.8773080805131601  1.0000
  C   C35       1.0  0.6081935645852499  0.5205462709650917  0.6311672344377542  1.0000
  C   C36       1.0  0.7695080269869763  0.7375066717154866  0.42918709320452564  1.0000
  C   C37       1.0  0.8443362573654909  0.7965508986779923  0.509534406979036  1.0000
  C   C38       1.0  0.8476601544312886  0.778559814298909  0.5769788840185374  1.0000
  C   C39       1.0  0.7766671526727579  0.7089084722780968  0.5645455633171965  1.0000
  C   C40       1.0  0.7006910807020716  0.6502288641080937  0.4830991105136065  1.0000
  C   C41       1.0  0.7007845945411194  0.6647187227934169  0.41558670093853345  1.0000
  C   C42       1.0  0.6462492587050902  0.6349973172219165  0.3210855328537505  1.0000
  C   C43       1.0  0.7239188559632268  0.7178635052023027  0.33680925261197814  1.0000
  C   C44       1.0  0.19736584457553621  0.2475778574572303  0.510461016622294  1.0000
  C   C45       1.0  0.9435450704683674  0.7859109384429956  0.2205014599413462  1.0000
  C   C46       1.0  0.2075859721103798  0.17957042779904242  0.5180842036718973  1.0000
  C   C47       1.0  0.2773224032511763  0.17222172048688833  0.5104268644886503  1.0000
  C   C48       1.0  0.3305709423790902  0.2280719714096975  0.49222126663718063  1.0000
  C   C49       1.0  0.3213868400277562  0.2981389725946926  0.48713814575071274  1.0000
  C   C50       1.0  0.255240102084052  0.3074041343594017  0.4999997089264242  1.0000
  C   C51       1.0  0.20932316538618073  0.3596678364747632  0.5021491147537988  1.0000
  C   C52       1.0  0.1404480683027671  0.2889273672262362  0.5090613120300063  1.0000
  C   C53       1.0  0.9848480095919356  0.8178738104210836  0.30596656571341196  1.0000
  C   C54       1.0  0.9581963460902614  0.7230980648585756  0.16545550965712144  1.0000
  C   C55       1.0  0.920215401701185  0.6365874977416369  0.13808849264236048  1.0000
  C   C56       1.0  0.23206006166042678  0.48351477181140023  0.18056506777724485  1.0000
  I   I1        1.0  0.7916031507125538  0.3488118048047824  0.6789658751814615  1.0000
  I   I2        1.0  0.05330855867111254  0.7932691324202282  0.14074210163470727  1.0000
  I   I3        1.0  0.2834349660433377  0.4872707803419871  0.6171327927397386  1.0000
  I   I4        1.0  0.15732365809584084  0.3696702455632063  0.38712050374932266  1.0000
  I   I5        1.0  0.8184732620018097  0.5821340311371798  0.16268676511172944  1.0000
  I   I6        1.0  0.3592029464168789  0.7193782269146425  0.46832045865589583  1.0000
  I   I7        1.0  0.40669586317818573  0.4252879084496256  0.18581381951550208  1.0000
  I   I8        1.0  0.2342539340288923  0.2898431684846869  0.20303240046264656  1.0000
  I   I9        1.0  0.22201815749635062  0.39952913120209393  0.00202309237365488  1.0000
  O   O1        1.0  0.15624553931966295  0.592109098301961  0.09107345840679675  1.0000
  O   O2        1.0  0.9927662586013716  0.9104152354825318  0.5814762113093723  1.0000
  O   O3        1.0  0.9288996849495705  0.9140306160275601  0.34082306074846985  1.0000
  O   O4        1.0  0.03328201845487658  0.9150647033402707  0.44683138172662507  1.0000
  O   O5        1.0  0.06370910571112631  0.09540885029080931  0.4821145652456594  1.0000
  O   O6        1.0  0.1687149683369356  0.08853612734046828  0.5789666043300272  1.0000
  O   O7        1.0  0.9190213333991509  0.08393881690058438  0.5128726697947174  1.0000
  O   O8        1.0  0.023606821952277805  0.08775974159015482  0.62113591932755  1.0000
  O   O9        1.0  0.39889478723643634  0.43981993842506734  0.5133218451384778  1.0000
  O   O10       1.0  0.4057477819912663  0.3329025210265612  0.4202598631762058  1.0000
  O   O11       1.0  0.4200570867768364  0.5884886845203922  0.4824600178690447  1.0000
  O   O12       1.0  0.06031527655675722  0.47683478330876017  0.08917798494475448  1.0000
  O   O13       1.0  0.4094821861658034  0.4789715270177126  0.374857765616845  1.0000
  O   O14       1.0  0.5953702093315556  0.6116263884616515  0.524623005656963  1.0000
  O   O15       1.0  0.5859756139094119  0.503465062835744  0.41626101699739604  1.0000
  O   O16       1.0  0.5838117893721133  0.5758830644652876  0.6582719329485373  1.0000
  O   O17       1.0  0.5748489278613463  0.4656377130014846  0.552784667798278  1.0000
  O   O18       1.0  0.0026113138153221623  0.6044524221619126  0.07525731574993703  1.0000
  O   O19       1.0  0.8972056696791668  0.492832400389311  0.06736582886746595  1.0000
  O   O20       1.0  0.9762894177918825  0.5773735377267923  0.9065430595833065  1.0000
  O   O21       1.0  0.8740360219124242  0.4637502747627095  0.9006365410643157  1.0000
  O   O22       1.0  0.024618567297224603  0.44174110359954705  0.9061392556418398  1.0000
  O   O23       1.0  0.9253841373703153  0.33340863377092234  0.9089749743406588  1.0000
  O   O24       1.0  0.8874309420508055  0.9053765657455058  0.4729469184015188  1.0000
