data_image0
_chemical_formula_structural       Ba4H16C8O24
_chemical_formula_sum              "Ba4 H16 C8 O24"
_cell_length_a       7.041620519254806
_cell_length_b       7.49304435798053
_cell_length_c       11.11756206444181
_cell_angle_alpha    90.00048909956011
_cell_angle_beta     89.99900824182235
_cell_angle_gamma    105.06867551127297

_space_group_name_H-M_alt    "P 1"
_space_group_IT_number       1

loop_
  _space_group_symop_operation_xyz
  'x, y, z'

loop_
  _atom_site_type_symbol
  _atom_site_label
  _atom_site_symmetry_multiplicity
  _atom_site_fract_x
  _atom_site_fract_y
  _atom_site_fract_z
  _atom_site_occupancy
  Ba  Ba1       1.0  0.2929956782372258  0.20174565505379152  0.0106604845453973  1.0000
  Ba  Ba2       1.0  0.20700334601889392  0.7982551310244265  0.5106616744153385  1.0000
  Ba  Ba3       1.0  0.7070027469960253  0.7982549819307678  0.9893394215595706  1.0000
  Ba  Ba4       1.0  0.7929961121932295  0.2017441201915062  0.48933823167999435  1.0000
  H   H1        1.0  0.7430172090340861  0.4019821812989904  0.1104268708356884  1.0000
  H   H2        1.0  0.7569797270538317  0.5980186555662642  0.6104299623961253  1.0000
  H   H3        1.0  0.25698121618766123  0.598018455688468  0.8895739347470552  1.0000
  H   H4        1.0  0.24302256939097333  0.40198058828580235  0.389568144728095  1.0000
  H   H5        1.0  0.7785330705765503  0.36014842744457104  0.9756054458067921  1.0000
  H   H6        1.0  0.7214622686222754  0.6398519792067889  0.4756075530430479  1.0000
  H   H7        1.0  0.22146393555185986  0.6398522132190222  0.024394460305955996  1.0000
  H   H8        1.0  0.2785386087061923  0.3601472683272107  0.5243914535667287  1.0000
  H   H9        1.0  0.4681642446633917  0.4632496439043195  0.2456533419941493  1.0000
  H   H10       1.0  0.031837284379150836  0.5367526362173579  0.745654949701091  1.0000
  H   H11       1.0  0.5318355996746931  0.5367509894012059  0.754346564103038  1.0000
  H   H12       1.0  0.9681625599589412  0.46324799708816056  0.2543449563961033  1.0000
  H   H13       1.0  0.40701533056162736  0.24985633899660806  0.2846337329976762  1.0000
  H   H14       1.0  0.09298301021098612  0.750143432118648  0.7846358954658683  1.0000
  H   H15       1.0  0.592984127650503  0.7501429122193317  0.7153661730976637  1.0000
  H   H16       1.0  0.9070182532319393  0.2498571975078363  0.2153640106235386  1.0000
  C   C1        1.0  0.925152740501268  0.2116733248134111  0.7994774737016144  1.0000
  C   C2        1.0  0.5748345818342244  0.7883370427177637  0.2994883349233888  1.0000
  C   C3        1.0  0.07484710382531293  0.7883273084950134  0.2005233318733488  1.0000
  C   C4        1.0  0.4251652625038602  0.21166359058776146  0.7005115711737986  1.0000
  C   C5        1.0  0.9900697364161248  0.03977758025556711  0.7527226697756646  1.0000
  C   C6        1.0  0.5099222666704649  0.9602297104200732  0.2527370271318006  1.0000
  C   C7        1.0  0.009929721784502096  0.9602216709632716  0.2472781357974512  1.0000
  C   C8        1.0  0.49007899677246064  0.0397709192064184  0.7472628789576062  1.0000
  O   O1        1.0  0.9272584101204018  0.2332098634745066  0.9126057433244911  1.0000
  O   O2        1.0  0.5727326031372044  0.7667943013781411  0.41260660974053565  1.0000
  O   O3        1.0  0.07274104808021783  0.7667893877443249  0.0873950622486248  1.0000
  O   O4        1.0  0.42726827417975943  0.23320494615875734  0.5873932963470239  1.0000
  O   O5        1.0  0.877677080352136  0.31614204745152813  0.7221067540296602  1.0000
  O   O6        1.0  0.622319963234375  0.6838650346109106  0.2221057021254111  1.0000
  O   O7        1.0  0.12232379697633182  0.6838572000824713  0.2778922525801235  1.0000
  O   O8        1.0  0.37767949497775544  0.3161342166050217  0.7778942039699287  1.0000
  O   O9        1.0  0.9972206959502403  0.015125840189142498  0.6408401172500788  1.0000
  O   O10       1.0  0.5027735218339161  0.9848834964543799  0.14083850375714488  1.0000
  O   O11       1.0  0.002778376135921739  0.984872028937204  0.3591597888434066  1.0000
  O   O12       1.0  0.4972259363782073  0.015115754761552603  0.859161402338195  1.0000
  O   O13       1.0  0.03434409758952491  0.9378316365638287  0.8345343851496311  1.0000
  O   O14       1.0  0.4656533531189525  0.062169838588609104  0.33453679996107155  1.0000
  O   O15       1.0  0.9656557467370634  0.062168996744596014  0.1654664204253322  1.0000
  O   O16       1.0  0.5343461050931709  0.9378294126273234  0.6654631061342683  1.0000
  O   O17       1.0  0.6939847657485956  0.41665499787979604  0.0276554375067661  1.0000
  O   O18       1.0  0.8060118351289562  0.5833466944043126  0.5276561089654663  1.0000
  O   O19       1.0  0.3060136594731445  0.5833456391076621  0.9723453680759775  1.0000
  O   O20       1.0  0.1939908474418104  0.41665393153734  0.47234199816060846  1.0000
  O   O21       1.0  0.3545580679144322  0.3527116051851849  0.2521460775192352  1.0000
  O   O22       1.0  0.14544161523230062  0.6472948704566975  0.7521488743282063  1.0000
  O   O23       1.0  0.6454417764236596  0.6472890281203336  0.7478538285779521  1.0000
  O   O24       1.0  0.8545582291172878  0.35270576284592176  0.2478501322912052  1.0000
