data_image0
_chemical_formula_structural       CuSiH16C24N4Cl4F6
_chemical_formula_sum              "Cu1 Si1 H16 C24 N4 Cl4 F6"
_cell_length_a       8.006632495423533
_cell_length_b       13.752672137816921
_cell_length_c       13.75267239891483
_cell_angle_alpha    89.73987170962693
_cell_angle_beta     86.00067571604028
_cell_angle_gamma    86.00081316838322

_space_group_name_H-M_alt    "P 1"
_space_group_IT_number       1

loop_
  _space_group_symop_operation_xyz
  'x, y, z'

loop_
  _atom_site_type_symbol
  _atom_site_label
  _atom_site_symmetry_multiplicity
  _atom_site_fract_x
  _atom_site_fract_y
  _atom_site_fract_z
  _atom_site_occupancy
  Cu  Cu1       1.0  0.49999632502134256  0.4999948494360425  0.4999987885639782  1.0000
  Si  Si1       1.0  0.9999915178944574  0.49999900516456114  0.49999703653070776  1.0000
  H   H1        1.0  0.260222009721744  0.49992062348971456  0.34407569941414806  1.0000
  H   H2        1.0  0.264468260798985  0.499845923104161  0.1687702000232463  1.0000
  H   H3        1.0  0.806202148628351  0.5000702801626958  0.1620999520159998  1.0000
  H   H4        1.0  0.7800509830635818  0.500052986320661  0.33950247964078517  1.0000
  H   H5        1.0  0.19378352367653662  0.49993618453396504  0.8378898276312867  1.0000
  H   H6        1.0  0.7355229555624233  0.500166371548133  0.831228785423299  1.0000
  H   H7        1.0  0.7397767573145443  0.5000807355011788  0.655925944256623  1.0000
  H   H8        1.0  0.2199481616266965  0.49994545558060827  0.6604868010600454  1.0000
  H   H9        1.0  0.2602119681940493  0.34407305832581175  0.4999160533365483  1.0000
  H   H10       1.0  0.2644574002793831  0.16876795775147002  0.49984637762572953  1.0000
  H   H11       1.0  0.8061945494484917  0.16209871250112687  0.5000708033914094  1.0000
  H   H12       1.0  0.7800437764153898  0.3395032837061578  0.5000512347877191  1.0000
  H   H13       1.0  0.19378573621169437  0.8378895341620026  0.4999338159941829  1.0000
  H   H14       1.0  0.7355239606999718  0.8312217464135403  0.5001596466436949  1.0000
  H   H15       1.0  0.7397715824403548  0.6559195590332225  0.5000775093817396  1.0000
  H   H16       1.0  0.21994387278083138  0.6604864167523061  0.4999436325750466  1.0000
  C   C1        1.0  0.3799836781880757  0.49994797937384317  0.3014055905817301  1.0000
  C   C2        1.0  0.38409226263841123  0.49993088157394544  0.20025533407347496  1.0000
  C   C3        1.0  0.5376326743311353  0.49997866434669924  0.1431861278020676  1.0000
  C   C4        1.0  0.6809363568196501  0.5000113908808219  0.1977023875149087  1.0000
  C   C5        1.0  0.6681045906755685  0.500017964624526  0.2988678438225776  1.0000
  C   C6        1.0  0.5582180835118106  0.4999332888911285  0.03468347379313741  1.0000
  C   C7        1.0  0.4417701720176908  0.5000724462785514  0.9653091150296191  1.0000
  C   C8        1.0  0.31904572302138223  0.49999361788275126  0.8022911772168653  1.0000
  C   C9        1.0  0.46235065572152206  0.5000263440202775  0.8568081143709988  1.0000
  C   C10       1.0  0.6158985742577696  0.5000741241549208  0.7997407911304036  1.0000
  C   C11       1.0  0.6200125130553572  0.5000541087993184  0.698590335090941  1.0000
  C   C12       1.0  0.3318917773182548  0.4999826655639837  0.7011266272019013  1.0000
  C   C13       1.0  0.37997687213673  0.3014029385406333  0.4999455564661517  1.0000
  C   C14       1.0  0.38407987476804095  0.20025126941121846  0.4999305838127269  1.0000
  C   C15       1.0  0.5376267349388684  0.14318542945201782  0.4999786673267366  1.0000
  C   C16       1.0  0.6809351006212763  0.1977030384458658  0.5000112082660166  1.0000
  C   C17       1.0  0.6680960213229525  0.2988689672603187  0.5000170578683552  1.0000
  C   C18       1.0  0.558214440439997  0.034684080586878004  0.4999360170704037  1.0000
  C   C19       1.0  0.4417718367265094  0.9653063508117159  0.5000719898769859  1.0000
  C   C20       1.0  0.31904868726962815  0.8022873932288592  0.4999910805648398  1.0000
  C   C21       1.0  0.46235571250728913  0.8568057316978044  0.5000243985925792  1.0000
  C   C22       1.0  0.6158989969357053  0.799738435029916  0.5000697223401644  1.0000
  C   C23       1.0  0.6200057632074518  0.6985867641074677  0.5000516915710306  1.0000
  C   C24       1.0  0.3318837619551402  0.7011236520641049  0.4999810173769673  1.0000
  N   N1        1.0  0.5191407839645164  0.49998751519715523  0.3508069281706483  1.0000
  N   N2        1.0  0.48086084628548775  0.5000109266003465  0.6491895250580411  1.0000
  N   N3        1.0  0.5191316924736499  0.35080325409335006  0.4999847180505981  1.0000
  N   N4        1.0  0.48085729716731856  0.6491857168900171  0.5000093722237082  1.0000
  Cl  Cl1       1.0  0.7688132370325886  0.4997754467380845  0.9928155154361065  1.0000
  Cl  Cl2       1.0  0.2311716139310889  0.5002273739967792  0.0071750405889901  1.0000
  Cl  Cl3       1.0  0.7688097750418593  0.9928169716206556  0.4997845412272426  1.0000
  Cl  Cl4       1.0  0.23117282500147954  0.007172732664827202  0.5002265237174228  1.0000
  F   F1        1.0  0.2162431589500855  0.5008683527905547  0.5008672825473184  1.0000
  F   F2        1.0  0.7837414744352388  0.4991257217256477  0.499124776232179  1.0000
  F   F3        1.0  0.9999907317213964  0.5882333114530597  0.4117662880726058  1.0000
  F   F4        1.0  0.9999973086298652  0.4117646971173273  0.5882290403426821  1.0000
  F   F5        1.0  0.02292293537521319  0.41173565854690974  0.41173099343339453  1.0000
  F   F6        1.0  0.9770636811877436  0.5882627885268195  0.5882616937336778  1.0000
