data_image0
_chemical_formula_structural       Cd4H32C20O24
_chemical_formula_sum              "Cd4 H32 C20 O24"
_cell_length_a       7.098898953861296
_cell_length_b       7.284961317052242
_cell_length_c       16.25313348000677
_cell_angle_alpha    90.00010231968542
_cell_angle_beta     89.99995912033351
_cell_angle_gamma    114.48321910796054

_space_group_name_H-M_alt    "P 1"
_space_group_IT_number       1

loop_
  _space_group_symop_operation_xyz
  'x, y, z'

loop_
  _atom_site_type_symbol
  _atom_site_label
  _atom_site_symmetry_multiplicity
  _atom_site_fract_x
  _atom_site_fract_y
  _atom_site_fract_z
  _atom_site_occupancy
  Cd  Cd1       1.0  0.049359430806639196  0.4822944381300117  0.3061516076675304  1.0000
  Cd  Cd2       1.0  0.45063941003692065  0.017706345075858096  0.806151564994771  1.0000
  Cd  Cd3       1.0  0.9506366062919794  0.5177075868709193  0.6938484163907646  1.0000
  Cd  Cd4       1.0  0.5493604332969326  0.9822912410159788  0.1938484590612078  1.0000
  H   H1        1.0  0.029645240051401338  0.8515193656767366  0.40421530715664744  1.0000
  H   H2        1.0  0.4703548595939821  0.6484826617149861  0.9042147455271208  1.0000
  H   H3        1.0  0.9703530108764796  0.1484811939472124  0.5957828711028201  1.0000
  H   H4        1.0  0.5296476442130994  0.3515179620945401  0.0957840479976966  1.0000
  H   H5        1.0  0.2282905726235711  0.8186725008515978  0.45776063106212933  1.0000
  H   H6        1.0  0.2717103277881421  0.68132825970455  0.9577613865114645  1.0000
  H   H7        1.0  0.7717078530838677  0.1813250638442057  0.5422387777280806  1.0000
  H   H8        1.0  0.728289515545768  0.3186693263898164  0.04223986807646441  1.0000
  H   H9        1.0  0.39049438816473986  0.04715452006996661  0.5655456739633069  1.0000
  H   H10       1.0  0.10950913169669714  0.45284984216087293  0.0655462904348667  1.0000
  H   H11       1.0  0.6095065232364546  0.9528490772754592  0.43445311956291033  1.0000
  H   H12       1.0  0.8904937216694434  0.5471447917898332  0.934453733619492  1.0000
  H   H13       1.0  0.3808286683279151  0.2975124579593995  0.5730840121234666  1.0000
  H   H14       1.0  0.11916997787330527  0.2024903628853707  0.07308381443407802  1.0000
  H   H15       1.0  0.6191695825999375  0.7024881016632916  0.4269135508700189  1.0000
  H   H16       1.0  0.880834118339628  0.79750728738572  0.9269137485573752  1.0000
  H   H17       1.0  0.6414136782848063  0.3465252077073159  0.3674116510991469  1.0000
  H   H18       1.0  0.8585863785304112  0.15347355584417244  0.8674111276092449  1.0000
  H   H19       1.0  0.3585866116930987  0.6534768814829733  0.6325908340224162  1.0000
  H   H20       1.0  0.14141488242989195  0.8465240516449624  0.13259012697847794  1.0000
  H   H21       1.0  0.7719730114998596  0.4939212903284868  0.4411451630986393  1.0000
  H   H22       1.0  0.7280270515991561  0.0060777760713222  0.9411439489756365  1.0000
  H   H23       1.0  0.22802586085165188  0.5060807774670335  0.5588573220231368  1.0000
  H   H24       1.0  0.2719727917347257  0.9939198100217794  0.05885669034631751  1.0000
  H   H25       1.0  0.39754346009809177  0.5034600824585311  0.19382306903446536  1.0000
  H   H26       1.0  0.10245662161698013  0.9965410807795434  0.6938235077477941  1.0000
  H   H27       1.0  0.6024549656093682  0.4965374822385371  0.8061769550217193  1.0000
  H   H28       1.0  0.8975414545315346  0.0034624737814042015  0.3061777468427351  1.0000
  H   H29       1.0  0.3386813531349233  0.31842674112392183  0.2568268566398403  1.0000
  H   H30       1.0  0.16132031875780936  0.1815738822776467  0.7568270308257896  1.0000
  H   H31       1.0  0.6613168977930926  0.6815738185063509  0.7431743979494956  1.0000
  H   H32       1.0  0.8386828064728534  0.8184282497009222  0.24317483902938625  1.0000
  C   C1        1.0  0.31610332246972206  0.9599435078931008  0.3413025140835516  1.0000
  C   C2        1.0  0.18389739323749402  0.5400597692574108  0.841302570601883  1.0000
  C   C3        1.0  0.6838963460846373  0.04005707312941811  0.6586975099736281  1.0000
  C   C4        1.0  0.8161036929432796  0.45994083316113427  0.15869806872105846  1.0000
  C   C5        1.0  0.19456089202628138  0.9276225865862031  0.4206010750991285  1.0000
  C   C6        1.0  0.30543920901558863  0.5723795081089378  0.9206011196860902  1.0000
  C   C7        1.0  0.8054359412752917  0.0723779516467715  0.5793989489584705  1.0000
  C   C8        1.0  0.6945645376384704  0.4276241320298269  0.07939951963763293  1.0000
  C   C9        1.0  0.34346678647801804  0.15868567898970548  0.5388333372840819  1.0000
  C   C10       1.0  0.15653265300721841  0.3413155144088762  0.038833852065117504  1.0000
  C   C11       1.0  0.6565342997027273  0.841314923427575  0.46116668677288436  1.0000
  C   C12       1.0  0.8434631122270916  0.6586790125742895  0.961169248320161  1.0000
  C   C13       1.0  0.23902938135221768  0.11845422316638829  0.4676335284994338  1.0000
  C   C14       1.0  0.26097009467682847  0.3815487314652869  0.9676332134014702  1.0000
  C   C15       1.0  0.7609646166964339  0.8815462722707252  0.532363419228709  1.0000
  C   C16       1.0  0.7390415363119587  0.6184535288705248  0.03236311905869371  1.0000
  C   C17       1.0  0.1645370518180087  0.2636637074328192  0.4299227146548007  1.0000
  C   C18       1.0  0.3354603819473496  0.23633756274936957  0.9299222630974173  1.0000
  C   C19       1.0  0.8354589852805601  0.7363383175655825  0.5700760788715513  1.0000
  C   C20       1.0  0.6645437142656546  0.7636600875255084  0.07007714569196113  1.0000
  O   O1        1.0  0.29122329215085324  0.8044377679083609  0.29776069933374333  1.0000
  O   O2        1.0  0.20877759462508297  0.6955623354699939  0.7977608699322047  1.0000
  O   O3        1.0  0.7087777940298707  0.1955628345076548  0.7022387094572553  1.0000
  O   O4        1.0  0.7912234915556909  0.3044382669485515  0.20223976939073657  1.0000
  O   O5        1.0  0.44237514615776513  0.13393423532270526  0.3178956080750767  1.0000
  O   O6        1.0  0.05762307426323329  0.3660650879580274  0.8178959584075332  1.0000
  O   O7        1.0  0.5576239009731124  0.8660648375358161  0.6821038007156306  1.0000
  O   O8        1.0  0.9423745552413078  0.633933963508255  0.18210468091533735  1.0000
  O   O9        1.0  0.054713449584092196  0.2022945544819876  0.3639342012228185  1.0000
  O   O10       1.0  0.4452847747604664  0.297704957895263  0.8639343793225083  1.0000
  O   O11       1.0  0.9452840051408915  0.7977074919124477  0.6360652075693027  1.0000
  O   O12       1.0  0.5547171076232047  0.7022941577528029  0.13606502946777976  1.0000
  O   O13       1.0  0.20881191650074973  0.43789866865375154  0.4590205497594085  1.0000
  O   O14       1.0  0.2911834806945849  0.06210119148584428  0.9590199754027895  1.0000
  O   O15       1.0  0.7911897911034698  0.562103441927519  0.5409800895640303  1.0000
  O   O16       1.0  0.7088163626392968  0.937896394607257  0.040980663919164315  1.0000
  O   O17       1.0  0.7679408445456629  0.4682296034285328  0.38045039586640433  1.0000
  O   O18       1.0  0.732058417177811  0.03177070044555561  0.8804498158817966  1.0000
  O   O19       1.0  0.2320566101794057  0.5317724429696895  0.6195508587236348  1.0000
  O   O20       1.0  0.26794346520591  0.9682284152050399  0.11955082344044143  1.0000
  O   O21       1.0  0.28393228516100066  0.40177812459224055  0.22641860741067185  1.0000
  O   O22       1.0  0.21606796651383317  0.09822235251689897  0.7264186995959536  1.0000
  O   O23       1.0  0.7160659657669582  0.5982224350355024  0.7735814166467136  1.0000
  O   O24       1.0  0.7839309058376003  0.9017797152748271  0.27358193972790457  1.0000
