data_image0
_chemical_formula_structural       Zr6H15C52S10O32F5
_chemical_formula_sum              "Zr6 H15 C52 S10 O32 F5"
_cell_length_a       16.4639647409494
_cell_length_b       16.45391728620218
_cell_length_c       16.520588435381164
_cell_angle_alpha    61.756347838793914
_cell_angle_beta     59.84175212413347
_cell_angle_gamma    60.25060900036295

_space_group_name_H-M_alt    "P 1"
_space_group_IT_number       1

loop_
  _space_group_symop_operation_xyz
  'x, y, z'

loop_
  _atom_site_type_symbol
  _atom_site_label
  _atom_site_symmetry_multiplicity
  _atom_site_fract_x
  _atom_site_fract_y
  _atom_site_fract_z
  _atom_site_occupancy
  Zr  Zr1       1.0  0.8877486053278074  0.9025317513285245  0.5975613318426911  1.0000
  Zr  Zr2       1.0  0.11173903347291511  0.10180893469925686  0.39835425886219883  1.0000
  Zr  Zr3       1.0  0.10203560872221853  0.892881580581914  0.6075693339052465  1.0000
  Zr  Zr4       1.0  0.8974415397345153  0.11144060040345485  0.3891487224627781  1.0000
  Zr  Zr5       1.0  0.10887769763844803  0.8928320660383662  0.3892189426598661  1.0000
  Zr  Zr6       1.0  0.8905474124585026  0.11097434519963664  0.6075946425400361  1.0000
  H   H1        1.0  0.0774726065927781  0.7521018060739594  0.5771604370044372  1.0000
  H   H2        1.0  0.092712534790202  0.08133358478060158  0.24816267484774102  1.0000
  H   H3        1.0  0.0832870170901855  0.08108640715813217  0.590143209997514  1.0000
  H   H4        1.0  0.7448665198302108  0.09403086057765343  0.577205562482135  1.0000
  H   H5        1.0  0.125519323662509  0.6114433261435437  0.3620818661991692  1.0000
  H   H6        1.0  0.6105474227856861  0.1264710670042177  0.899847695066491  1.0000
  H   H7        1.0  0.8681018197092384  0.12459172427899294  0.11803466401423184  1.0000
  H   H8        1.0  0.6223452084817539  0.3945051523232124  0.36455835780885343  1.0000
  H   H9        1.0  0.10124338663835192  0.6360694758689078  0.8709757256551429  1.0000
  H   H10       1.0  0.8413583971322965  0.6549949838682421  0.8516286616493504  1.0000
  H   H11       1.0  0.8274108726098105  0.5073917874801805  0.9983078620214415  1.0000
  H   H12       1.0  0.8911448306628529  0.3750383173869523  0.13172583638470314  1.0000
  H   H13       1.0  0.15110417554676292  0.35574418615244247  0.15112647705334575  1.0000
  H   H14       1.0  0.1659702311035859  0.5025563100330998  0.0034919404818652606  1.0000
  H   H15       1.0  0.6216360762398949  0.8759262212284114  0.6104815438587609  1.0000
  C   C1        1.0  0.9940931677077955  0.7389934289206292  0.48432097587086526  1.0000
  C   C2        1.0  0.28190254035741463  0.9874074163969127  0.23547448184453412  1.0000
  C   C3        1.0  0.9973710012349029  0.2721529819490557  0.5051327178154777  1.0000
  C   C4        1.0  0.7243543677273009  0.008325951434706285  0.7684253119173408  1.0000
  C   C5        1.0  0.9804244030700816  0.7404140049682724  0.7657570100127136  1.0000
  C   C6        1.0  0.7310716352121034  0.0067362997178081275  0.4859076010112418  1.0000
  C   C7        1.0  0.012416309862025807  0.2699508451836579  0.23635751176396988  1.0000
  C   C8        1.0  0.27574724016619  0.9908218925276913  0.5017204752147747  1.0000
  C   C9        1.0  0.2724528452901822  0.7300184794292619  0.4962038105848664  1.0000
  C   C10       1.0  0.9900926086175447  0.9967084252849288  0.7779951694358759  1.0000
  C   C11       1.0  0.7341577328509105  0.28149519418016666  0.49368250160858923  1.0000
  C   C12       1.0  0.000740073820232082  0.9995221156418168  0.2264369069338913  1.0000
  C   C13       1.0  0.9269273456278739  0.4227707603377621  0.5625105301182813  1.0000
  C   C14       1.0  0.061773475710616324  0.5925717537529565  0.42347037572325535  1.0000
  C   C15       1.0  0.9949223596189541  0.36396200865463835  0.501333262123204  1.0000
  C   C16       1.0  0.993192458551846  0.6494051410836975  0.48601730550317535  1.0000
  C   C17       1.0  0.03692315184019882  0.5099928889826018  0.45154872137506896  1.0000
  C   C18       1.0  0.9496743780357947  0.5062736580239858  0.5352197421076995  1.0000
  C   C19       1.0  0.423193608146171  0.9265490400820154  0.08804673581209255  1.0000
  C   C20       1.0  0.589533433528153  0.06490055497066996  0.9188213204679913  1.0000
  C   C21       1.0  0.3711107938623783  0.9877303728304054  0.14685929574933013  1.0000
  C   C22       1.0  0.6390864549044865  0.003447353600286355  0.8610214760660428  1.0000
  C   C23       1.0  0.5108452342486842  0.03618455280252426  0.0019709308147426666  1.0000
  C   C24       1.0  0.5028986445876882  0.953131178450576  0.005137586005822885  1.0000
  C   C25       1.0  0.05667282220273513  0.9300673768106263  0.9170380371783013  1.0000
  C   C26       1.0  0.929215836081056  0.06273039743317095  0.09312473364526136  1.0000
  C   C27       1.0  0.9900108372528111  0.9954587162412594  0.8674441706560643  1.0000
  C   C28       1.0  0.9975243906254863  0.9968989731562271  0.14021444804106417  1.0000
  C   C29       1.0  0.9509135462226013  0.03785340334697192  0.011754294229668092  1.0000
  C   C30       1.0  0.0356766589592466  0.9531067903342889  0.9991320380672805  1.0000
  C   C31       1.0  0.4148020112515667  0.5946472528885566  0.5598041678486257  1.0000
  C   C32       1.0  0.5969017147074424  0.4193067158378696  0.4264275971943903  1.0000
  C   C33       1.0  0.36397630875984516  0.6440390719370442  0.4943914528714828  1.0000
  C   C34       1.0  0.6455402195029549  0.3711626472693794  0.4931878269707753  1.0000
  C   C35       1.0  0.5128124201391345  0.5010936629523641  0.4509253779203137  1.0000
  C   C36       1.0  0.49960214461803076  0.5131299418143201  0.536259656772586  1.0000
  C   C37       1.0  0.04182710050320538  0.6070834679749453  0.8998662551000153  1.0000
  C   C38       1.0  0.8943796602162523  0.6170094002509428  0.8896838806808065  1.0000
  C   C39       1.0  0.887005446314568  0.5358292651233684  0.9704476986362279  1.0000
  C   C40       1.0  0.9567341702753751  0.48720020709208717  0.019381784525030785  1.0000
  C   C41       1.0  0.9505794633229314  0.40398871885835774  0.10285384810189416  1.0000
  C   C42       1.0  0.09804297906970305  0.39386074490425216  0.11307571666051788  1.0000
  C   C43       1.0  0.10586520694961629  0.4746283913821684  0.03186763342122841  1.0000
  C   C44       1.0  0.035954906567248125  0.5235439007813695  0.9830783834507458  1.0000
  C   C45       1.0  0.9725553690156871  0.6531268540660663  0.8539851812253332  1.0000
  C   C46       1.0  0.019507508028112897  0.35813975896940786  0.14908782420142336  1.0000
  C   C47       1.0  0.41765893463266923  0.05656392616464245  0.4305292796790355  1.0000
  C   C48       1.0  0.5966021692881898  0.9350249046062087  0.5511446049970276  1.0000
  C   C49       1.0  0.3670329184117591  0.9905021809964367  0.49715370916547413  1.0000
  C   C50       1.0  0.6443481644450983  0.002991697438766048  0.48479744784275897  1.0000
  C   C51       1.0  0.5140006170025941  0.9546272841388018  0.5307192642697632  1.0000
  C   C52       1.0  0.5013729326600895  0.03724639626934585  0.4487069725394975  1.0000
  S   S1        1.0  0.08873522299009545  0.41151865082172634  0.4083059963695563  1.0000
  S   S2        1.0  0.8981182813629897  0.6038090842695071  0.5791480179618775  1.0000
  S   S3        1.0  0.42087000559705956  0.07946018592956959  0.1004260801637287  1.0000
  S   S4        1.0  0.591608401856753  0.910276065356797  0.9066634917847127  1.0000
  S   S5        1.0  0.8993095294151984  0.08723753304242618  0.9227383810295394  1.0000
  S   S6        1.0  0.08835969211459375  0.9040474609453142  0.08675268968076481  1.0000
  S   S7        1.0  0.42158241431152277  0.5899134707458912  0.40151355486293033  1.0000
  S   S8        1.0  0.590057269500221  0.4245729310922998  0.5860993750896882  1.0000
  S   S9        1.0  0.4234084800312276  0.902408965572995  0.5834629455131051  1.0000
  S   S10       1.0  0.5903599126051519  0.09073468450580438  0.3967433232052501  1.0000
  O   O1        1.0  0.9225740928610761  0.7772904880589874  0.5518656126637039  1.0000
  O   O2        1.0  0.24757839832401635  0.055815752917986565  0.27269197671665785  1.0000
  O   O3        1.0  0.07039387546210925  0.2332896881559563  0.43852214672308076  1.0000
  O   O4        1.0  0.7567323591950623  0.942523603611228  0.7286177575327033  1.0000
  O   O5        1.0  0.051926121988891606  0.7707906805204986  0.7345512504157768  1.0000
  O   O6        1.0  0.7659085674497843  0.07515841433861681  0.4200380416151717  1.0000
  O   O7        1.0  0.9415322325425208  0.23883148053034364  0.266799026124474  1.0000
  O   O8        1.0  0.23897810899288163  0.9245925716684482  0.5703132896979569  1.0000
  O   O9        1.0  0.23956657225549782  0.7620768922576033  0.42713469444893093  1.0000
  O   O10       1.0  0.9223333048569626  0.06751545408940267  0.7438031758321132  1.0000
  O   O11       1.0  0.7655188656259994  0.24655831213596704  0.5643537632223001  1.0000
  O   O12       1.0  0.0700429369500028  0.9306146945835964  0.25921060887139197  1.0000
  O   O13       1.0  0.05889201279943276  0.9276915852150863  0.7407530561755209  1.0000
  O   O14       1.0  0.7711787637714522  0.24527630025263378  0.4239388473918382  1.0000
  O   O15       1.0  0.9344617447186891  0.07152068947221579  0.2602847666099209  1.0000
  O   O16       1.0  0.23241854075644144  0.765059704098917  0.5674142736679998  1.0000
  O   O17       1.0  0.9147549521126097  0.7781164216760887  0.7262535964290466  1.0000
  O   O18       1.0  0.23960718953631505  0.059978831472705045  0.43595367043056404  1.0000
  O   O19       1.0  0.07977296942005553  0.23038184103716475  0.27407782652782947  1.0000
  O   O20       1.0  0.7631169664663275  0.9404751434091239  0.5553304183227824  1.0000
  O   O21       1.0  0.7582161193503795  0.07740294024841193  0.7350940842406575  1.0000
  O   O22       1.0  0.06625376601859043  0.7697867164414021  0.41787925971014783  1.0000
  O   O23       1.0  0.24463136855342082  0.9212818347429063  0.2670632796988741  1.0000
  O   O24       1.0  0.9281509672220735  0.2380412317769255  0.5739941651945842  1.0000
  O   O25       1.0  0.8172373738412516  0.06899748734345225  0.5542774468520478  1.0000
  O   O26       1.0  0.05880485046185413  0.05818432620812798  0.5651469779373174  1.0000
  O   O27       1.0  0.06653358389822729  0.05804505021991699  0.31920631307093583  1.0000
  O   O28       1.0  0.05544564620011969  0.8231591073657756  0.5539834939759987  1.0000
  O   O29       1.0  0.13363350216781816  0.9527367578011549  0.4569789121075446  1.0000
  O   O30       1.0  0.9559252560660026  0.9608959214376968  0.4485044811466282  1.0000
  O   O31       1.0  0.9581607464896676  0.1337410816519836  0.45723657786115285  1.0000
  O   O32       1.0  0.9502728005391816  0.9609652505648613  0.6298328429848042  1.0000
  F   F1        1.0  0.8472663847968889  0.4035290066409516  0.6404593048637963  1.0000
  F   F2        1.0  0.40085184877114  0.8499064495606631  0.10616678821247659  1.0000
  F   F3        1.0  0.1346384069972616  0.8523375710000708  0.8907976727806429  1.0000
  F   F4        1.0  0.38743736477051277  0.6199932992295487  0.6385623345997472  1.0000
  F   F5        1.0  0.39121718275486467  0.1324831487740213  0.3560397851807622  1.0000
