data_image0
_chemical_formula_structural       Zr6H23C52S10Br2N5O32
_chemical_formula_sum              "Zr6 H23 C52 S10 Br2 N5 O32"
_cell_length_a       16.43409355942996
_cell_length_b       16.435344426445976
_cell_length_c       16.51404688802627
_cell_angle_alpha    61.93392003615247
_cell_angle_beta     59.811024864216776
_cell_angle_gamma    60.29856060763487

_space_group_name_H-M_alt    "P 1"
_space_group_IT_number       1

loop_
  _space_group_symop_operation_xyz
  'x, y, z'

loop_
  _atom_site_type_symbol
  _atom_site_label
  _atom_site_symmetry_multiplicity
  _atom_site_fract_x
  _atom_site_fract_y
  _atom_site_fract_z
  _atom_site_occupancy
  Zr  Zr1       1.0  0.8877279083732572  0.9022140221672218  0.5976155373125989  1.0000
  Zr  Zr2       1.0  0.11215257808689928  0.10108061268530834  0.39913138144859767  1.0000
  Zr  Zr3       1.0  0.10199947294329825  0.8934940037840845  0.6068471160766151  1.0000
  Zr  Zr4       1.0  0.8974362130741725  0.11061849173587038  0.3896749270091248  1.0000
  Zr  Zr5       1.0  0.10964313349031587  0.8925445535143907  0.3891472406353174  1.0000
  Zr  Zr6       1.0  0.8907543971348488  0.1108964291567816  0.6077531153052859  1.0000
  H   H1        1.0  0.07884788013899433  0.7520440202397864  0.5761965240135112  1.0000
  H   H2        1.0  0.09429085630559089  0.07956764122949521  0.24882705905555008  1.0000
  H   H3        1.0  0.08314520777514645  0.08080536093628155  0.5904368293974472  1.0000
  H   H4        1.0  0.7447800394664627  0.09382720212237677  0.5777731562384644  1.0000
  H   H5        1.0  0.12552404085799662  0.6124508496230091  0.36050850363188397  1.0000
  H   H6        1.0  0.6114936534570674  0.12699577710544221  0.8987508564080073  1.0000
  H   H7        1.0  0.8683867951086198  0.12475126831281357  0.11873112301473296  1.0000
  H   H8        1.0  0.6264316489625159  0.39609289906640294  0.36165365396266214  1.0000
  H   H9        1.0  0.10117164489707865  0.636523637216719  0.8720579408547309  1.0000
  H   H10       1.0  0.8421807728037009  0.6553210437752951  0.8512377826824534  1.0000
  H   H11       1.0  0.8912233075153184  0.3746666643808679  0.13231350107915313  1.0000
  H   H12       1.0  0.15167135999195117  0.3545147161391284  0.15156718812574607  1.0000
  H   H13       1.0  0.623830002632417  0.8739425093474295  0.6103594232230164  1.0000
  H   H14       1.0  0.8149325930524114  0.42812403199148  0.6965114342185571  1.0000
  H   H15       1.0  0.8443713691103911  0.3320215089379062  0.6574072059687736  1.0000
  H   H16       1.0  0.42983767055581984  0.8115376099064021  0.06355625487985599  1.0000
  H   H17       1.0  0.3357949406212413  0.8394390422896264  0.17168399294735076  1.0000
  H   H18       1.0  0.19424656009091731  0.8206146818719873  0.9091264086159329  1.0000
  H   H19       1.0  0.14916850001196008  0.8483269923640507  0.8203842893957328  1.0000
  H   H20       1.0  0.406718042254461  0.5728648663356566  0.6971561275595021  1.0000
  H   H21       1.0  0.31573403242600084  0.6771260282150349  0.6548566017597038  1.0000
  H   H22       1.0  0.41486332987680186  0.18735732456147489  0.3235952677112479  1.0000
  H   H23       1.0  0.32207422246052186  0.1433364218191286  0.3550032505042465  1.0000
  C   C1        1.0  0.99446166363618  0.7380762893829172  0.48501303418583314  1.0000
  C   C2        1.0  0.28349929674963203  0.9900776935488551  0.23457474821092467  1.0000
  C   C3        1.0  0.00043148007022612264  0.27262480820866836  0.5031344208223771  1.0000
  C   C4        1.0  0.7241166379401989  0.008052383041302864  0.7684738079558074  1.0000
  C   C5        1.0  0.9813268381087071  0.7404207327725274  0.7661050189870693  1.0000
  C   C6        1.0  0.7310877631002342  0.0061028429918507585  0.48642911139586426  1.0000
  C   C7        1.0  0.012537774428452126  0.2693573928903703  0.23678067093749175  1.0000
  C   C8        1.0  0.2769476318320018  0.9873997586419703  0.5051319583362857  1.0000
  C   C9        1.0  0.27419723821294184  0.7287430017354808  0.4944593965827764  1.0000
  C   C10       1.0  0.9885593851139807  0.998853850867924  0.7789434374917686  1.0000
  C   C11       1.0  0.7342207821178164  0.28143353989236175  0.4943329110726467  1.0000
  C   C12       1.0  0.0021002732626343376  0.9989380398690387  0.22580037069410253  1.0000
  C   C13       1.0  0.9278756312330997  0.4198432254324301  0.563713403640804  1.0000
  C   C14       1.0  0.06274318586131496  0.592272399138281  0.4226567053644529  1.0000
  C   C15       1.0  0.997691991335273  0.36380164786209696  0.4982256153209121  1.0000
  C   C16       1.0  0.994595397311251  0.6480481467284989  0.48656916771042097  1.0000
  C   C17       1.0  0.03900800878550105  0.5091292707983257  0.45016196713223167  1.0000
  C   C18       1.0  0.9530118938248081  0.503322437043927  0.5347744658310845  1.0000
  C   C19       1.0  0.4220836648901457  0.9260229306989981  0.09054909338769329  1.0000
  C   C20       1.0  0.5896906633313324  0.06568355813531927  0.9184645797411121  1.0000
  C   C21       1.0  0.3716104990257777  0.9906312394254472  0.14742353654769147  1.0000
  C   C22       1.0  0.6389520477599078  0.003580769775631248  0.8611295280714799  1.0000
  C   C23       1.0  0.5107418259556269  0.03791512510978381  0.002185836969147239  1.0000
  C   C24       1.0  0.5019031810004367  0.9547078321910829  0.0069879267605942  1.0000
  C   C25       1.0  0.05847490574004888  0.9299651298410367  0.9142403911670343  1.0000
  C   C26       1.0  0.9297776729190517  0.06335982409314064  0.09284973611533327  1.0000
  C   C27       1.0  0.9881653788118641  0.997462628272089  0.867455287406102  1.0000
  C   C28       1.0  0.998794638405343  0.9974285616518441  0.13910887196008306  1.0000
  C   C29       1.0  0.9507939215855217  0.03942136382622859  0.011014435892988688  1.0000
  C   C30       1.0  0.03563174002981417  0.9553167948999074  0.9966053908491188  1.0000
  C   C31       1.0  0.4126117023785201  0.5953342678806308  0.5613981099377269  1.0000
  C   C32       1.0  0.5990796591146577  0.42027987730015326  0.42459909629626214  1.0000
  C   C33       1.0  0.3651695680650847  0.6445704754084717  0.4917734385200916  1.0000
  C   C34       1.0  0.6458857605347035  0.3712475063381432  0.4929822639525483  1.0000
  C   C35       1.0  0.5142570304650534  0.5020237526617422  0.4487188537135581  1.0000
  C   C36       1.0  0.49813222141667535  0.5136438107503241  0.5353184346604181  1.0000
  C   C37       1.0  0.04214728624519626  0.6073524225814567  0.9004463280563115  1.0000
  C   C38       1.0  0.8950600359931755  0.6176379039616932  0.8892868312677676  1.0000
  C   C39       1.0  0.887994861314496  0.5366576449128503  0.969802308952957  1.0000
  C   C40       1.0  0.9569068940818825  0.486512190012668  0.02035256911661769  1.0000
  C   C41       1.0  0.9505965490317436  0.4035659887507562  0.10345992125721878  1.0000
  C   C42       1.0  0.09835107746935295  0.3926699368702841  0.11395503851383636  1.0000
  C   C43       1.0  0.10574361949094432  0.47326558240966676  0.033077485945163625  1.0000
  C   C44       1.0  0.036311798950294  0.5239898615026277  0.983081202358427  1.0000
  C   C45       1.0  0.9731726556976596  0.653188646589001  0.854527678846395  1.0000
  C   C46       1.0  0.019544937107269893  0.35778052311255937  0.14939923888715603  1.0000
  C   C47       1.0  0.41535514727596023  0.056428644594518684  0.43223001298029123  1.0000
  C   C48       1.0  0.5970827833803443  0.9333357445377355  0.552401816096406  1.0000
  C   C49       1.0  0.3672640038317707  0.9867959163579842  0.5003307209451009  1.0000
  C   C50       1.0  0.6438471640573695  0.0022003400592894096  0.48645649292876664  1.0000
  C   C51       1.0  0.5137685020226854  0.9522746721239768  0.5333879326614409  1.0000
  C   C52       1.0  0.4992886904156535  0.03520343943761614  0.45279770205360853  1.0000
  S   S1        1.0  0.0908095637113888  0.41281063936282436  0.4036813006515416  1.0000
  S   S2        1.0  0.9010606447913646  0.6003729104453016  0.5800654926935349  1.0000
  S   S3        1.0  0.4218882545692111  0.08281233342516707  0.10005703254923051  1.0000
  S   S4        1.0  0.5906055605938859  0.9106298703437617  0.9087164530820855  1.0000
  S   S5        1.0  0.896512067361904  0.08895077872273302  0.9242126875992226  1.0000
  S   S6        1.0  0.08903062346633564  0.9053845769792799  0.08402258002783468  1.0000
  S   S7        1.0  0.4254182334003291  0.5916788594948131  0.3966593580892877  1.0000
  S   S8        1.0  0.5875924064241432  0.42465137301693545  0.5865487786898953  1.0000
  S   S9        1.0  0.42512061665727424  0.8975856328304271  0.5857687708857284  1.0000
  S   S10       1.0  0.5879494089635031  0.08963796985371897  0.400279755138456  1.0000
  Br  Br1       1.0  0.21383586910926072  0.5172739422614611  0.9872218787750384  1.0000
  Br  Br2       1.0  0.7818252205199413  0.4908635368506393  0.0138278504396963  1.0000
  N   N1        1.0  0.8469439639131269  0.3987768323099701  0.6412368689450999  1.0000
  N   N2        1.0  0.398755663573965  0.8475708011675208  0.11315456560509309  1.0000
  N   N3        1.0  0.13567789404037026  0.8505076790902562  0.8866971760504256  1.0000
  N   N4        1.0  0.38315335191060734  0.6229042371505713  0.6406346452318842  1.0000
  N   N5        1.0  0.3880796667238969  0.13151166097862432  0.3567540153131575  1.0000
  O   O1        1.0  0.9230238119793203  0.7758927468458762  0.5532805665133222  1.0000
  O   O2        1.0  0.24668532035283863  0.0578145821762703  0.2741862063566173  1.0000
  O   O3        1.0  0.07356038920855214  0.23087726108398957  0.4378576585223044  1.0000
  O   O4        1.0  0.7569170784623511  0.9418285665685314  0.7287130455167341  1.0000
  O   O5        1.0  0.05341247258407129  0.7699994221099756  0.7352652508605216  1.0000
  O   O6        1.0  0.7660552504995761  0.07445007173249252  0.4206720609588004  1.0000
  O   O7        1.0  0.9417072177683963  0.2385336970402748  0.26640115205882603  1.0000
  O   O8        1.0  0.2376130120172348  0.9221664284065199  0.5733438018395843  1.0000
  O   O9        1.0  0.23954188382948885  0.7632336790955349  0.4258580610723471  1.0000
  O   O10       1.0  0.9217561102886194  0.06923570812513435  0.742732379047773  1.0000
  O   O11       1.0  0.7652053418042613  0.24669587196761003  0.5653013023470024  1.0000
  O   O12       1.0  0.07183625385135183  0.9300335132437496  0.25815162575700157  1.0000
  O   O13       1.0  0.05836680826288205  0.9287777576346699  0.7410468138896177  1.0000
  O   O14       1.0  0.7717488047310681  0.2444501686317508  0.42482536914224056  1.0000
  O   O15       1.0  0.9351448233323509  0.07017376640751384  0.2609116496731332  1.0000
  O   O16       1.0  0.23249314026031698  0.7632187810195674  0.5677846847171181  1.0000
  O   O17       1.0  0.9154875476560703  0.7775476596136884  0.7272942681376051  1.0000
  O   O18       1.0  0.2401458336198844  0.057176619666528  0.4388738026761487  1.0000
  O   O19       1.0  0.07991374213403193  0.23073833326952808  0.27398120024368205  1.0000
  O   O20       1.0  0.7638960086965483  0.9395410129594381  0.5551854086377617  1.0000
  O   O21       1.0  0.7578147040229625  0.07745637166703295  0.7347421707071717  1.0000
  O   O22       1.0  0.06571438291400271  0.7701488892966636  0.41770188858259155  1.0000
  O   O23       1.0  0.24592907369412856  0.9229339834005186  0.2661158932829082  1.0000
  O   O24       1.0  0.9301329286253477  0.23836513513599994  0.5731883356928974  1.0000
  O   O25       1.0  0.817301435463179  0.06854137914496042  0.5546069809651611  1.0000
  O   O26       1.0  0.05869515418680036  0.057846572085608734  0.565366841182481  1.0000
  O   O27       1.0  0.06667940784855383  0.05763060865683659  0.3197967272919159  1.0000
  O   O28       1.0  0.05545958145641099  0.8230737892364456  0.5542084408938521  1.0000
  O   O29       1.0  0.13422778802516436  0.9522137443416413  0.4571642826431983  1.0000
  O   O30       1.0  0.9563265988520233  0.9603297711292168  0.4489228215651622  1.0000
  O   O31       1.0  0.9582446555587367  0.13351403508443133  0.45744610144747366  1.0000
  O   O32       1.0  0.9500514858042739  0.9607703225768487  0.6303030117681273  1.0000
