data_image0
_chemical_formula_structural       Sm2H22C32N4O28
_chemical_formula_sum              "Sm2 H22 C32 N4 O28"
_cell_length_a       9.165691141525809
_cell_length_b       10.1276370392738
_cell_length_c       12.840345862176882
_cell_angle_alpha    69.84628365331876
_cell_angle_beta     67.57175632413373
_cell_angle_gamma    68.41455818060214

_space_group_name_H-M_alt    "P 1"
_space_group_IT_number       1

loop_
  _space_group_symop_operation_xyz
  'x, y, z'

loop_
  _atom_site_type_symbol
  _atom_site_label
  _atom_site_symmetry_multiplicity
  _atom_site_fract_x
  _atom_site_fract_y
  _atom_site_fract_z
  _atom_site_occupancy
  Sm  Sm1       1.0  0.6997861241095011  0.5293763597398424  0.5335165981561121  1.0000
  Sm  Sm2       1.0  0.300216605734498  0.4706192222787917  0.46648524656283313  1.0000
  H   H1        1.0  0.38270541362914684  0.7839284548983513  0.7598837751120656  1.0000
  H   H2        1.0  0.6172866340996209  0.21605017465805787  0.24011936378722967  1.0000
  H   H3        1.0  0.6155116598585272  0.9146377626009606  0.17647805602022273  1.0000
  H   H4        1.0  0.38447931341024605  0.08537773299510582  0.8235336715467982  1.0000
  H   H5        1.0  0.9880282668251968  0.9795743484822523  0.8488494340439561  1.0000
  H   H6        1.0  0.011950345144661898  0.020430415331667  0.15115057999349804  1.0000
  H   H7        1.0  0.08516758511735399  0.5907405399622689  0.11638933474819879  1.0000
  H   H8        1.0  0.914824433202675  0.40926919735778705  0.8836143963623971  1.0000
  H   H9        1.0  0.7910002794659479  0.1381882952649249  0.6413307105052584  1.0000
  H   H10       1.0  0.20901195002134917  0.8618141396813852  0.3586675361879088  1.0000
  H   H11       1.0  0.04026948366412607  0.6761255572314581  0.69241623853182  1.0000
  H   H12       1.0  0.9597439391174591  0.3238743800555924  0.3075714964803992  1.0000
  H   H13       1.0  0.31785303660709746  0.9950361490142614  0.5519045669859467  1.0000
  H   H14       1.0  0.6821624655053569  0.004957299740560506  0.44808679831456316  1.0000
  H   H15       1.0  0.7234629547692751  0.5933712275451909  0.7400674029397722  1.0000
  H   H16       1.0  0.2765441116500328  0.406628907001341  0.25993360062184223  1.0000
  H   H17       1.0  0.8910711112802971  0.48072874641923835  0.6963759058275161  1.0000
  H   H18       1.0  0.10893409441741406  0.519266801337622  0.3036221943752793  1.0000
  H   H19       1.0  0.6080391153203595  0.3107927605307665  0.7686728338586946  1.0000
  H   H20       1.0  0.39196402958215526  0.6891983343625012  0.2313270516960913  1.0000
  H   H21       1.0  0.4958993649148768  0.31703182606781866  0.6936492815769455  1.0000
  H   H22       1.0  0.5041058741284347  0.6829636993680308  0.30634803717403986  1.0000
  C   C1        1.0  0.7955679164201686  0.6614185650521661  0.28373944983833627  1.0000
  C   C2        1.0  0.20442897210617167  0.33858022931156023  0.7162645522356501  1.0000
  C   C3        1.0  0.8461110211116396  0.7443043695543209  0.16078519669893154  1.0000
  C   C4        1.0  0.15388282458438615  0.2557099768764174  0.8392222192222863  1.0000
  C   C5        1.0  0.7372380608711497  0.8744076456834192  0.12031926643710728  1.0000
  C   C6        1.0  0.26274693003494326  0.125601926569793  0.8796863208003033  1.0000
  C   C7        1.0  0.790339871753574  0.9544857000203347  0.007504723034465232  1.0000
  C   C8        1.0  0.20965128672816755  0.04552631174886561  0.9925017052390432  1.0000
  C   C9        1.0  0.9486063606278852  0.9113254512157596  0.9348704146897123  1.0000
  C   C10       1.0  0.05138099123449543  0.0886808038379243  0.06513316180426193  1.0000
  C   C11       1.0  0.053585279410469956  0.7780282150255928  0.9746809945852279  1.0000
  C   C12       1.0  0.9464060309386467  0.22198033523773825  0.025320915846570896  1.0000
  C   C13       1.0  0.0017357780402493005  0.6943050058301806  0.08693218316941653  1.0000
  C   C14       1.0  0.9982577044278361  0.30571043318310837  0.913075018429652  1.0000
  C   C15       1.0  0.21917099768411671  0.7188431199867722  0.8971970699474385  1.0000
  C   C16       1.0  0.7808062205039479  0.2811416061952627  0.10280271575553002  1.0000
  C   C17       1.0  0.06432700002382323  0.2381647697324851  0.5457403672130783  1.0000
  C   C18       1.0  0.9356825755947964  0.7618353082312693  0.4542561103805769  1.0000
  C   C19       1.0  0.05588105993431471  0.08220249933435748  0.5914812064098813  1.0000
  C   C20       1.0  0.9441306283100703  0.9177986369501737  0.408511312345482  1.0000
  C   C21       1.0  0.9045758359547237  0.050431365925582804  0.6360656474856441  1.0000
  C   C22       1.0  0.09543433273738357  0.9495666161571348  0.3639343845595208  1.0000
  C   C23       1.0  0.9030975753486173  0.9042951701408554  0.6746413364690728  1.0000
  C   C24       1.0  0.09691129229909023  0.0957037207661813  0.3253533204457924  1.0000
  C   C25       1.0  0.04606878650215421  0.7888852852680799  0.6657376059087811  1.0000
  C   C26       1.0  0.9539438913892656  0.2111126402318533  0.3342579001684315  1.0000
  C   C27       1.0  0.19613465180143672  0.8228905403223408  0.6197918171292898  1.0000
  C   C28       1.0  0.8038810134146602  0.17710951895002583  0.3801976435293996  1.0000
  C   C29       1.0  0.2008452810005966  0.9685592920388966  0.5860234672829847  1.0000
  C   C30       1.0  0.7991642315004769  0.0314416776182895  0.4139657629223024  1.0000
  C   C31       1.0  0.35557564485833393  0.7070273071403931  0.6029218990575985  1.0000
  C   C32       1.0  0.6444322998842367  0.2929671807351966  0.39707501530659783  1.0000
  N   N1        1.0  0.6758542652129266  0.090067272642969  0.9639759334557285  1.0000
  N   N2        1.0  0.32413145214905376  0.9099401144451563  0.03603008242598085  1.0000
  N   N3        1.0  0.7443977357799839  0.8707164938296683  0.7209667571994702  1.0000
  N   N4        1.0  0.25561503857458945  0.1292805176558218  0.2790352148143073  1.0000
  O   O1        1.0  0.6469778838896405  0.699461743497153  0.3453875533035315  1.0000
  O   O2        1.0  0.35301656212858756  0.30053706280732945  0.6546194118347941  1.0000
  O   O3        1.0  0.900856995360684  0.5557089893619389  0.3275790020963641  1.0000
  O   O4        1.0  0.09914284714473347  0.4442919610952316  0.6724197360109019  1.0000
  O   O5        1.0  0.2807366421263708  0.5881622214747324  0.9016074804023972  1.0000
  O   O6        1.0  0.7192103905979937  0.4118367491975831  0.0983804815528019  1.0000
  O   O7        1.0  0.28814821235699395  0.8255001066361984  0.8222504919885626  1.0000
  O   O8        1.0  0.7118444581665176  0.17448312684076228  0.177757422527634  1.0000
  O   O9        1.0  0.7336420526306713  0.1692856301741443  0.8684400708833808  1.0000
  O   O10       1.0  0.2663422005832603  0.8307160552207548  0.13156247450984895  1.0000
  O   O11       1.0  0.5304388902474034  0.11862315430766301  0.021842300524447463  1.0000
  O   O12       1.0  0.469548773012349  0.8813854027063002  0.9781636637779698  1.0000
  O   O13       1.0  0.9314368061009121  0.33764122253715817  0.5417836390648959  1.0000
  O   O14       1.0  0.06856961903867649  0.6623576803106275  0.4582139809143158  1.0000
  O   O15       1.0  0.20418383407154297  0.25986467790831813  0.512441886796289  1.0000
  O   O16       1.0  0.7958248037306108  0.7401352162972116  0.48754942998922246  1.0000
  O   O17       1.0  0.4702615943637556  0.7156383360496078  0.6312602156308388  1.0000
  O   O18       1.0  0.5297502940049269  0.28435509713482787  0.3687344220884868  1.0000
  O   O19       1.0  0.37801036107066494  0.6055650265368369  0.5563812051202748  1.0000
  O   O20       1.0  0.6219973205314633  0.39442291778424726  0.4436199582411506  1.0000
  O   O21       1.0  0.7403295845086577  0.7452460645849184  0.7815491192431953  1.0000
  O   O22       1.0  0.2596830564635156  0.25475103618461487  0.21845597857779359  1.0000
  O   O23       1.0  0.624225808485143  0.967997369335258  0.6965459507850229  1.0000
  O   O24       1.0  0.3757857946337709  0.0319996146390977  0.3034563305832237  1.0000
  O   O25       1.0  0.7714675806610175  0.5086288064982654  0.7056633958543517  1.0000
  O   O26       1.0  0.22853595719069397  0.49136789561404715  0.2943379251879747  1.0000
  O   O27       1.0  0.5850699393995102  0.3509173995211441  0.6935084107513704  1.0000
  O   O28       1.0  0.4149328571356891  0.6490781378554613  0.3064918710639618  1.0000
