data_image0
_chemical_formula_structural       CaH28PbC32S4O14
_chemical_formula_sum              "Ca1 H28 Pb1 C32 S4 O14"
_cell_length_a       8.244551739275176
_cell_length_b       8.805385526396718
_cell_length_c       13.051644015455697
_cell_angle_alpha    106.84460871757054
_cell_angle_beta     105.39826261395343
_cell_angle_gamma    98.51173506807446

_space_group_name_H-M_alt    "P 1"
_space_group_IT_number       1

loop_
  _space_group_symop_operation_xyz
  'x, y, z'

loop_
  _atom_site_type_symbol
  _atom_site_label
  _atom_site_symmetry_multiplicity
  _atom_site_fract_x
  _atom_site_fract_y
  _atom_site_fract_z
  _atom_site_occupancy
  Ca  Ca1       1.0  0.9999977380366686  0.5000102620057945  0.9999911530496561  1.0000
  H   H1        1.0  0.8960541696114036  0.257215782576516  0.7493760612016305  1.0000
  H   H2        1.0  0.853699888373434  0.4919174722992208  0.7493182271026414  1.0000
  H   H3        1.0  0.10394956845667015  0.7427996377459534  0.2505907798427316  1.0000
  H   H4        1.0  0.14632141383444966  0.5080981202099721  0.2507174993297809  1.0000
  H   H5        1.0  0.9362236744531315  0.04330308923105259  0.5941415111047733  1.0000
  H   H6        1.0  0.6581835009201383  0.5505574624159876  0.5939961470057611  1.0000
  H   H7        1.0  0.06376548791035924  0.9567144843837453  0.40583021152875187  1.0000
  H   H8        1.0  0.3418259297431873  0.44949170349807593  0.4060689105956855  1.0000
  H   H9        1.0  0.4212231965664444  0.7538504399668255  0.5201782414366747  1.0000
  H   H10       1.0  0.09892803845385598  0.7670090466173036  0.5199217754997392  1.0000
  H   H11       1.0  0.5788001112182287  0.2461375010467179  0.4798315266858781  1.0000
  H   H12       1.0  0.9010556037727397  0.23302212979060494  0.48010388150132144  1.0000
  H   H13       1.0  0.37937122853557526  0.9770955938967629  0.6766330102791259  1.0000
  H   H14       1.0  0.2972747331489032  0.7000115793257534  0.6763008599961112  1.0000
  H   H15       1.0  0.6206302004382137  0.022920748171244995  0.32334818792176634  1.0000
  H   H16       1.0  0.7027223678985662  0.2999567878573827  0.32368827192917854  1.0000
  H   H17       1.0  0.3011165892188998  0.9864051925940415  0.8859459382923307  1.0000
  H   H18       1.0  0.5853091521033846  0.8996437529321497  0.8856914818783111  1.0000
  H   H19       1.0  0.6988368885381532  0.013580328447886796  0.1140753491684023  1.0000
  H   H20       1.0  0.4146502037094635  0.10034497679213669  0.11429389896252931  1.0000
  H   H21       1.0  0.1193341725253276  0.03813502346005039  0.8066176034054708  1.0000
  H   H22       1.0  0.6881145822313499  0.7686708478607328  0.8066520376329224  1.0000
  H   H23       1.0  0.8806537409100625  0.9618879031713161  0.19339407293332297  1.0000
  H   H24       1.0  0.3119133201787321  0.23136113730037514  0.1933636031229469  1.0000
  H   H25       1.0  0.08862242890140944  0.9167651692933275  0.8948513350678979  1.0000
  H   H26       1.0  0.8067963126286345  0.9781109400001854  0.8947465796140225  1.0000
  H   H27       1.0  0.9113060641614226  0.08326680451629186  0.1051560142365773  1.0000
  H   H28       1.0  0.19317078713466876  0.0219297032914554  0.10528434501345883  1.0000
  Pb  Pb1       1.0  0.5000031831643383  0.499981546751833  6.365447838145842e-06  1.0000
  C   C1        1.0  0.6088336170161951  0.254317464656836  0.8195231088617447  1.0000
  C   C2        1.0  0.21092135829245962  0.5651936117823696  0.8193383639062404  1.0000
  C   C3        1.0  0.3911683715634808  0.7456961411291657  0.18047371964490824  1.0000
  C   C4        1.0  0.7891271637523971  0.43469758561176514  0.18062461125963844  1.0000
  C   C5        1.0  0.6342215133242634  0.128673101203006  0.7227374297879694  1.0000
  C   C6        1.0  0.08865470059564017  0.5941401895086995  0.7225183705506311  1.0000
  C   C7        1.0  0.3657740681172328  0.8713603019196653  0.2772439458984691  1.0000
  C   C8        1.0  0.9113525656281565  0.40581842610504276  0.2774758571525595  1.0000
  C   C9        1.0  0.7905577088919884  0.1487665679848647  0.6988656118346767  1.0000
  C   C10       1.0  0.9085400293478259  0.5500187933178393  0.6987271706016146  1.0000
  C   C11       1.0  0.2094253797089037  0.8512620358284834  0.3011011961155603  1.0000
  C   C12       1.0  0.09148833680413294  0.44998969890888657  0.30130064160161396  1.0000
  C   C13       1.0  0.8140413236012307  0.028091376109777886  0.6118825201797551  1.0000
  C   C14       1.0  0.7980672578372392  0.5836795246598143  0.6117020476062366  1.0000
  C   C15       1.0  0.18595451061357685  0.9719226380909091  0.388088070218032  1.0000
  C   C16       1.0  0.20196366220931586  0.41634954930173507  0.388340328724155  1.0000
  C   C17       1.0  0.6802494358905093  0.8870828571464243  0.5493976838777428  1.0000
  C   C18       1.0  0.8691921643538478  0.6624706103728144  0.5491564385941531  1.0000
  C   C19       1.0  0.319758238674801  0.1129384038537751  0.450587094580989  1.0000
  C   C20       1.0  0.13079761366763165  0.3375446849961462  0.4508716274009217  1.0000
  C   C21       1.0  0.5230868310981691  0.8649227609511383  0.5709927804713715  1.0000
  C   C22       1.0  0.04790272677243477  0.7064790895308378  0.5707477234158348  1.0000
  C   C23       1.0  0.47691986589604335  0.1350691070361307  0.428991237036918  1.0000
  C   C24       1.0  0.95210189199517  0.2935351603635539  0.4292818601272615  1.0000
  C   C25       1.0  0.5005286052758889  0.9876423232916236  0.6575438051547663  1.0000
  C   C26       1.0  0.15706246625799025  0.6701630462356574  0.6572564934926106  1.0000
  C   C27       1.0  0.49946999215138993  0.012377792320656096  0.3424300196447164  1.0000
  C   C28       1.0  0.8429407904834675  0.3298150040825191  0.34274329956895144  1.0000
  C   C29       1.0  0.17554445367215268  0.014358214306717795  0.8847538524857939  1.0000
  C   C30       1.0  0.7097735777236095  0.8705094298063755  0.8846960180127468  1.0000
  C   C31       1.0  0.8244198566778138  0.9856557875148224  0.11525894090873834  1.0000
  C   C32       1.0  0.29020327025151715  0.12951455427545966  0.1153163105822088  1.0000
  S   S1        1.0  0.7253031355646796  0.7256173233020958  0.4507266568246919  1.0000
  S   S2        1.0  0.2747052803875647  0.27437150435051894  0.5492899815966155  1.0000
  S   S3        1.0  0.2166864396179804  0.20132443475167608  0.9999529555048455  1.0000
  S   S4        1.0  0.7832895823805898  0.7986910862446804  5.292061977266323e-05  1.0000
  O   O1        1.0  0.47746102386440004  0.21763341460533067  0.8480562658324119  1.0000
  O   O2        1.0  0.37077005980595595  0.6301397147316476  0.8476940201763485  1.0000
  O   O3        1.0  0.522538932944471  0.7823718877519141  0.15192474491189503  1.0000
  O   O4        1.0  0.6292884078356379  0.36966930141902304  0.15221794975787623  1.0000
  O   O5        1.0  0.7227463624475376  0.39187952475818827  0.8689643234462212  1.0000
  O   O6        1.0  0.14653921907024878  0.4771870405730495  0.8689928149896246  1.0000
  O   O7        1.0  0.27723039397936583  0.6081388472156775  0.13102079956567536  1.0000
  O   O8        1.0  0.8535019829352849  0.5227561380015758  0.13100092449396786  1.0000
  O   O9        1.0  0.5674340423526089  0.5968148965697463  0.3892683284374385  1.0000
  O   O10       1.0  0.8215027966413756  0.7930582000345368  0.3890412233409323  1.0000
  O   O11       1.0  0.43259594657180134  0.40316951390887107  0.6107387823863206  1.0000
  O   O12       1.0  0.1785356248971155  0.20690432578575008  0.6109636341354233  1.0000
  O   O13       1.0  0.04014557447655418  0.23570649551297856  0.9997555654984751  1.0000
  O   O14       1.0  0.9598303466785082  0.7643187993621081  0.0002515093470804943  1.0000
