data_image0
_chemical_formula_structural       Zn8H128C200N16O40
_chemical_formula_sum              "Zn8 H128 C200 N16 O40"
_cell_length_a       17.002740285609722
_cell_length_b       17.002534900222788
_cell_length_c       32.958123052175225
_cell_angle_alpha    88.06119952110673
_cell_angle_beta     88.06123136626245
_cell_angle_gamma    69.97892326602621

_space_group_name_H-M_alt    "P 1"
_space_group_IT_number       1

loop_
  _space_group_symop_operation_xyz
  'x, y, z'

loop_
  _atom_site_type_symbol
  _atom_site_label
  _atom_site_symmetry_multiplicity
  _atom_site_fract_x
  _atom_site_fract_y
  _atom_site_fract_z
  _atom_site_occupancy
  Zn  Zn1       1.0  0.14552861409347884  0.685417769667467  0.5572020195220942  1.0000
  Zn  Zn2       1.0  0.6854172513690174  0.1455366630360544  0.05719902911667418  1.0000
  Zn  Zn3       1.0  0.8544621285263433  0.31458334995895154  0.4428003002135553  1.0000
  Zn  Zn4       1.0  0.314584749362453  0.8544612187849056  0.9428004089502975  1.0000
  Zn  Zn5       1.0  0.20516909885389376  0.13545409303382175  0.8123544361256663  1.0000
  Zn  Zn6       1.0  0.13546309121596778  0.20516742075412248  0.3123499158587606  1.0000
  Zn  Zn7       1.0  0.794835445447852  0.8645358858233866  0.18764904720809739  1.0000
  Zn  Zn8       1.0  0.8645370123141874  0.794836989919851  0.6876497384720819  1.0000
  H   H1        1.0  0.22049335373329632  0.7123779580244617  0.709868969181521  1.0000
  H   H2        1.0  0.7123815262914307  0.22049526362912528  0.2098687468314964  1.0000
  H   H3        1.0  0.7795092822744323  0.2876173562851038  0.2901308086609191  1.0000
  H   H4        1.0  0.2876198406501089  0.7795057783436763  0.7901312505311678  1.0000
  H   H5        1.0  0.2194013574160891  0.5554633377342172  0.7055009802621727  1.0000
  H   H6        1.0  0.5554675906995572  0.21940310408704994  0.20549922673632884  1.0000
  H   H7        1.0  0.7806075320309419  0.4445322129251039  0.2944986754631884  1.0000
  H   H8        1.0  0.4445325144980005  0.7806001259459237  0.7944998429452141  1.0000
  H   H9        1.0  0.18133568482691945  0.36588638973744736  0.5856256816396339  1.0000
  H   H10       1.0  0.3658993964146689  0.18133062545224019  0.0856257078062583  1.0000
  H   H11       1.0  0.8186694534264377  0.6341080741352275  0.4143734582872368  1.0000
  H   H12       1.0  0.6341057567735862  0.8186614887381156  0.9143752965546668  1.0000
  H   H13       1.0  0.15177856810450413  0.390150417831336  0.5063186451250417  1.0000
  H   H14       1.0  0.3901557464324057  0.15177734639807045  0.006318441616720296  1.0000
  H   H15       1.0  0.8482215525353356  0.6098492807183361  0.4936814009680006  1.0000
  H   H16       1.0  0.6098494142232909  0.8482135929511188  0.9936834949612318  1.0000
  H   H17       1.0  0.1118886032239459  0.6460281074340986  0.4003227399752802  1.0000
  H   H18       1.0  0.6460223602260058  0.11190403064466656  0.9003190642635059  1.0000
  H   H19       1.0  0.8880864841931527  0.3539794935642462  0.5996803592161797  1.0000
  H   H20       1.0  0.3539783711129659  0.8880989873590649  0.0996799976257847  1.0000
  H   H21       1.0  0.11354703950025422  0.803272268225122  0.4052400453687781  1.0000
  H   H22       1.0  0.8032699265970892  0.11355462715049924  0.9052373676175163  1.0000
  H   H23       1.0  0.8864386853608155  0.19673172131638245  0.5947611011146704  1.0000
  H   H24       1.0  0.1967339477375063  0.8864443872243156  0.0947623173000807  1.0000
  H   H25       1.0  0.16436781074731505  0.9863894684741226  0.5227752671259437  1.0000
  H   H26       1.0  0.986384264068761  0.16437316200470067  0.022771816573253997  1.0000
  H   H27       1.0  0.8356285568503808  0.013612097211350333  0.4772263315383611  1.0000
  H   H28       1.0  0.013615847943618998  0.8356277102261632  0.9772269939294986  1.0000
  H   H29       1.0  0.19085075778960464  0.9634963582834786  0.6031056164251253  1.0000
  H   H30       1.0  0.9634949105452649  0.19085220254645213  0.10310216733608969  1.0000
  H   H31       1.0  0.8091518816981492  0.036498959505991045  0.39689507153710923  1.0000
  H   H32       1.0  0.0365045713382841  0.8091500600347175  0.8968966288616825  1.0000
  H   H33       1.0  0.07851854614138182  0.9268344333746941  0.6748600983367011  1.0000
  H   H34       1.0  0.9268342742718121  0.07851800903740275  0.1748593951221267  1.0000
  H   H35       1.0  0.9214803099270696  0.0731686327161825  0.3251393013512427  1.0000
  H   H36       1.0  0.073168969607643  0.9214818042072467  0.825139679792585  1.0000
  H   H37       1.0  0.11028129430305712  0.0107211099744688  0.7290216120788457  1.0000
  H   H38       1.0  0.0107297562308162  0.11027936962479153  0.22901710225435315  1.0000
  H   H39       1.0  0.8897238563840947  0.9892727751773904  0.27098026925602164  1.0000
  H   H40       1.0  0.9892759744519996  0.8897231246662686  0.770980358333297  1.0000
  H   H41       1.0  0.37255378220283575  0.8679213037074408  0.7162072063674074  1.0000
  H   H42       1.0  0.8679298388416116  0.3725553455268269  0.21620446983850883  1.0000
  H   H43       1.0  0.6274507513325105  0.1320680732295757  0.2837929509090741  1.0000
  H   H44       1.0  0.13206776976512202  0.6274463759809593  0.7837946752065506  1.0000
  H   H45       1.0  0.34082590088861053  0.784317555571832  0.6620389276349883  1.0000
  H   H46       1.0  0.7843195049028183  0.34082683092928795  0.16203996652476593  1.0000
  H   H47       1.0  0.6591723506428977  0.21567865030194616  0.3379600056821062  1.0000
  H   H48       1.0  0.21567687034339403  0.6591717866335786  0.8379610806360986  1.0000
  H   H49       1.0  0.3499673301828707  0.006511332298053724  0.7930573366725253  1.0000
  H   H50       1.0  0.006524433055005799  0.3499702044606394  0.2930514323625815  1.0000
  H   H51       1.0  0.6500359450885258  0.9934802361790391  0.2069428030426295  1.0000
  H   H52       1.0  0.9934856237055457  0.6500390248740048  0.7069382346669997  1.0000
  H   H53       1.0  0.0862031975947275  0.5068881868144502  0.6868411178904951  1.0000
  H   H54       1.0  0.5069030036661745  0.08618834101791607  0.1868352324934008  1.0000
  H   H55       1.0  0.9138107260322741  0.49310273688789885  0.3131624745923034  1.0000
  H   H56       1.0  0.4931008841169913  0.9138077310341401  0.8131654177870827  1.0000
  H   H57       1.0  0.10288148323913053  0.3927823047649852  0.7365708812133531  1.0000
  H   H58       1.0  0.3927947584575905  0.10286135632324538  0.2365636187785896  1.0000
  H   H59       1.0  0.8971361958952714  0.607209118883418  0.26343384486308  1.0000
  H   H60       1.0  0.6072041157352998  0.8971346340413933  0.7634343966264509  1.0000
  H   H61       1.0  0.3350615954584413  0.24723476194102298  0.6765527026989133  1.0000
  H   H62       1.0  0.24723898772321465  0.3350473949465993  0.17655123812031798  1.0000
  H   H63       1.0  0.6649529084905268  0.7527653623809986  0.323447064734573  1.0000
  H   H64       1.0  0.7527605132995561  0.664945428306389  0.8234443977494478  1.0000
  H   H65       1.0  0.3171255021271193  0.3653779684763094  0.626398345091161  1.0000
  H   H66       1.0  0.3653796527803124  0.3171205588076519  0.12639797154835722  1.0000
  H   H67       1.0  0.6828814863122546  0.6346235160756494  0.37360002108037077  1.0000
  H   H68       1.0  0.6346217294582672  0.6828745869199366  0.8736009228074337  1.0000
  H   H69       1.0  0.12489039902956732  0.2921171337660554  0.7652337613935174  1.0000
  H   H70       1.0  0.2921218991197634  0.12488186355555089  0.2652297597320937  1.0000
  H   H71       1.0  0.8751185104997745  0.7078748900498439  0.23476808423639986  1.0000
  H   H72       1.0  0.7078719328824904  0.8751252484515463  0.7347678378598912  1.0000
  H   H73       1.0  0.9952089197870466  0.5731218054907005  0.4393798127725077  1.0000
  H   H74       1.0  0.5731253199186457  0.9952123624712567  0.9393782859622773  1.0000
  H   H75       1.0  0.0047862061848178  0.42687428336817135  0.5606194849763924  1.0000
  H   H76       1.0  0.42687418139459515  0.004785190305554548  0.06062150874423371  1.0000
  H   H77       1.0  0.9789479885653878  0.4895405732040817  0.3817357112793544  1.0000
  H   H78       1.0  0.4895436127806932  0.9789491319195424  0.8817348416556853  1.0000
  H   H79       1.0  0.021052100392033403  0.5104626405893243  0.6182591111764992  1.0000
  H   H80       1.0  0.5104539926723248  0.02105317758880432  0.11826398896749171  1.0000
  H   H81       1.0  0.2411148724840474  0.34438164062309073  0.3844543063409063  1.0000
  H   H82       1.0  0.34438518374162913  0.2411183178586143  0.8844515796983359  1.0000
  H   H83       1.0  0.7588927188248676  0.6556278847869665  0.6155451108507746  1.0000
  H   H84       1.0  0.6556180577819719  0.7588856311094575  0.1155504516086907  1.0000
  H   H85       1.0  0.25800104487061054  0.4285959822394293  0.44225951058867  1.0000
  H   H86       1.0  0.42859841205460475  0.258008417963822  0.9422573396703057  1.0000
  H   H87       1.0  0.7419946698337727  0.5714140448827083  0.5577422445605149  1.0000
  H   H88       1.0  0.5714054670652686  0.7419929658127844  0.057745638158721094  1.0000
  H   H89       1.0  0.0024389854106274993  0.9748936840308252  0.46576175888240806  1.0000
  H   H90       1.0  0.9748915161743241  0.0024410182805567836  0.9657628311512242  1.0000
  H   H91       1.0  0.9975517326679227  0.025109184517688714  0.5342356737351678  1.0000
  H   H92       1.0  0.025111117005991408  0.9975554755100408  0.03423722796724599  1.0000
  H   H93       1.0  0.9949926051525325  0.08956080884065205  0.4155051895798465  1.0000
  H   H94       1.0  0.0895606416620112  0.9949938814566933  0.9155067937069887  1.0000
  H   H95       1.0  0.004998119740832901  0.9104397019057587  0.5844919838589462  1.0000
  H   H96       1.0  0.9104438734225724  0.005001979726095811  0.0844941521544911  1.0000
  H   H97       1.0  0.2581069374563825  0.9749390204133661  0.3878611649689674  1.0000
  H   H98       1.0  0.9749386302595726  0.2581116018700058  0.8878597199152478  1.0000
  H   H99       1.0  0.7418831732219789  0.025062305442439353  0.6121396456926291  1.0000
  H   H100      1.0  0.0250652573425185  0.7418862434634973  0.11214241408568877  1.0000
  H   H101      1.0  0.26650029932559255  0.861986629045056  0.44022739834461777  1.0000
  H   H102      1.0  0.861985016365523  0.2665042562209124  0.9402256828592002  1.0000
  H   H103      1.0  0.7334916854632854  0.1380146475636367  0.5597727711450489  1.0000
  H   H104      1.0  0.1380138662737522  0.7334923337439749  0.05977505185659739  1.0000
  H   H105      1.0  0.9861666973695267  0.7686940862275335  0.591966686379166  1.0000
  H   H106      1.0  0.7686852200400835  0.9861722804659228  0.0919653957417381  1.0000
  H   H107      1.0  0.013823394858079003  0.23131372387404536  0.4080349128674285  1.0000
  H   H108      1.0  0.23130803015387616  0.013825038281069608  0.9080351278283842  1.0000
  H   H109      1.0  0.8965312949732366  0.714557363847554  0.5641264313750086  1.0000
  H   H110      1.0  0.7145489367058817  0.8965345767289182  0.0641263904225156  1.0000
  H   H111      1.0  0.10345878101423268  0.28545043001446413  0.4358709206458897  1.0000
  H   H112      1.0  0.2854405551532794  0.10346342155305173  0.9358732808299877  1.0000
  H   H113      1.0  0.9774367897735915  0.6575969086776824  0.529903740381755  1.0000
  H   H114      1.0  0.6575897586463668  0.9774406941289515  0.029901839395577688  1.0000
  H   H115      1.0  0.0225576779764651  0.3424105920603965  0.4700968721019834  1.0000
  H   H116      1.0  0.34240097385968243  0.022561006538211362  0.9700983456786146  1.0000
  H   H117      1.0  0.8942667369810454  0.8495340051794005  0.5269808192015261  1.0000
  H   H118      1.0  0.8495277738040274  0.8942693292507756  0.026984091260317204  1.0000
  H   H119      1.0  0.1057339817430574  0.15047136482659343  0.4730169850002284  1.0000
  H   H120      1.0  0.1504654604044333  0.10573684082383754  0.973019907059701  1.0000
  H   H121      1.0  0.9685763765099227  0.7879394655314375  0.4911289128542435  1.0000
  H   H122      1.0  0.7879366988061706  0.9685800597335543  0.9911311473420951  1.0000
  H   H123      1.0  0.0314224740847848  0.2120641862400703  0.5088695656653002  1.0000
  H   H124      1.0  0.2120559082819398  0.03142454792887861  0.0088710716764524  1.0000
  H   H125      1.0  0.8047885856242942  0.7828245164349713  0.5057984312379914  1.0000
  H   H126      1.0  0.7828207840350033  0.8047930517688684  0.005798284052779908  1.0000
  H   H127      1.0  0.19520838205137644  0.21718213154628072  0.49420093658365266  1.0000
  H   H128      1.0  0.21717495144015694  0.19521049342743882  0.994203289257939  1.0000
  C   C1        1.0  0.17676810121409406  0.8381874171908097  0.5931767727878992  1.0000
  C   C2        1.0  0.838185102082271  0.1767727320354311  0.09317479409877899  1.0000
  C   C3        1.0  0.823223877919972  0.1618162183799541  0.4068239592538205  1.0000
  C   C4        1.0  0.16181689864919951  0.8232251497855289  0.9068246439681928  1.0000
  C   C5        1.0  0.19049451209386356  0.8007930429234095  0.6322686454753921  1.0000
  C   C6        1.0  0.8007933942517198  0.19049277880071014  0.13226855546268007  1.0000
  C   C7        1.0  0.8095049780908287  0.1992074544960971  0.3677307906147718  1.0000
  C   C8        1.0  0.19920673352925183  0.8095051534273312  0.8677318271494838  1.0000
  C   C9        1.0  0.19320633572847612  0.7191916541103184  0.6429575526214604  1.0000
  C   C10       1.0  0.7191941778057895  0.1932104907582471  0.14295639836625904  1.0000
  C   C11       1.0  0.8067894090625956  0.2808077623223895  0.3570428845365186  1.0000
  C   C12       1.0  0.28080781926458104  0.8067891608642557  0.8570436133013857  1.0000
  C   C13       1.0  0.20963583897788143  0.6818043398476664  0.6833116173322793  1.0000
  C   C14       1.0  0.6818083470193415  0.20963817508866375  0.18331107474514846  1.0000
  C   C15       1.0  0.7903649122981733  0.3181927865507391  0.3166875550431882  1.0000
  C   C16       1.0  0.3181930124547493  0.7903640417252974  0.8166879904004956  1.0000
  C   C17       1.0  0.20874863239686195  0.6020798701763045  0.6810894667324447  1.0000
  C   C18       1.0  0.6020835946542252  0.2087513101750673  0.18108740378620777  1.0000
  C   C19       1.0  0.7912546146363156  0.397919355067785  0.3189099226041492  1.0000
  C   C20       1.0  0.39791839777610255  0.7912483368075556  0.8189113943883796  1.0000
  C   C21       1.0  0.1913272675119444  0.5904284337117363  0.639355680035379  1.0000
  C   C22       1.0  0.590431894310882  0.1913327178096793  0.1393538734598323  1.0000
  C   C23       1.0  0.8086703533833486  0.4095703443133161  0.3606441269992899  1.0000
  C   C24       1.0  0.4095694751317539  0.8086665532016117  0.8606452469288967  1.0000
  C   C25       1.0  0.1895492767805322  0.5147800511512488  0.6238294436284518  1.0000
  C   C26       1.0  0.5147859151337927  0.18955124521946234  0.123827351901113  1.0000
  C   C27       1.0  0.8104527348984122  0.4852166593084563  0.3761718367753345  1.0000
  C   C28       1.0  0.4852160859239945  0.8104472280819692  0.8761726818637638  1.0000
  C   C29       1.0  0.1785214282525942  0.5002150276844263  0.5828336238717426  1.0000
  C   C30       1.0  0.5002199468673113  0.17852531971241356  0.0828306033894748  1.0000
  C   C31       1.0  0.8214755746213527  0.4997839704896521  0.4171683145680376  1.0000
  C   C32       1.0  0.4997826811655841  0.8214723512392796  0.9171691302585003  1.0000
  C   C33       1.0  0.17503223610479074  0.42235124800011187  0.5676986476466793  1.0000
  C   C34       1.0  0.42235948619652675  0.1750296114660089  0.0676968989489097  1.0000
  C   C35       1.0  0.8249691451190132  0.5776462613294272  0.4323020227542216  1.0000
  C   C36       1.0  0.5776444064077497  0.8249646919444873  0.9323034811041566  1.0000
  C   C37       1.0  0.16001183121645823  0.43474453268673585  0.5271026543513315  1.0000
  C   C38       1.0  0.43474973458133104  0.1600114048801515  0.0271015290085614  1.0000
  C   C39       1.0  0.8399882905833852  0.5652551670229116  0.4728976951149804  1.0000
  C   C40       1.0  0.5652541651640844  0.8399811322087062  0.9728991875636267  1.0000
  C   C41       1.0  0.15438831369987582  0.5200716154009584  0.5171493870990318  1.0000
  C   C42       1.0  0.5200754094172383  0.15439081778519892  0.017145808268878696  1.0000
  C   C43       1.0  0.8456093116543857  0.4799289405454132  0.48285311714916185  1.0000
  C   C44       1.0  0.4799265916405489  0.845607655516233  0.9828542254960054  1.0000
  C   C45       1.0  0.13788871513617104  0.5580481525055137  0.47827108328432644  1.0000
  C   C46       1.0  0.558050451044366  0.13789145249920423  0.9782690089187583  1.0000
  C   C47       1.0  0.862107022332694  0.44195480353026534  0.5217305010750052  1.0000
  C   C48       1.0  0.44195217416112353  0.8621073979335208  0.02173100600523981  1.0000
  C   C49       1.0  0.13141880556017332  0.6411364004249265  0.4679808213666233  1.0000
  C   C50       1.0  0.6411365732418448  0.13142772103276465  0.9679771561225151  1.0000
  C   C51       1.0  0.8685681762237537  0.3588671696979804  0.5320215230253637  1.0000
  C   C52       1.0  0.35886354573059265  0.8685731581579148  0.0320234746198196  1.0000
  C   C53       1.0  0.11927057480430393  0.6775543789547457  0.4272625367927958  1.0000
  C   C54       1.0  0.6775492279301077  0.11928383871894253  0.9272588912360575  1.0000
  C   C55       1.0  0.8807101419043876  0.3224530812620615  0.5727404591224712  1.0000
  C   C56       1.0  0.32245088042117237  0.8807188033134637  0.0727404928673678  1.0000
  C   C57       1.0  0.12037019294282203  0.757241063109824  0.429713515432617  1.0000
  C   C58       1.0  0.7572366381405262  0.12037932373927861  0.9297111498116379  1.0000
  C   C59       1.0  0.8796136486728869  0.24276533116095347  0.5702879246550195  1.0000
  C   C60       1.0  0.24276411661555394  0.879617806139031  0.0702889326836171  1.0000
  C   C61       1.0  0.1334372238733792  0.7697020555444922  0.47186748420022445  1.0000
  C   C62       1.0  0.769701217592882  0.13344449340410594  0.9718650860895154  1.0000
  C   C63       1.0  0.8665516248799322  0.23030323165292552  0.5281338825007182  1.0000
  C   C64       1.0  0.23030392497420143  0.8665493836279696  0.028134671632500392  1.0000
  C   C65       1.0  0.14045461931906536  0.8433121290668597  0.48689929667179394  1.0000
  C   C66       1.0  0.8433126959873649  0.14046049108112157  0.986895686588376  1.0000
  C   C67       1.0  0.859536115833322  0.15669016540071837  0.5131020908468287  1.0000
  C   C68       1.0  0.1566905570269341  0.8595369666813611  0.013103735894070202  1.0000
  C   C69       1.0  0.15478519638453045  0.8570211976785843  0.5273848481128454  1.0000
  C   C70       1.0  0.8570185109588807  0.15479289737832158  0.0273840334338189  1.0000
  C   C71       1.0  0.8452024057407712  0.14298215461523273  0.47261597162055574  1.0000
  C   C72       1.0  0.1429841193940362  0.8452047758933077  0.9726163069606812  1.0000
  C   C73       1.0  0.16597612835395384  0.9321488850582473  0.54155042216734  1.0000
  C   C74       1.0  0.9321427378938054  0.1659829775883921  0.041548173301286795  1.0000
  C   C75       1.0  0.834015852773817  0.06785416135198125  0.45845032092299925  1.0000
  C   C76       1.0  0.06785738589974953  0.8340161329607199  0.9584521872136448  1.0000
  C   C77       1.0  0.17945346181957691  0.920560944288518  0.5823423472634274  1.0000
  C   C78       1.0  0.920553960730324  0.17945665337146013  0.08234139594101458  1.0000
  C   C79       1.0  0.8205428920032389  0.07944297223924933  0.4176576903400928  1.0000
  C   C80       1.0  0.0794442818115826  0.820544272746396  0.9176592692267247  1.0000
  C   C81       1.0  0.20784437515438733  0.8507050920374655  0.6649186297749237  1.0000
  C   C82       1.0  0.8507085647885049  0.2078428386840657  0.1649172645498993  1.0000
  C   C83       1.0  0.7921563807617034  0.14929203900081234  0.3350817560935937  1.0000
  C   C84       1.0  0.149292802660419  0.7921570214877606  0.83508184479021  1.0000
  C   C85       1.0  0.1428537990529932  0.9145880502999686  0.6838860358896852  1.0000
  C   C86       1.0  0.9145917595497864  0.14285513612878026  0.18388340201458667  1.0000
  C   C87       1.0  0.8571456957717345  0.08541245175941012  0.3161146136935287  1.0000
  C   C88       1.0  0.08541210332995063  0.8571462314082654  0.8161153285887508  1.0000
  C   C89       1.0  0.1603037605875528  0.9611957285505287  0.71401545013007  1.0000
  C   C90       1.0  0.9612032160966708  0.16030205064797093  0.21401067937690493  1.0000
  C   C91       1.0  0.8396988818728419  0.0388007745198138  0.2859870359745074  1.0000
  C   C92       1.0  0.03880251940725538  0.8396986750015147  0.785986510983335  1.0000
  C   C93       1.0  0.24323406071435022  0.9445807011181488  0.7255897048256017  1.0000
  C   C94       1.0  0.9445937829817839  0.24323374052695362  0.22558358625343536  1.0000
  C   C95       1.0  0.7567686036768395  0.055409321186331795  0.274412902813772  1.0000
  C   C96       1.0  0.05541194788210651  0.7567669804826594  0.7744123906137474  1.0000
  C   C97       1.0  0.3084210767758435  0.8803440931337078  0.706980254699772  1.0000
  C   C98       1.0  0.8803510324210324  0.3084238881972965  0.20697843706727775  1.0000
  C   C99       1.0  0.6915796927698923  0.11964832230036393  0.29301961281116456  1.0000
  C   C100      1.0  0.11964845145622148  0.6915777852233376  0.7930203701791213  1.0000
  C   C101      1.0  0.2905885131207172  0.8339486966149467  0.6769192799758983  1.0000
  C   C102      1.0  0.8339531503690767  0.2905901407948619  0.176918744270921  1.0000
  C   C103      1.0  0.7094116291235937  0.16604392968839216  0.3230802919540281  1.0000
  C   C104      1.0  0.1660463369882166  0.709411536105684  0.8230809730952728  1.0000
  C   C105      1.0  0.2612623470475626  0.9949744878199385  0.7572963814147469  1.0000
  C   C106      1.0  0.9949915898483185  0.2612607230766317  0.2572905160346579  1.0000
  C   C107      1.0  0.7387440844869531  0.005011907986919159  0.242706830412061  1.0000
  C   C108      1.0  0.005016009797579101  0.7387428991284043  0.7427059779105605  1.0000
  C   C109      1.0  0.20060731604615975  0.44409071310295894  0.6533838050300529  1.0000
  C   C110      1.0  0.4441008873249147  0.20060011011302953  0.1533821060025815  1.0000
  C   C111      1.0  0.7993990817764002  0.5559039251515189  0.3466177352497937  1.0000
  C   C112      1.0  0.5559030089404686  0.7993924234959241  0.8466177004498119  1.0000
  C   C113      1.0  0.1411737132674347  0.4503276249432775  0.6849437347621646  1.0000
  C   C114      1.0  0.4503407432801367  0.14116435403142455  0.18493838165444024  1.0000
  C   C115      1.0  0.8588339469517196  0.549666008211979  0.315059924594621  1.0000
  C   C116      1.0  0.5496618855864526  0.8588327265997648  0.8150610596688849  1.0000
  C   C117      1.0  0.15116140576529347  0.3843872072290112  0.7126845331823757  1.0000
  C   C118      1.0  0.38439834832392716  0.151146768870511  0.21267931450390168  1.0000
  C   C119      1.0  0.8488524984320093  0.615608426277696  0.2873180607916836  1.0000
  C   C120      1.0  0.6156005139067207  0.8488527564573256  0.7873186346094343  1.0000
  C   C121      1.0  0.22100372963145531  0.3105350479689193  0.7097249080527631  1.0000
  C   C122      1.0  0.310544205380701  0.2209935241353805  0.20971963937024188  1.0000
  C   C123      1.0  0.7790064205447822  0.6894606782321802  0.29027745139883615  1.0000
  C   C124      1.0  0.6894527728067389  0.7790048581988813  0.790275332533092  1.0000
  C   C125      1.0  0.2807616218465584  0.304411709446299  0.67834030637664  1.0000
  C   C126      1.0  0.30441903182207847  0.2807515255848828  0.17833628202681237  1.0000
  C   C127      1.0  0.7192485197022194  0.695585190435992  0.32166081748466974  1.0000
  C   C128      1.0  0.6955804580721435  0.7192442423108008  0.8216589952265991  1.0000
  C   C129      1.0  0.27042788961234987  0.37015180183688307  0.6505491054210495  1.0000
  C   C130      1.0  0.3701628658696237  0.27042116254276755  0.1505461630242877  1.0000
  C   C131      1.0  0.7295797495455575  0.6298435837203797  0.349450576937457  1.0000
  C   C132      1.0  0.6298441363804699  0.7295738331235455  0.8494502010691889  1.0000
  C   C133      1.0  0.2361510328444041  0.23776858715513777  0.7377983565873194  1.0000
  C   C134      1.0  0.23777776148994434  0.23613715521043588  0.23779315427030667  1.0000
  C   C135      1.0  0.7638622538389515  0.7622260846996202  0.2622054807692961  1.0000
  C   C136      1.0  0.7622154543752729  0.7638630849798748  0.7622009432181827  1.0000
  C   C137      1.0  0.127795789671346  0.5064511763238073  0.444556543903623  1.0000
  C   C138      1.0  0.5064552896901517  0.1277987989537621  0.9445541257155552  1.0000
  C   C139      1.0  0.872199324157201  0.49355022077970306  0.5554441712740327  1.0000
  C   C140      1.0  0.4935467136876498  0.8721996766676057  0.055446514795853795  1.0000
  C   C141      1.0  0.04934877026261831  0.523637535801875  0.427095858829432  1.0000
  C   C142      1.0  0.5236402380062304  0.04935281636753064  0.9270934503112327  1.0000
  C   C143      1.0  0.9506475951961308  0.4763622542822221  0.5729036493678804  1.0000
  C   C144      1.0  0.47635925881220953  0.9506470965313202  0.07290721032060078  1.0000
  C   C145      1.0  0.04010727983204991  0.4773279822164441  0.39473009568682466  1.0000
  C   C146      1.0  0.47733016032150744  0.0401085164365256  0.8947292659631072  1.0000
  C   C147      1.0  0.9598934382394334  0.5226762048286063  0.6052665171191194  1.0000
  C   C148      1.0  0.5226687063681084  0.9598927868126238  0.10527138036374589  1.0000
  C   C149      1.0  0.10925270001526143  0.4127533719720234  0.37920320246706746  1.0000
  C   C150      1.0  0.4127552420174965  0.10925475539551847  0.8792020560445193  1.0000
  C   C151      1.0  0.8907542578658723  0.5872557670269886  0.6207938065793853  1.0000
  C   C152      1.0  0.587244239684985  0.8907492804670983  0.12079822387372728  1.0000
  C   C153      1.0  0.18776406192129974  0.3948584990966141  0.39668329080257786  1.0000
  C   C154      1.0  0.3948614800093183  0.1877695457516566  0.8966811460665055  1.0000
  C   C155      1.0  0.8122385204373829  0.6051509492658982  0.6033147050067242  1.0000
  C   C156      1.0  0.6051392494811765  0.8122364261745146  0.10331998419253809  1.0000
  C   C157      1.0  0.1968400231949019  0.44141804331263057  0.42899618718437427  1.0000
  C   C158      1.0  0.44142335560079726  0.1968441639383941  0.9289925077965862  1.0000
  C   C159      1.0  0.8031600798278691  0.5585875491623116  0.5710043551690234  1.0000
  C   C160      1.0  0.5585823966506496  0.803155396149684  0.07100804176678108  1.0000
  C   C161      1.0  0.09816118382423158  0.3609130442074431  0.3458415432479356  1.0000
  C   C162      1.0  0.36091395253943404  0.09815962707471472  0.8458429091070058  1.0000
  C   C163      1.0  0.9018488906627838  0.6390967940072019  0.6541532700785098  1.0000
  C   C164      1.0  0.6390892800303974  0.9018449040940697  0.15415729091182578  1.0000
  C   C165      1.0  0.13524933593228644  0.9119360923552835  0.4566031175395721  1.0000
  C   C166      1.0  0.911934011225867  0.13525334654840307  0.9566023250844039  1.0000
  C   C167      1.0  0.8647401318213072  0.08807074913453054  0.5433979048499891  1.0000
  C   C168      1.0  0.08806799729936195  0.8647439519118622  0.0433986408975073  1.0000
  C   C169      1.0  0.058813410097982896  0.9757948300441371  0.4493289958416112  1.0000
  C   C170      1.0  0.975792627767639  0.058814359884138426  0.9493303910319708  1.0000
  C   C171      1.0  0.9411791756025709  0.02421093853983781  0.5506686504807449  1.0000
  C   C172      1.0  0.0242125108120348  0.9411806954690078  0.05066934459281211  1.0000
  C   C173      1.0  0.054380750656562823  0.0396658100216527  0.4209595930828414  1.0000
  C   C174      1.0  0.0396633787399878  0.05438435273331521  0.9209612205078981  1.0000
  C   C175      1.0  0.9456087157917852  0.960338665546274  0.5790390465150779  1.0000
  C   C176      1.0  0.9603423824652283  0.945614625154036  0.0790411603436709  1.0000
  C   C177      1.0  0.1264743587638293  0.03911973087219421  0.3988480504094624  1.0000
  C   C178      1.0  0.03911898373493021  0.12647715271421592  0.898849052522223  1.0000
  C   C179      1.0  0.8735169964036019  0.9608817542858289  0.6011512167526759  1.0000
  C   C180      1.0  0.9608842785594407  0.873520314328019  0.1011527969463373  1.0000
  C   C181      1.0  0.2028862273670597  0.9746448585670751  0.4055612421859678  1.0000
  C   C182      1.0  0.9746427764672634  0.20288995287170053  0.9055613652293815  1.0000
  C   C183      1.0  0.7971045039789858  0.025356840940119668  0.594438639514962  1.0000
  C   C184      1.0  0.0253579832551694  0.7971077731269461  0.09444052645683597  1.0000
  C   C185      1.0  0.2072653235264497  0.912052257911256  0.43455794540489723  1.0000
  C   C186      1.0  0.912049367153344  0.20726907183764362  0.9345556540611921  1.0000
  C   C187      1.0  0.7927254031437131  0.08795357499941758  0.5654442859418155  1.0000
  C   C188      1.0  0.08795515307866712  0.7927256121840428  0.0654456172707896  1.0000
  C   C189      1.0  0.1221805873348103  0.10611424390305055  0.3681764001350984  1.0000
  C   C190      1.0  0.10611334998098701  0.12218615415569187  0.8681782650415215  1.0000
  C   C191      1.0  0.877812010473221  0.8938903544796377  0.6318233918973347  1.0000
  C   C192      1.0  0.8938905291388791  0.8778152296209146  0.1318247127875054  1.0000
  C   C193      1.0  0.9492939367159468  0.7182565549488518  0.5446444693264637  1.0000
  C   C194      1.0  0.718250524385617  0.9492986665182246  0.04464344443238839  1.0000
  C   C195      1.0  0.050698657104668116  0.28174922175490025  0.45535530060873697  1.0000
  C   C196      1.0  0.2817445867966058  0.05070213678487785  0.9553560683008299  1.0000
  C   C197      1.0  0.9175667103862397  0.7879443018881178  0.5124485426507732  1.0000
  C   C198      1.0  0.7879406335192416  0.9175686590295555  0.012449348926637103  1.0000
  C   C199      1.0  0.08243151007963692  0.21206074023369578  0.4875499215637902  1.0000
  C   C200      1.0  0.2120551072844208  0.082431935724216  0.9875510661341167  1.0000
  N   N1        1.0  0.1818409185482608  0.6625354018290468  0.6170279854365218  1.0000
  N   N2        1.0  0.6625392760857736  0.18184562478828067  0.11702649073547629  1.0000
  N   N3        1.0  0.8181542032551191  0.337463638632329  0.3829727739356058  1.0000
  N   N4        1.0  0.33746460538995393  0.8181516232649031  0.8829735307012425  1.0000
  N   N5        1.0  0.1655799671851597  0.5583722224483765  0.5515549445667389  1.0000
  N   N6        1.0  0.5583777324245391  0.1655839524389506  0.051551306321201196  1.0000
  N   N7        1.0  0.8344151667256983  0.44162564781171915  0.4484479605154661  1.0000
  N   N8        1.0  0.44162550978752085  0.8344170414467061  0.948448353242803  1.0000
  N   N9        1.0  0.1393306238371963  0.698495443972675  0.4944169718934717  1.0000
  N   N10       1.0  0.6984941312237327  0.13933678313936332  0.9944136912400481  1.0000
  N   N11       1.0  0.8606588542112448  0.30150904319494054  0.5055847014370868  1.0000
  N   N12       1.0  0.30151037523340574  0.8606602517246172  0.005586019031142102  1.0000
  N   N13       1.0  0.16154627058906365  0.8011929718821095  0.5593367642173347  1.0000
  N   N14       1.0  0.8011911372237749  0.16155059816460954  0.0593347815959433  1.0000
  N   N15       1.0  0.8384419556839405  0.19881075754300798  0.44066403667518717  1.0000
  N   N16       1.0  0.1988108723162298  0.8384443366937121  0.9406644083408509  1.0000
  O   O1        1.0  0.3389292449370274  0.9746081371036657  0.7674045439058543  1.0000
  O   O2        1.0  0.9746261339880817  0.33892962989738606  0.267396497275378  1.0000
  O   O3        1.0  0.6610759497569348  0.025375151278382264  0.2325996599169713  1.0000
  O   O4        1.0  0.025383332155648506  0.6610727531397772  0.7325963438625109  1.0000
  O   O5        1.0  0.20129614428629594  0.054110081247067406  0.7726028299571792  1.0000
  O   O6        1.0  0.054125636510832506  0.20129390253723767  0.2725945537827457  1.0000
  O   O7        1.0  0.7987096609257307  0.945878299870472  0.2274018733823553  1.0000
  O   O8        1.0  0.9458800855445233  0.7987097654350138  0.7274016712146079  1.0000
  O   O9        1.0  0.2977134153099429  0.17459579470779826  0.7378678018690933  1.0000
  O   O10       1.0  0.1746081675204465  0.29769957141996173  0.23786435580838367  1.0000
  O   O11       1.0  0.7023054938860227  0.8253969561241661  0.2621326282512726  1.0000
  O   O12       1.0  0.8253850486710874  0.7023012602508205  0.7621303373780177  1.0000
  O   O13       1.0  0.1740129931847747  0.2412938518320686  0.7670410566818687  1.0000
  O   O14       1.0  0.2413050235803739  0.17400135851317344  0.26703547296062874  1.0000
  O   O15       1.0  0.8260009317833054  0.7586952997488084  0.2329613554537247  1.0000
  O   O16       1.0  0.7586900574057509  0.8260035526740949  0.7329597152065759  1.0000
  O   O17       1.0  0.16053528528023975  0.2938753063225335  0.3379727979611076  1.0000
  O   O18       1.0  0.29387645881335794  0.16053305086868624  0.8379735615899548  1.0000
  O   O19       1.0  0.8394685865532667  0.7061254790137925  0.6620277639304246  1.0000
  O   O20       1.0  0.7061236659591262  0.8394678341218339  0.1620285860186996  1.0000
  O   O21       1.0  0.028832061752048298  0.38350282170943484  0.3279419476821985  1.0000
  O   O22       1.0  0.3834973603680823  0.028828210701632905  0.8279456030120611  1.0000
  O   O23       1.0  0.9711817114754384  0.6165181004614195  0.6720483396440213  1.0000
  O   O24       1.0  0.6165058619068944  0.9711786747893503  0.17205394606576618  1.0000
  O   O25       1.0  0.18193999342435066  0.09358528411237191  0.3412754387358774  1.0000
  O   O26       1.0  0.0935861871317556  0.18194344387082848  0.8412776110849974  1.0000
  O   O27       1.0  0.8180551114504271  0.9064166951918581  0.6587234451535834  1.0000
  O   O28       1.0  0.9064176948155238  0.8180567604247388  0.15872508546800648  1.0000
  O   O29       1.0  0.06054888555031821  0.175007734888176  0.3680197290822349  1.0000
  O   O30       1.0  0.17500590218270423  0.0605508025133119  0.8680222907502682  1.0000
  O   O31       1.0  0.9394480894117195  0.8249995115333637  0.6319820546768965  1.0000
  O   O32       1.0  0.8249967258143516  0.9394510064817394  0.1319810060365469  1.0000
  O   O33       1.0  0.0119731680453583  0.729884486542673  0.5692670750807736  1.0000
  O   O34       1.0  0.7298732475795406  0.011978336260604313  0.06926737966765019  1.0000
  O   O35       1.0  0.9880175586248046  0.27012134636800783  0.43073515626593917  1.0000
  O   O36       1.0  0.2701175104825637  0.9880192518825132  0.9307359164794988  1.0000
  O   O37       1.0  0.854285311711017  0.7747613533074259  0.48846344702660355  1.0000
  O   O38       1.0  0.7747579629943644  0.8542904857551651  0.9884638474708467  1.0000
  O   O39       1.0  0.14571103265064522  0.22524432722202903  0.5115356473112697  1.0000
  O   O40       1.0  0.22524278045209203  0.14571136204727958  0.011537360128521402  1.0000
