data_image0
_chemical_formula_structural       CdH26C14N4O8
_chemical_formula_sum              "Cd1 H26 C14 N4 O8"
_cell_length_a       7.902235109210561
_cell_length_b       9.215113291854276
_cell_length_c       9.21513132725586
_cell_angle_alpha    69.38938909233143
_cell_angle_beta     84.30648772286085
_cell_angle_gamma    84.30833663597139

_space_group_name_H-M_alt    "P 1"
_space_group_IT_number       1

loop_
  _space_group_symop_operation_xyz
  'x, y, z'

loop_
  _atom_site_type_symbol
  _atom_site_label
  _atom_site_symmetry_multiplicity
  _atom_site_fract_x
  _atom_site_fract_y
  _atom_site_fract_z
  _atom_site_occupancy
  Cd  Cd1       1.0  0.9999926877910713  0.30409454654942897  0.6959070613982447  1.0000
  H   H1        1.0  0.6367870291977552  0.6728315201259111  0.40976711593468435  1.0000
  H   H2        1.0  0.36321161671369856  0.5902326363660535  0.3271621416418711  1.0000
  H   H3        1.0  0.7221106592978472  0.6366064322275449  0.239948465579431  1.0000
  H   H4        1.0  0.27789266558074394  0.760051890472589  0.36338611453947306  1.0000
  H   H5        1.0  0.8589488557233695  0.6265861906834973  0.38642150722965596  1.0000
  H   H6        1.0  0.1410560271495528  0.6135747863986012  0.373413998124043  1.0000
  H   H7        1.0  0.5832279277589834  0.40177486373463733  0.4209013812939375  1.0000
  H   H8        1.0  0.4167755556040262  0.5790968629309604  0.5982134480805  1.0000
  H   H9        1.0  0.0491226878755526  0.19574030252726266  0.2312571002322271  1.0000
  H   H10       1.0  0.9508801802667578  0.7687326180650234  0.8042652238884496  1.0000
  H   H11       1.0  0.9644100374892165  0.9552824613808966  0.2030779107331424  1.0000
  H   H12       1.0  0.03558409731280678  0.7969190143491222  0.04472331624889132  1.0000
  H   H13       1.0  0.812786898953391  0.0037720434767223015  0.5052897989984756  1.0000
  H   H14       1.0  0.1872186442001507  0.4947160901563734  0.9962286641884219  1.0000
  H   H15       1.0  0.028584848162331877  0.94935135364203  0.4629344058297489  1.0000
  H   H16       1.0  0.9714199127826079  0.5370553669175993  0.05065571059859743  1.0000
  H   H17       1.0  0.8670359404549758  0.8207363485876019  0.48308238862458786  1.0000
  H   H18       1.0  0.13296916860789315  0.5169214509300702  0.1792657553044633  1.0000
  H   H19       1.0  0.6607245952219997  0.2860385193577315  0.6785130760922583  1.0000
  H   H20       1.0  0.3392466312192823  0.32148729452028857  0.7139637209527334  1.0000
  H   H21       1.0  0.68217999613006  0.4698404566641659  0.656055675688769  1.0000
  H   H22       1.0  0.3178107654906129  0.3439426551788643  0.5301563197060586  1.0000
  H   H23       1.0  0.6806428712571205  0.2948680016557219  0.24574543921340106  1.0000
  H   H24       1.0  0.3193645153896583  0.7542541889540219  0.705132931838129  1.0000
  H   H25       1.0  0.6835169878203758  0.07460295837916683  0.13352898364231439  1.0000
  H   H26       1.0  0.3164771097784467  0.8664833543855723  0.9253926430907522  1.0000
  C   C1        1.0  0.732687934148956  0.6011541523935264  0.3656399254762305  1.0000
  C   C2        1.0  0.2673120096011561  0.6343587187420995  0.3988447201850745  1.0000
  C   C3        1.0  0.708212541766997  0.4278854994993966  0.44604347427740965  1.0000
  C   C4        1.0  0.29178407230568126  0.5539532257606582  0.5721143842176131  1.0000
  C   C5        1.0  0.849105344188189  0.33549869535320914  0.3803157924963969  1.0000
  C   C6        1.0  0.1509084933509115  0.6196884766633205  0.6645090861607342  1.0000
  C   C7        1.0  0.9197702057660778  0.1881861469827442  0.2028432915856087  1.0000
  C   C8        1.0  0.08023365647518695  0.7971551823783187  0.811813132095473  1.0000
  C   C9        1.0  0.8745737439795747  0.015740722321361002  0.2669406486186503  1.0000
  C   C10       1.0  0.12542348844466034  0.7330638758439465  0.9842583734339881  1.0000
  C   C11       1.0  0.8964639831093919  0.9429639689109307  0.43961198162791243  1.0000
  C   C12       1.0  0.1035402229702811  0.5603888593725017  0.05703892266095064  1.0000
  C   C13       1.0  0.9098826126142256  0.24614816385489038  0.026032112272943726  1.0000
  C   C14       1.0  0.09013388954777213  0.9739687456598031  0.753847042976062  1.0000
  N   N1        1.0  0.72283448810758  0.38261326002953683  0.61429477196382  1.0000
  N   N2        1.0  0.277154820516941  0.38570551578698814  0.6173815792782802  1.0000
  N   N3        1.0  0.8037643050676523  0.2804247564463367  0.27422703937859433  1.0000
  N   N4        1.0  0.196237853825032  0.7257699168972424  0.7195799145891896  1.0000
  O   O1        1.0  0.9978170758435997  0.31965733824534953  0.42158057820203954  1.0000
  O   O2        1.0  0.002178847052597593  0.5784063693617725  0.6803624771054045  1.0000
  O   O3        1.0  0.702472643808676  0.002628964423244901  0.23961280246771818  1.0000
  O   O4        1.0  0.2975224064835444  0.7604005840652805  0.9973680624559687  1.0000
  O   O5        1.0  0.05289354272554899  0.2524037181065992  0.9473318503124869  1.0000
  O   O6        1.0  0.9471066672827818  0.05266527640368683  0.7475891462317461  1.0000
  O   O7        1.0  0.7635157563194711  0.2722210061520942  0.9736516774011077  1.0000
  O   O8        1.0  0.2364846884556542  0.026347140477227502  0.7277760660530246  1.0000
