data_image0
_chemical_formula_structural       Mg4H24C24S4O24
_chemical_formula_sum              "Mg4 H24 C24 S4 O24"
_cell_length_a       6.7046263791871565
_cell_length_b       7.249033092244837
_cell_length_c       17.73787924677558
_cell_angle_alpha    90.00080774887498
_cell_angle_beta     90.00070140414999
_cell_angle_gamma    89.99951032434097

_space_group_name_H-M_alt    "P 1"
_space_group_IT_number       1

loop_
  _space_group_symop_operation_xyz
  'x, y, z'

loop_
  _atom_site_type_symbol
  _atom_site_label
  _atom_site_symmetry_multiplicity
  _atom_site_fract_x
  _atom_site_fract_y
  _atom_site_fract_z
  _atom_site_occupancy
  Mg  Mg1       1.0  0.9999995645526808  0.4999958292164095  0.9999987153632973  1.0000
  Mg  Mg2       1.0  0.5000009056177959  0.9999975821971036  2.3400437641000007e-06  1.0000
  Mg  Mg3       1.0  0.4999986911612523  1.1250826687999996e-06  0.4999977927183039  1.0000
  Mg  Mg4       1.0  0.9999989061273523  0.49999961029413237  0.49999982164921875  1.0000
  H   H1        1.0  0.6371018484028708  0.4050083992274124  0.9400845796016314  1.0000
  H   H2        1.0  0.13710288222866748  0.09498143177838608  0.05991474211530352  1.0000
  H   H3        1.0  0.8628897105686871  0.9050152063453752  0.5599142591450672  1.0000
  H   H4        1.0  0.3628926456389223  0.59498343560233  0.4400839082900917  1.0000
  H   H5        1.0  0.36289393230104844  0.5949837680135417  0.0599150106215021  1.0000
  H   H6        1.0  0.8628928984752519  0.9050107354625752  0.940084848107837  1.0000
  H   H7        1.0  0.1370986125601803  0.09498523789122264  0.44008533108467424  1.0000
  H   H8        1.0  0.6371076095591305  0.40501287009404763  0.5599151181900269  1.0000
  H   H9        1.0  0.6500820495188009  0.6063226617975486  0.9730445968500447  1.0000
  H   H10       1.0  0.1500807661458978  0.8936680188913898  0.026961044663735802  1.0000
  H   H11       1.0  0.8499122482514494  0.10632472197227119  0.5269530868443582  1.0000
  H   H12       1.0  0.3499209720224314  0.3936730703150602  0.4730421434061327  1.0000
  H   H13       1.0  0.34991671420628023  0.3936681259372108  0.0269549933760089  1.0000
  H   H14       1.0  0.8499179975911629  0.10632414835716018  0.9730396730967996  1.0000
  H   H15       1.0  0.15008054940599888  0.8936743427521847  0.47304650339174265  1.0000
  H   H16       1.0  0.6500792831601457  0.6063246148658975  0.5269563193127028  1.0000
  H   H17       1.0  0.16865655098038693  0.3215072970909603  0.1749855927357089  1.0000
  H   H18       1.0  0.6686285030940837  0.17846710826582776  0.8250144382985029  1.0000
  H   H19       1.0  0.3313712046722799  0.8214973010819051  0.3250245090447521  1.0000
  H   H20       1.0  0.8313621500211497  0.6784891766593688  0.6749819693101032  1.0000
  H   H21       1.0  0.8313481787575582  0.6784931471095065  0.8250156888276622  1.0000
  H   H22       1.0  0.3313792097705388  0.8215209205322581  0.1749902258275569  1.0000
  H   H23       1.0  0.6686514232068033  0.17850176360163766  0.6749795913822325  1.0000
  H   H24       1.0  0.16863512218817786  0.32151540608297313  0.3250210035437249  1.0000
  C   C1        1.0  0.7971562283727707  0.20890920667390842  0.10198193782834863  1.0000
  C   C2        1.0  0.2971468758012605  0.29106969285611933  0.8980062836094762  1.0000
  C   C3        1.0  0.7028775742279121  0.7088944784228844  0.3980196763347764  1.0000
  C   C4        1.0  0.20285861126153287  0.7910930228445777  0.6019873363754585  1.0000
  C   C5        1.0  0.20283358623539266  0.7910953760299864  0.8980170886514858  1.0000
  C   C6        1.0  0.7028503963762984  0.7089238538440128  0.10199161532531063  1.0000
  C   C7        1.0  0.2971450535498406  0.29110872465600574  0.6019793502168298  1.0000
  C   C8        1.0  0.7971312032812249  0.20891983679605633  0.3980099988324356  1.0000
  C   C9        1.0  0.04169421363577189  0.28510769614114645  0.2103163634336696  1.0000
  C   C10       1.0  0.5416810914657758  0.21488427431945203  0.7896808265381027  1.0000
  C   C11       1.0  0.4583323841948541  0.7851065045292672  0.2896912738441132  1.0000
  C   C12       1.0  0.9583137022881161  0.7148996544138413  0.7103163543914732  1.0000
  C   C13       1.0  0.9583045500225679  0.714899645535226  0.7896837906052669  1.0000
  C   C14       1.0  0.4583281128260595  0.7851092723915798  0.21032045501575422  1.0000
  C   C15       1.0  0.5416857690845873  0.2148994575950312  0.7103100077661182  1.0000
  C   C16       1.0  0.041680586856436684  0.28511182579252636  0.2896854909448052  1.0000
  C   C17       1.0  0.8563210077067251  0.2364505582565144  0.18088391976673532  1.0000
  C   C18       1.0  0.3562974141070043  0.2635554600399815  0.8191090849560752  1.0000
  C   C19       1.0  0.6436991188062604  0.736432196744822  0.3191178528432063  1.0000
  C   C20       1.0  0.1436889357889797  0.7635640528171309  0.6808888867315306  1.0000
  C   C21       1.0  0.14367924741825533  0.763563680875798  0.8191156705302378  1.0000
  C   C22       1.0  0.6437117901355761  0.7364408456207484  0.1808899415446987  1.0000
  C   C23       1.0  0.3563205259812747  0.2635696268710959  0.6808823012280456  1.0000
  C   C24       1.0  0.8563008787685858  0.23645156584134952  0.319110139780058  1.0000
  S   S1        1.0  0.6837907188356878  0.1924396724415089  0.24999424988302377  1.0000
  S   S2        1.0  0.18379132506964874  0.30757737634606036  0.7499923208366184  1.0000
  S   S3        1.0  0.8162223535981781  0.6924341037052032  0.25000501442238493  1.0000
  S   S4        1.0  0.3162035702314866  0.8075787051878011  0.750004776646833  1.0000
  O   O1        1.0  0.9268984602703509  0.24478981129122698  0.049545406714031515  1.0000
  O   O2        1.0  0.4268672747961517  0.2552032293215873  0.9504417223373596  1.0000
  O   O3        1.0  0.5731245726986245  0.7447917224831996  0.45045641394982994  1.0000
  O   O4        1.0  0.07311766010551679  0.7552175047078223  0.5495533824735048  1.0000
  O   O5        1.0  0.0730988119438152  0.7552037354478498  0.9504547472817678  1.0000
  O   O6        1.0  0.5731285059232363  0.7447875584347797  0.0495584316470641  1.0000
  O   O7        1.0  0.4268846314968541  0.25521286013373873  0.5495420488095066  1.0000
  O   O8        1.0  0.9268706630072001  0.2447884575158028  0.4504467715373651  1.0000
  O   O9        1.0  0.6251899730925389  0.14529014273066573  0.0886855181083988  1.0000
  O   O10       1.0  0.1251282660289661  0.3547066807398451  0.9113058557824162  1.0000
  O   O11       1.0  0.8748265147470133  0.6452758834975184  0.4113146023847705  1.0000
  O   O12       1.0  0.3748304009274008  0.8547102480459614  0.588690949067832  1.0000
  O   O13       1.0  0.3748087906558268  0.8547075425341221  0.91131745472903  1.0000
  O   O14       1.0  0.8748645316649543  0.6452744505097314  0.08869091557581041  1.0000
  O   O15       1.0  0.12518418102061452  0.35472456067918756  0.5886866791923709  1.0000
  O   O16       1.0  0.6251534476173004  0.14529571414681186  0.4113063861064391  1.0000
  O   O17       1.0  0.7269721970338096  0.5127838614338316  0.9439716947951665  1.0000
  O   O18       1.0  0.2269695082344896  0.9872075862767957  0.056032046598602406  1.0000
  O   O19       1.0  0.7730214669278794  0.012788917668437701  0.5560265781606335  1.0000
  O   O20       1.0  0.27302988070010764  0.48720810757988886  0.4439688609072264  1.0000
  O   O21       1.0  0.2730220921317326  0.48721106478224385  0.05602676790195461  1.0000
  O   O22       1.0  0.773026272499706  0.012785960497424802  0.9439697986895226  1.0000
  O   O23       1.0  0.22696983921932196  0.9872087675579024  0.4439724483028017  1.0000
  O   O24       1.0  0.7269703744944493  0.5127909571148733  0.5560307293460838  1.0000
