data_image0
_chemical_formula_structural       Cu6H18C26S6N12Cl6
_chemical_formula_sum              "Cu6 H18 C26 S6 N12 Cl6"
_cell_length_a       8.24240100493419
_cell_length_b       10.863361622133368
_cell_length_c       12.443541109456742
_cell_angle_alpha    72.61208879040184
_cell_angle_beta     87.58462464360024
_cell_angle_gamma    90.33859702367393

_space_group_name_H-M_alt    "P 1"
_space_group_IT_number       1

loop_
  _space_group_symop_operation_xyz
  'x, y, z'

loop_
  _atom_site_type_symbol
  _atom_site_label
  _atom_site_symmetry_multiplicity
  _atom_site_fract_x
  _atom_site_fract_y
  _atom_site_fract_z
  _atom_site_occupancy
  Cu  Cu1       1.0  0.7024000032254634  0.1350975427183627  0.1699645371363587  1.0000
  Cu  Cu2       1.0  0.2975988450703539  0.8649045869460821  0.8300368754332156  1.0000
  Cu  Cu3       1.0  0.46900727913876483  0.6473290274019232  0.4779970317205625  1.0000
  Cu  Cu4       1.0  0.5309863927650227  0.3526738071532519  0.5220013159548529  1.0000
  Cu  Cu5       1.0  0.08809644331526562  0.3617131270541306  0.028250164614590352  1.0000
  Cu  Cu6       1.0  0.9119067281393143  0.6382859303713033  0.9717462043097385  1.0000
  H   H1        1.0  0.9147964684700938  0.9265751206953039  0.10969109858673681  1.0000
  H   H2        1.0  0.08519889244502822  0.0734279785779677  0.8903118875448685  1.0000
  H   H3        1.0  0.9424773686534993  0.6848558342055427  0.19591925657825027  1.0000
  H   H4        1.0  0.0575173775876507  0.31514501773786197  0.8040779868058366  1.0000
  H   H5        1.0  0.7437470201644204  0.5735275152046454  0.3582307129379672  1.0000
  H   H6        1.0  0.25625310447670563  0.42646885729875084  0.6417723045966923  1.0000
  H   H7        1.0  0.7845918827714088  0.35167905815698214  0.94739270333136  1.0000
  H   H8        1.0  0.21541106325400258  0.6483175637396528  0.05261407093455975  1.0000
  H   H9        1.0  0.6207200877048537  0.5076067123010686  0.8026204392114736  1.0000
  H   H10       1.0  0.3792859545194176  0.49238099082680975  0.19738229403222363  1.0000
  H   H11       1.0  0.3132270040913738  0.5033272470708566  0.8424485293199383  1.0000
  H   H12       1.0  0.6867832538706653  0.4966670202218851  0.15754633012399213  1.0000
  H   H13       1.0  0.0406708549371189  0.16838808759681712  0.2791486210456283  1.0000
  H   H14       1.0  0.959322226164936  0.8316092204777233  0.7208570380312267  1.0000
  H   H15       1.0  0.1222519240892055  0.2707088049641655  0.4288745348648106  1.0000
  H   H16       1.0  0.8777459508732122  0.7292934200374147  0.5711293366242957  1.0000
  H   H17       1.0  0.894635813946245  0.35760125389550973  0.5282095736244871  1.0000
  H   H18       1.0  0.105354009529357  0.6424062448055068  0.4717860611619428  1.0000
  C   C1        1.0  0.4841356307892753  0.10922884330409488  0.2629319991199282  1.0000
  C   C2        1.0  0.5158650481021995  0.8907691611122601  0.737064050477791  1.0000
  C   C3        1.0  0.6149466978357054  0.8695476548641492  0.3004047742387855  1.0000
  C   C4        1.0  0.38504751996437403  0.13045642337437605  0.6995988106022892  1.0000
  C   C5        1.0  0.8338855647258117  0.8706139118648509  0.17877673323017265  1.0000
  C   C6        1.0  0.16611161604286204  0.12938602580071998  0.8212206069141175  1.0000
  C   C7        1.0  0.8498187932346896  0.738434783672808  0.22683386223470597  1.0000
  C   C8        1.0  0.15018270233868952  0.2615616935241433  0.7731706393669313  1.0000
  C   C9        1.0  0.7402312351011845  0.6766253701613393  0.31451688467078764  1.0000
  C   C10       1.0  0.2597696716075077  0.3233737179138173  0.6854812477033861  1.0000
  C   C11       1.0  0.4180227603755995  0.2650733754435066  0.05789298878190149  1.0000
  C   C12       1.0  0.5819820742810365  0.7349210884919514  0.9421086450785552  1.0000
  C   C13       1.0  0.6525853213459315  0.35244452312204533  0.9555765671042663  1.0000
  C   C14       1.0  0.3474236992102321  0.6475580440294306  0.04442883202812453  1.0000
  C   C15       1.0  0.5617206521199023  0.4397370060171609  0.8767975637768401  1.0000
  C   C16       1.0  0.43829035807145544  0.5602615158984959  0.12320404957829832  1.0000
  C   C17       1.0  0.3949404841511424  0.43634510081277256  0.8969365910892435  1.0000
  C   C18       1.0  0.60507488142526  0.5636474579427072  0.10306082766699383  1.0000
  C   C19       1.0  0.68232201886471  0.2359471834335309  0.36617894718641963  1.0000
  C   C20       1.0  0.31767177985231143  0.7640586220550886  0.6338201286372468  1.0000
  C   C21       1.0  0.9511251669659517  0.20235945664987298  0.3302341519641416  1.0000
  C   C22       1.0  0.04886768631888571  0.7976367677658658  0.6697694243362663  1.0000
  C   C23       1.0  0.9953987183860845  0.25846691087489393  0.41220725047095647  1.0000
  C   C24       1.0  0.004589508728095398  0.7415380476037681  0.5877973055900867  1.0000
  C   C25       1.0  0.8721089158150976  0.3067822637673601  0.4665595185280509  1.0000
  C   C26       1.0  0.12788677585823652  0.6932281692489183  0.5334332243793015  1.0000
  S   S1        1.0  0.4613879800391417  0.947126137093036  0.35427347353370214  1.0000
  S   S2        1.0  0.5386094178046505  0.052875847871717986  0.6457256663715895  1.0000
  S   S3        1.0  0.32049159716461173  0.145898803249878  0.16878201926723344  1.0000
  S   S4        1.0  0.6795107385119082  0.8541023568057325  0.831217819740317  1.0000
  S   S5        1.0  0.47684555224712  0.22294907270252648  0.3429972871786617  1.0000
  S   S6        1.0  0.5231544069374507  0.7770549689178381  0.6570026776350844  1.0000
  N   N1        1.0  0.7178640080134997  0.9368586887044752  0.21598306991506896  1.0000
  N   N2        1.0  0.28214117485658363  0.06314757895244577  0.7840198993437894  1.0000
  N   N3        1.0  0.5814249448882195  0.2646853609460322  0.045759232751805705  1.0000
  N   N4        1.0  0.4185797457960589  0.7353148448256093  0.9542399144186505  1.0000
  N   N5        1.0  0.7948558797377957  0.1914839726559094  0.30677622061916304  1.0000
  N   N6        1.0  0.2051353103449784  0.808516845249805  0.6932220907451027  1.0000
  N   N7        1.0  0.6218866101555917  0.7412661782386677  0.35136794637976015  1.0000
  N   N8        1.0  0.37811401741343803  0.2587352925096269  0.6486391762587544  1.0000
  N   N9        1.0  0.32187370142159477  0.3505140578954666  0.9886000188219343  1.0000
  N   N10       1.0  0.678130443366378  0.6494849041928319  0.011393891182862603  1.0000
  N   N11       1.0  0.7142134990466433  0.29498966757332556  0.444880463994707  1.0000
  N   N12       1.0  0.28577773832960673  0.7050140812596837  0.5551177869205047  1.0000
  Cl  Cl1       1.0  0.9501196897342014  0.1692948731754313  0.06048750954609967  1.0000
  Cl  Cl2       1.0  0.04987904249046691  0.8307033219151941  0.9395134578906765  1.0000
  Cl  Cl3       1.0  0.3352645056995698  0.48964991507599365  0.4094096514255767  1.0000
  Cl  Cl4       1.0  0.6647281026089403  0.5103539384505709  0.5905900835566129  1.0000
  Cl  Cl5       1.0  0.998969202920172  0.47610579487703564  0.14616827398474186  1.0000
  Cl  Cl6       1.0  0.0010364245461219287  0.5238904209897867  0.8538287577306891  1.0000
