data_image0
_chemical_formula_structural       Cu4P4H28C24O16
_chemical_formula_sum              "Cu4 P4 H28 C24 O16"
_cell_length_a       7.450189718461663
_cell_length_b       7.521617981358954
_cell_length_c       14.020422150236048
_cell_angle_alpha    89.98799795132213
_cell_angle_beta     91.47597043965887
_cell_angle_gamma    90.02191678915825

_space_group_name_H-M_alt    "P 1"
_space_group_IT_number       1

loop_
  _space_group_symop_operation_xyz
  'x, y, z'

loop_
  _atom_site_type_symbol
  _atom_site_label
  _atom_site_symmetry_multiplicity
  _atom_site_fract_x
  _atom_site_fract_y
  _atom_site_fract_z
  _atom_site_occupancy
  Cu  Cu1       1.0  0.9377852284256961  0.8104435769018538  0.022414574391177715  1.0000
  Cu  Cu2       1.0  0.5622691054828763  0.3103025998227694  0.9777254696108746  1.0000
  Cu  Cu3       1.0  0.06183934825745039  0.18931603634410982  0.9775608730958684  1.0000
  Cu  Cu4       1.0  0.4381889822859933  0.6894797578719576  0.022328792282593213  1.0000
  P   P1        1.0  0.6411445747729375  0.9551701626988776  0.8860220057060959  1.0000
  P   P2        1.0  0.8593315955327514  0.45527575027893624  0.11405522647850574  1.0000
  P   P3        1.0  0.35887735703855134  0.0448673849053733  0.11398862051548524  1.0000
  P   P4        1.0  0.14070918709023056  0.5447498377067959  0.8859435575451757  1.0000
  H   H1        1.0  0.8734804602599981  0.05435203512681141  0.13119515337171356  1.0000
  H   H2        1.0  0.6264326425952476  0.5543872534856149  0.868893926955508  1.0000
  H   H3        1.0  0.126578674056006  0.9455060214520401  0.8688944973830605  1.0000
  H   H4        1.0  0.3734661416467163  0.4455213267357294  0.13102641945897636  1.0000
  H   H5        1.0  0.7066746838490161  0.9218032027299258  0.12816218903083865  1.0000
  H   H6        1.0  0.7929686757437864  0.4216529889416877  0.8718407318221469  1.0000
  H   H7        1.0  0.2931203050875483  0.07839384007390748  0.8718578676682258  1.0000
  H   H8        1.0  0.2071315423641096  0.5785361527348486  0.12808760841055294  1.0000
  H   H9        1.0  0.8858600004761713  0.7551897857397732  0.7672374384772599  1.0000
  H   H10       1.0  0.6139751767184977  0.25521707701128094  0.23279071742744156  1.0000
  H   H11       1.0  0.1141255668445211  0.2448424323245746  0.23279689381731575  1.0000
  H   H12       1.0  0.3860160585805162  0.7448005304101316  0.7671780818221453  1.0000
  H   H13       1.0  0.9551726227520305  0.7714548714284392  0.5964861436820997  1.0000
  H   H14       1.0  0.5447505738601565  0.2713453035301896  0.4035500613340092  1.0000
  H   H15       1.0  0.0447861205442237  0.22851086836825374  0.40353851839869764  1.0000
  H   H16       1.0  0.4552661250693931  0.7286284334417985  0.5964276807346638  1.0000
  H   H17       1.0  0.7940084354550552  0.9916249963828392  0.490401542670398  1.0000
  H   H18       1.0  0.7059286259703442  0.4915339082094262  0.5096057385018187  1.0000
  H   H19       1.0  0.20598257404063255  0.0083540461312879  0.5096150429490438  1.0000
  H   H20       1.0  0.2940719514102668  0.5084424843323349  0.49037390170310874  1.0000
  H   H21       1.0  0.5656760807164787  0.1933409692783385  0.5592844764816294  1.0000
  H   H22       1.0  0.9343720993698528  0.6933452163961961  0.44071105705224795  1.0000
  H   H23       1.0  0.43429350694916014  0.8066340833716055  0.4407182368229601  1.0000
  H   H24       1.0  0.0656392067342466  0.3066325070962251  0.5592715967536324  1.0000
  H   H25       1.0  0.5009401307574778  0.17973014934743506  0.7315106911875876  1.0000
  H   H26       1.0  0.9991310752330876  0.6797930006283509  0.2684888599214049  1.0000
  H   H27       1.0  0.4990563451624155  0.820323349738885  0.2684881409168726  1.0000
  H   H28       1.0  0.0008694294667179992  0.32022992096165837  0.7315086077538739  1.0000
  C   C1        1.0  0.6872503015296303  0.9645830714653203  0.7604222871756297  1.0000
  C   C2        1.0  0.8127650718395644  0.4646087317016099  0.2396006245292598  1.0000
  C   C3        1.0  0.3127555147952137  0.03548903973931062  0.2395902354722495  1.0000
  C   C4        1.0  0.1872273992979459  0.5354128598595054  0.76039173016887  1.0000
  C   C5        1.0  0.814513067134037  0.8498602851210678  0.7214450448554789  1.0000
  C   C6        1.0  0.6853957370070277  0.34988485227411553  0.2785606898583738  1.0000
  C   C7        1.0  0.18547658743244003  0.15015731183980563  0.2785757977793822  1.0000
  C   C8        1.0  0.3146048825580081  0.6501247793379293  0.7214111033811579  1.0000
  C   C9        1.0  0.8536941866004782  0.8600718785745941  0.6249283664159011  1.0000
  C   C10       1.0  0.6462117174193337  0.3600358967175339  0.3750883008852385  1.0000
  C   C11       1.0  0.1462739703553524  0.1399204534248781  0.3750942954124597  1.0000
  C   C12       1.0  0.3537861773612364  0.6399551198360528  0.6248912983164632  1.0000
  C   C13       1.0  0.7644512300625622  0.9837286351660312  0.5661184335246576  1.0000
  C   C14       1.0  0.7354949459109221  0.4836969544353167  0.4338855925967169  1.0000
  C   C15       1.0  0.23554786140322656  0.016249080472270805  0.43389256723600084  1.0000
  C   C16       1.0  0.2645002720106789  0.516287414529252  0.5660918271460533  1.0000
  C   C17       1.0  0.636548418511204  0.09718542824800382  0.6045577341609703  1.0000
  C   C18       1.0  0.863435022086037  0.5971963694329646  0.39544910911001824  1.0000
  C   C19       1.0  0.3634305354166046  0.902824191514533  0.3954536764421236  1.0000
  C   C20       1.0  0.13656015796814813  0.4027946453597196  0.6045368686592528  1.0000
  C   C21       1.0  0.5980202012546343  0.08872751262111221  0.701372957487209  1.0000
  C   C22       1.0  0.9020190863714463  0.5887669699325286  0.29864066799886774  1.0000
  C   C23       1.0  0.4019843014303532  0.9113087033363957  0.29863170179044135  1.0000
  C   C24       1.0  0.097986846518161  0.4112493076729038  0.7013440428975246  1.0000
  O   O1        1.0  0.8152997978350883  0.9939414689991822  0.9444904285083171  1.0000
  O   O2        1.0  0.6852289991924891  0.4936806863334553  0.05550263941685073  1.0000
  O   O3        1.0  0.18472737829470284  0.0060827792822167005  0.05554738041008282  1.0000
  O   O4        1.0  0.314828121023048  0.5063980939469347  0.9444493119687469  1.0000
  O   O5        1.0  0.5642763388938192  0.7680203166554448  0.9063143790091107  1.0000
  O   O6        1.0  0.9369033669580774  0.2684676047476983  0.09382659095221164  1.0000
  O   O7        1.0  0.4359038912773202  0.23200661869458372  0.09372857507192124  1.0000
  O   O8        1.0  0.06298854495004488  0.7315486561293837  0.9061328750633424  1.0000
  O   O9        1.0  0.49829866400592954  0.10002425024972439  0.9041692261110232  1.0000
  O   O10       1.0  0.0020823526704419  0.6004641603037939  0.09605817227576104  1.0000
  O   O11       1.0  0.501751456243447  0.9000053253402883  0.09584324923980603  1.0000
  O   O12       1.0  0.9979340157630434  0.3995893319200405  0.9039951645655793  1.0000
  O   O13       1.0  0.8410494846810579  0.9266420183403455  0.13922915313325757  1.0000
  O   O14       1.0  0.6585792756124461  0.4266139092525663  0.8608493134774239  1.0000
  O   O15       1.0  0.15878834029286537  0.07329976475750041  0.8608093907213576  1.0000
  O   O16       1.0  0.34149395623214934  0.5733585147781568  0.13909860573360086  1.0000
