data_image0
_chemical_formula_structural       Zn2H38C46N2O12
_chemical_formula_sum              "Zn2 H38 C46 N2 O12"
_cell_length_a       13.898570569004823
_cell_length_b       15.307494171027132
_cell_length_c       17.320313424519775
_cell_angle_alpha    90.59011961103711
_cell_angle_beta     84.07475389516742
_cell_angle_gamma    90.0615618589719

_space_group_name_H-M_alt    "P 1"
_space_group_IT_number       1

loop_
  _space_group_symop_operation_xyz
  'x, y, z'

loop_
  _atom_site_type_symbol
  _atom_site_label
  _atom_site_symmetry_multiplicity
  _atom_site_fract_x
  _atom_site_fract_y
  _atom_site_fract_z
  _atom_site_occupancy
  Zn  Zn1       1.0  0.4014211247501506  0.4911604090635676  0.5025304521380607  1.0000
  Zn  Zn2       1.0  0.5996762651842927  0.49466888751179977  0.5020152627435338  1.0000
  H   H1        1.0  0.6340559695028176  0.551795391364358  0.7327972126593707  1.0000
  H   H2        1.0  0.38110160126637277  0.4746345511570098  0.2578834952319866  1.0000
  H   H3        1.0  0.9221267330604093  0.5685712758412222  0.6061635706328019  1.0000
  H   H4        1.0  0.0721287916058984  0.3534339026108312  0.4687042749484078  1.0000
  H   H5        1.0  0.7418268539336738  0.5658700784953155  0.6040464132052819  1.0000
  H   H6        1.0  0.2523742838300862  0.3581037697161947  0.4717662028425806  1.0000
  H   H7        1.0  0.7629241776584337  0.42041877967472624  0.40057060647830417  1.0000
  H   H8        1.0  0.24742942676681418  0.6221381193118206  0.5250662780942221  1.0000
  H   H9        1.0  0.9439223870062038  0.4143994828339999  0.394427166812676  1.0000
  H   H10       1.0  0.0662948586608465  0.6285106075451026  0.528297699044508  1.0000
  H   H11       1.0  0.6737648864809601  0.5629059013646651  0.2606115620260283  1.0000
  H   H12       1.0  0.3241177667905575  0.5388046847289798  0.7535978754606916  1.0000
  H   H13       1.0  0.618217319945721  0.5712251597677636  0.9958029159081649  1.0000
  H   H14       1.0  0.3954706294564971  0.5715817387283123  0.009876490488068216  1.0000
  H   H15       1.0  0.3195667606331866  0.5642378631973557  0.8965664750765969  1.0000
  H   H16       1.0  0.6831731769876513  0.5931415391677459  0.11858506056839252  1.0000
  H   H17       1.0  0.38884052295414057  0.5037511472421841  0.11658680000022059  1.0000
  H   H18       1.0  0.6311995013672274  0.5814136968795862  0.8735369952722536  1.0000
  H   H19       1.0  0.578061958880781  0.9311609254689512  0.6023880604995924  1.0000
  H   H20       1.0  0.5844493392345812  0.05732695148125799  0.3898410597139659  1.0000
  H   H21       1.0  0.43049476169385775  0.9391795709958473  0.3951960709297211  1.0000
  H   H22       1.0  0.429395562343835  0.049021680502207184  0.6195872603259147  1.0000
  H   H23       1.0  0.5974455101890257  0.7019926860889285  0.5861082846356709  1.0000
  H   H24       1.0  0.6099826715036657  0.286011192402313  0.4068572342759822  1.0000
  H   H25       1.0  0.5147995647598193  0.7672511362479638  0.2866444866440503  1.0000
  H   H26       1.0  0.4358918295594946  0.8595748695113838  0.2948256043308818  1.0000
  H   H27       1.0  0.37172228111160893  0.6715617291810927  0.2660692951811044  1.0000
  H   H28       1.0  0.29698054207405994  0.7653504333642686  0.26959410852789734  1.0000
  H   H29       1.0  0.39984601393171465  0.8257449606326616  0.15172777124396222  1.0000
  H   H30       1.0  0.3501050705650571  0.722437084281715  0.1310641922695268  1.0000
  H   H31       1.0  0.47293892596037773  0.7302599329259322  0.1487448136419545  1.0000
  H   H32       1.0  0.5283010479300643  0.30742443216572457  0.6556508128025129  1.0000
  H   H33       1.0  0.5373444178416521  0.2052509092784192  0.7035016244360293  1.0000
  H   H34       1.0  0.3846923784232247  0.3478488413225093  0.7437443091679159  1.0000
  H   H35       1.0  0.3820965822370254  0.24381839870814298  0.787580866797086  1.0000
  H   H36       1.0  0.5414900784883513  0.2732565976134182  0.8392995174975725  1.0000
  H   H37       1.0  0.4597850431937972  0.3595166416999617  0.8683803186133262  1.0000
  H   H38       1.0  0.5510523124467213  0.37521946671918005  0.7907845322637288  1.0000
  C   C1        1.0  0.4960731144662915  0.6644105206554299  0.496843148017632  1.0000
  C   C2        1.0  0.5009386984100388  0.32307636695281167  0.5092909164766581  1.0000
  C   C3        1.0  0.5433063340494684  0.8980205576957871  0.5566739970857881  1.0000
  C   C4        1.0  0.5484479629459501  0.09006992903105979  0.44106080975237216  1.0000
  C   C5        1.0  0.545411175872168  0.8068106270804237  0.5528197076146952  1.0000
  C   C6        1.0  0.5535484340405715  0.18120624211719158  0.4465871127287074  1.0000
  C   C7        1.0  0.4984714059138113  0.7611886474273817  0.49529954745356974  1.0000
  C   C8        1.0  0.505342955205478  0.22610532284352297  0.5114148382936251  1.0000
  C   C9        1.0  0.4576945802113812  0.8103083395626455  0.4380207438184698  1.0000
  C   C10       1.0  0.46168124227997964  0.17649547292147358  0.5737684598043202  1.0000
  C   C11       1.0  0.4622385812421115  0.9015134823912305  0.4391535170433586  1.0000
  C   C12       1.0  0.4624066698535075  0.0855708169844362  0.5700930952061541  1.0000
  C   C13       1.0  0.5027755302045734  0.945333704643744  0.4995419738358535  1.0000
  C   C14       1.0  0.5035359143708646  0.04207885922883749  0.502900206794962  1.0000
  C   C15       1.0  0.8898514337758244  0.5352330597877993  0.5592676586931662  1.0000
  C   C16       1.0  0.10796699023951112  0.4144979970012271  0.48131973636377984  1.0000
  C   C17       1.0  0.7900252762200354  0.5339590304154029  0.5586979525198928  1.0000
  C   C18       1.0  0.20776411683043255  0.41639294269479166  0.4827565620828764  1.0000
  C   C19       1.0  0.8017902389016031  0.4512425836732348  0.4451274254905044  1.0000
  C   C20       1.0  0.2046033861991177  0.5643018973312904  0.5144411581287329  1.0000
  C   C21       1.0  0.9019835057343926  0.4482418987554411  0.4422861546924892  1.0000
  C   C22       1.0  0.10452765393714002  0.5670531979051319  0.5158293295022389  1.0000
  C   C23       1.0  0.4829978041383002  0.5155754766487846  0.65126953441289  1.0000
  C   C24       1.0  0.5218731522998753  0.498286814435751  0.3524774085216791  1.0000
  C   C25       1.0  0.9479421986521075  0.4913735974930162  0.5001576773283817  1.0000
  C   C26       1.0  0.0542516821685766  0.49090731512110614  0.49898986322380523  1.0000
  C   C27       1.0  0.4793740153491939  0.5412530836823065  0.7348585908720082  1.0000
  C   C28       1.0  0.5271343071556487  0.5165663178827556  0.26762390749470916  1.0000
  C   C29       1.0  0.5653698173148385  0.5556920356469988  0.7691573328421484  1.0000
  C   C30       1.0  0.44660650028084353  0.5011935001389745  0.226678760526049  1.0000
  C   C31       1.0  0.5633216461197392  0.571747058857845  0.8481743322442485  1.0000
  C   C32       1.0  0.4511094183391365  0.5185670910053799  0.147977358854682  1.0000
  C   C33       1.0  0.47486129699945684  0.571838121782072  0.8961789989858319  1.0000
  C   C34       1.0  0.5362268016283025  0.5521341507822298  0.10731553262392882  1.0000
  C   C35       1.0  0.3886977792564111  0.5627190806831095  0.8603425173810921  1.0000
  C   C36       1.0  0.6166164971470565  0.5673375884871062  0.1490922411601048  1.0000
  C   C37       1.0  0.3906774000782037  0.5480524187450727  0.7808667647588265  1.0000
  C   C38       1.0  0.6120048899108285  0.5503619079576936  0.22809326716892286  1.0000
  C   C39       1.0  0.46906376683487844  0.5725309750243424  0.9804780498138328  1.0000
  C   C40       1.0  0.5442368617666489  0.5671309132419182  0.024066254078952888  1.0000
  C   C41       1.0  0.4393000559858464  0.7883125623666841  0.3028090059843721  1.0000
  C   C42       1.0  0.3711233400309055  0.7417036673725192  0.2530388056874458  1.0000
  C   C43       1.0  0.40015593140972777  0.7560138364135937  0.16652068712169676  1.0000
  C   C44       1.0  0.4862180385743358  0.2559687288119434  0.6881099186988495  1.0000
  C   C45       1.0  0.4307505270616189  0.2942757124696698  0.7605832957959395  1.0000
  C   C46       1.0  0.49960080041351057  0.32724196644974046  0.8179101466238947  1.0000
  N   N1        1.0  0.7469430272807642  0.4930442858110098  0.5024561901897044  1.0000
  N   N2        1.0  0.2549151919260524  0.49004098277446667  0.4989737163855423  1.0000
  O   O1        1.0  0.42364055873645157  0.622831738270193  0.47716986680656964  1.0000
  O   O2        1.0  0.579554802416226  0.3620785791662158  0.48195563600135227  1.0000
  O   O3        1.0  0.5706627555467918  0.6272232478159622  0.5217515274345246  1.0000
  O   O4        1.0  0.42198948815965304  0.3618499550841889  0.5303758904782043  1.0000
  O   O5        1.0  0.40631992238235887  0.52490076580672  0.6178998101400168  1.0000
  O   O6        1.0  0.5976374965558762  0.5150837156108139  0.38608001706014516  1.0000
  O   O7        1.0  0.5634983142061429  0.4851257825921491  0.6193514505954809  1.0000
  O   O8        1.0  0.44273185943678334  0.46843483170705724  0.385750932141896  1.0000
  O   O9        1.0  0.5929976806604599  0.7638624183606382  0.605505540789423  1.0000
  O   O10       1.0  0.6041951256394994  0.22498120309632694  0.38766512727442404  1.0000
  O   O11       1.0  0.41275085022900987  0.76554652493526  0.3827500497811869  1.0000
  O   O12       1.0  0.41857122293758653  0.2159568290112475  0.640430994873235  1.0000
