data_image0
_chemical_formula_structural       Zn2H16C24N4O12
_chemical_formula_sum              "Zn2 H16 C24 N4 O12"
_cell_length_a       7.251568550531922
_cell_length_b       7.251595172370943
_cell_length_c       12.502059698884024
_cell_angle_alpha    100.36287501665656
_cell_angle_beta     100.3626043835973
_cell_angle_gamma    90.32750877872911

_space_group_name_H-M_alt    "P 1"
_space_group_IT_number       1

loop_
  _space_group_symop_operation_xyz
  'x, y, z'

loop_
  _atom_site_type_symbol
  _atom_site_label
  _atom_site_symmetry_multiplicity
  _atom_site_fract_x
  _atom_site_fract_y
  _atom_site_fract_z
  _atom_site_occupancy
  Zn  Zn1       1.0  0.8377185757409578  0.16227935370953622  0.7499943576340939  1.0000
  Zn  Zn2       1.0  0.16226661978966922  0.837719067707745  0.25000216521590346  1.0000
  H   H1        1.0  0.1879226277803241  0.3519646165397887  0.4388712837237065  1.0000
  H   H2        1.0  0.6480599249024053  0.8120942040821364  0.061123538013028195  1.0000
  H   H3        1.0  0.8120771995273517  0.6480477705065938  0.5611281886933952  1.0000
  H   H4        1.0  0.3519543843699395  0.18789705642213764  0.9388720495622778  1.0000
  H   H5        1.0  0.7695883951983475  0.20775648948951897  0.5108575174763033  1.0000
  H   H6        1.0  0.7922537404774417  0.2304289130977466  0.9891546244149935  1.0000
  H   H7        1.0  0.2304033433121759  0.7922307040043535  0.48914572099748443  1.0000
  H   H8        1.0  0.20774713429610614  0.7695750651999094  0.010848088103884419  1.0000
  H   H9        1.0  0.4311068828029291  0.16137707598926454  0.7405163979202598  1.0000
  H   H10       1.0  0.8386133873008532  0.5688701949748278  0.759469176611219  1.0000
  H   H11       1.0  0.5688716277891216  0.8386284073245565  0.2594841631786693  1.0000
  H   H12       1.0  0.16139214595857954  0.4311126892091793  0.2405254417259215  1.0000
  H   H13       1.0  0.6311052657083067  0.2998814294585799  0.3504587800061429  1.0000
  H   H14       1.0  0.7001600920699926  0.36892887641715794  0.1495588673920452  1.0000
  H   H15       1.0  0.3688921316480815  0.7001071322878191  0.6495427836315953  1.0000
  H   H16       1.0  0.2998603619861838  0.6310736279666713  0.8504505117503243  1.0000
  C   C1        1.0  0.10664447031022212  0.28471867752222113  0.6369373699823129  1.0000
  C   C2        1.0  0.7153149300298837  0.8933536599976792  0.863054666030756  1.0000
  C   C3        1.0  0.8933410938263504  0.7153204203216036  0.3630593869665404  1.0000
  C   C4        1.0  0.2846881322789939  0.1066362761156228  0.13694682377513348  1.0000
  C   C5        1.0  0.28622806369239123  0.25640588851482704  0.5931649692476454  1.0000
  C   C6        1.0  0.7435896827110753  0.7137758981857374  0.9068306468654369  1.0000
  C   C7        1.0  0.7137616073661731  0.7435981499912289  0.4068389935414416  1.0000
  C   C8        1.0  0.25642665687136906  0.2861971388213718  0.09317046935912289  1.0000
  C   C9        1.0  0.30497784018304935  0.2983111841630049  0.49103198116759467  1.0000
  C   C10       1.0  0.7016973752060095  0.6950362407987286  0.008965463680127104  1.0000
  C   C11       1.0  0.6950289829582063  0.7017011587565918  0.5089650087636741  1.0000
  C   C12       1.0  0.29830458112196107  0.3049607041779865  0.9910334354738737  1.0000
  C   C13       1.0  0.479609088237865  0.2742204343023076  0.4587888032259713  1.0000
  C   C14       1.0  0.725801575429166  0.520418538438186  0.041213541608463786  1.0000
  C   C15       1.0  0.5203905945599558  0.7257891254587037  0.5412047635720683  1.0000
  C   C16       1.0  0.27421195707714213  0.47958676704239883  0.9587858140906249  1.0000
  C   C17       1.0  0.6299024826776429  0.21923768278913514  0.5315938105986575  1.0000
  C   C18       1.0  0.780758024593453  0.3700991619820115  0.9684034358361941  1.0000
  C   C19       1.0  0.3700839974322889  0.7807579324778972  0.4684041550556373  1.0000
  C   C20       1.0  0.2192367420359886  0.6298936091223696  0.031595091140751215  1.0000
  C   C21       1.0  0.4404770540299836  0.19642290500689802  0.6605406778937137  1.0000
  C   C22       1.0  0.803574000631251  0.5595247936204473  0.8394569512016047  1.0000
  C   C23       1.0  0.5595070014311929  0.8035811498459964  0.3394603077710556  1.0000
  C   C24       1.0  0.1964312553195811  0.4404511064228985  0.1605449168954749  1.0000
  N   N1        1.0  0.6098344824232241  0.18382814262726296  0.6309325537460707  1.0000
  N   N2        1.0  0.8161708542514033  0.39016901587285696  0.8690724000751686  1.0000
  N   N3        1.0  0.39016042871606516  0.8161674557624822  0.36907187884994397  1.0000
  N   N4        1.0  0.18383202945907587  0.6098167175272878  0.13093023757829772  1.0000
  O   O1        1.0  0.0579785149871697  0.14533357255187707  0.6793108180282773  1.0000
  O   O2        1.0  0.8546993610796106  0.9420031970867202  0.8206769257905008  1.0000
  O   O3        1.0  0.9420111430540531  0.8547027124968738  0.3206892705380753  1.0000
  O   O4        1.0  0.14530628004995091  0.0579824776963562  0.1793139921405711  1.0000
  O   O5        1.0  0.022372943880476708  0.43316678700195876  0.6313083412320353  1.0000
  O   O6        1.0  0.5668667275067351  0.9776424714214967  0.8686802015110755  1.0000
  O   O7        1.0  0.9776243697303144  0.5668526091730471  0.368686795624491  1.0000
  O   O8        1.0  0.433156185286748  0.022352968804263195  0.13131910415417278  1.0000
  O   O9        1.0  0.4999390925554081  0.3109646031165029  0.3585061168950929  1.0000
  O   O10       1.0  0.6890301954195194  0.5000925799328116  0.141504260453523  1.0000
  O   O11       1.0  0.5000599496303976  0.6890295609631564  0.6414953943538676  1.0000
  O   O12       1.0  0.31096692382417496  0.4999212564443951  0.8585038807297991  1.0000
