data_image0
_chemical_formula_structural       Cd4H26C36N6O14
_chemical_formula_sum              "Cd4 H26 C36 N6 O14"
_cell_length_a       9.155541558225124
_cell_length_b       10.160833663580947
_cell_length_c       11.373732459586483
_cell_angle_alpha    106.85010927529147
_cell_angle_beta     99.05708495224252
_cell_angle_gamma    106.11364333385944

_space_group_name_H-M_alt    "P 1"
_space_group_IT_number       1

loop_
  _space_group_symop_operation_xyz
  'x, y, z'

loop_
  _atom_site_type_symbol
  _atom_site_label
  _atom_site_symmetry_multiplicity
  _atom_site_fract_x
  _atom_site_fract_y
  _atom_site_fract_z
  _atom_site_occupancy
  Cd  Cd1       1.0  0.31488881555014103  0.3171120765648824  0.19846038898572974  1.0000
  Cd  Cd2       1.0  0.6851034657997631  0.6828865191828016  0.801540110080694  1.0000
  Cd  Cd3       1.0  0.41637773346291607  0.6445323986545974  0.5155453395607738  1.0000
  Cd  Cd4       1.0  0.5836193605716744  0.3554673467858437  0.48445427751526193  1.0000
  H   H1        1.0  0.03883921673371305  0.620495502256425  0.45610040106571154  1.0000
  H   H2        1.0  0.9611564303773151  0.37949996271214576  0.5439041216345757  1.0000
  H   H3        1.0  0.8636982816989018  0.7414594881188067  0.37203246109829285  1.0000
  H   H4        1.0  0.1363074441544612  0.2585459063752964  0.6279731442154386  1.0000
  H   H5        1.0  0.9832870190936661  0.9445911297595728  0.2926643255781797  1.0000
  H   H6        1.0  0.016717607592390504  0.05541103732333141  0.7073438538447406  1.0000
  H   H7        1.0  0.43062091898444527  0.8962529684425677  0.4027083374302549  1.0000
  H   H8        1.0  0.5693775815260409  0.10373488768818363  0.5972911104923639  1.0000
  H   H9        1.0  0.08536440922532762  0.29239085246966573  0.9431247293907675  1.0000
  H   H10       1.0  0.9146370988385328  0.7076153756404724  0.05686913809844195  1.0000
  H   H11       1.0  0.8299484230638045  0.3244115538188694  0.863838825093069  1.0000
  H   H12       1.0  0.17004946401048224  0.6755936408659339  0.13616225435627172  1.0000
  H   H13       1.0  0.6638124804504744  0.3713197036967487  0.01461934282176003  1.0000
  H   H14       1.0  0.33619281629852793  0.6286877625262975  0.9853805740152808  1.0000
  H   H15       1.0  0.022599784946734796  0.369123001612401  0.3070838540204903  1.0000
  H   H16       1.0  0.9773972115606852  0.6308734007050278  0.6929096376521287  1.0000
  H   H17       1.0  0.20549344850198994  0.9901999823504327  0.9841016425782101  1.0000
  H   H18       1.0  0.7945036424424288  0.009802983400490503  0.015896143116471303  1.0000
  H   H19       1.0  0.22922748364728562  0.8697567829812983  0.7630852478168749  1.0000
  H   H20       1.0  0.7707693011695228  0.13024840460277434  0.23691657436029354  1.0000
  H   H21       1.0  0.34894041155256167  0.027607501030622913  0.6473280827413959  1.0000
  H   H22       1.0  0.6510562900069488  0.9723911367658005  0.3526703295009099  1.0000
  H   H23       1.0  0.41638688461365103  0.40261840995861325  0.9761912324197795  1.0000
  H   H24       1.0  0.5836168981335561  0.5973846939175262  0.02380828551832077  1.0000
  H   H25       1.0  0.274886126223798  0.3441122316917318  0.44018335079317694  1.0000
  H   H26       1.0  0.7251124320944058  0.6558853672454674  0.5598159075085364  1.0000
  C   C1        1.0  0.085806216537172  0.7100340647101576  0.42290666718882625  1.0000
  C   C2        1.0  0.914186321222168  0.28995580035422114  0.5770890377218407  1.0000
  C   C3        1.0  0.9887690079924099  0.7774122485795943  0.37544971384938475  1.0000
  C   C4        1.0  0.011229467068496014  0.22257880056995566  0.6245461345174661  1.0000
  C   C5        1.0  0.05436988160114717  0.8901362225878773  0.33257864799414  1.0000
  C   C6        1.0  0.9456309066815861  0.10985819753197754  0.6674227244076718  1.0000
  C   C7        1.0  0.21588099491431484  0.9349247604320469  0.3414341967958451  1.0000
  C   C8        1.0  0.7841198878054172  0.06507622312130222  0.6585714696280291  1.0000
  C   C9        1.0  0.3043558711321027  0.8632746980389571  0.3926475361674521  1.0000
  C   C10       1.0  0.6956412595317688  0.13672186802853056  0.6073565645515515  1.0000
  C   C11       1.0  0.29458748941156193  0.05718237060584391  0.2980456124374271  1.0000
  C   C12       1.0  0.7054167000805976  0.9428186342496904  0.701957825802964  1.0000
  C   C13       1.0  0.01069374321908615  0.31649287920787844  0.006144611869913828  1.0000
  C   C14       1.0  0.9893014300687568  0.6835046029062825  0.9938506860048975  1.0000
  C   C15       1.0  0.8683007345659064  0.33222128686692554  0.9618697177892913  1.0000
  C   C16       1.0  0.1316989757279501  0.6677828280211457  0.03812955545786421  1.0000
  C   C17       1.0  0.7762337025762208  0.359320676967272  0.04584309976398526  1.0000
  C   C18       1.0  0.22376752480960257  0.640684579957224  0.954158403763465  1.0000
  C   C19       1.0  0.8287765211102567  0.3708944557974548  0.17186139114305377  1.0000
  C   C20       1.0  0.1712265264049791  0.6291129416407915  0.8281364748008501  1.0000
  C   C21       1.0  0.9756749735724882  0.35833092070349454  0.20912072479212182  1.0000
  C   C22       1.0  0.024325404875121116  0.641668818747455  0.790874895926038  1.0000
  C   C23       1.0  0.7234083449656126  0.3867868595558194  0.2607662768062937  1.0000
  C   C24       1.0  0.27659612520457705  0.6132151164853499  0.7392295253958495  1.0000
  C   C25       1.0  0.2573100725680818  0.05376183803852541  0.9291013113153426  1.0000
  C   C26       1.0  0.7426929892170192  0.9462423527350765  0.07089927009712234  1.0000
  C   C27       1.0  0.2707027664689436  0.9882054360640429  0.8072994116217773  1.0000
  C   C28       1.0  0.7293040392824822  0.011799938239114705  0.1927036827897268  1.0000
  C   C29       1.0  0.3382517461691563  0.07642130649276883  0.7428548519398747  1.0000
  C   C30       1.0  0.6617509038716277  0.923578529034657  0.2571445878458221  1.0000
  C   C31       1.0  0.3955712162017805  0.22855890280349916  0.8031378310526591  1.0000
  C   C32       1.0  0.6044310637233323  0.7714398523715859  0.19686217207370052  1.0000
  C   C33       1.0  0.376663404327708  0.28503540083230666  0.924969309893669  1.0000
  C   C34       1.0  0.6233407597148715  0.7149687970420263  0.07503052879096839  1.0000
  C   C35       1.0  0.48154608926930814  0.32864111922550887  0.7415818481993881  1.0000
  C   C36       1.0  0.5184510494841064  0.6713586807982922  0.2584213052254468  1.0000
  N   N1        1.0  0.2412804924282456  0.751675465963672  0.4305880132311302  1.0000
  N   N2        1.0  0.7587144113612682  0.248321058610685  0.5694158047691289  1.0000
  N   N3        1.0  0.06429027651335424  0.3306571808986974  0.1278453083323612  1.0000
  N   N4        1.0  0.9357071764572069  0.6693436312482606  0.8721528613158186  1.0000
  N   N5        1.0  0.3081957171336214  0.20018569237112163  0.9861238661659897  1.0000
  N   N6        1.0  0.6918095603461366  0.7998185262497728  0.013876113878019652  1.0000
  O   O1        1.0  0.4431887162711305  0.11618590568701141  0.3395999532175296  1.0000
  O   O2        1.0  0.5568169375046425  0.8838129526652811  0.6604031262485394  1.0000
  O   O3        1.0  0.20456245410743182  0.09057529648298161  0.2231858110647309  1.0000
  O   O4        1.0  0.7954438759116228  0.9094224203884952  0.7768126685781809  1.0000
  O   O5        1.0  0.779175718443028  0.4013414638189873  0.37578088426504763  1.0000
  O   O6        1.0  0.22082125070562603  0.5986484569399694  0.6242136179087012  1.0000
  O   O7        1.0  0.5868730623452123  0.38049440041218224  0.21235569697599033  1.0000
  O   O8        1.0  0.4131338123936389  0.6195207303432683  0.7876480919018223  1.0000
  O   O9        1.0  0.4309605171265005  0.2886278129233021  0.6215191272793916  1.0000
  O   O10       1.0  0.5690347455989767  0.7113697783575647  0.3784832432930045  1.0000
  O   O11       1.0  0.5982386167206287  0.4391710037260952  0.8147622188118008  1.0000
  O   O12       1.0  0.40175807365917393  0.5608276204244903  0.18523530934331237  1.0000
  O   O13       1.0  0.3512974185373708  0.40322204086775343  0.4088088811684969  1.0000
  O   O14       1.0  0.6487026264238551  0.5967734388578877  0.5911917865332869  1.0000
