data_image0
_chemical_formula_structural       Al4H48C58O20
_chemical_formula_sum              "Al4 H48 C58 O20"
_cell_length_a       6.649590499028378
_cell_length_b       17.374204688697898
_cell_length_c       19.023248510387777
_cell_angle_alpha    70.30851085625937
_cell_angle_beta     90.00675333910739
_cell_angle_gamma    90.01076695921991

_space_group_name_H-M_alt    "P 1"
_space_group_IT_number       1

loop_
  _space_group_symop_operation_xyz
  'x, y, z'

loop_
  _atom_site_type_symbol
  _atom_site_label
  _atom_site_symmetry_multiplicity
  _atom_site_fract_x
  _atom_site_fract_y
  _atom_site_fract_z
  _atom_site_occupancy
  Al  Al1       1.0  0.8661779066562546  0.5008348364482555  0.4992846211323185  1.0000
  Al  Al2       1.0  0.36617248607302594  0.49915351363679844  0.5007183577623239  1.0000
  Al  Al3       1.0  0.36314125478062215  0.001898304953201054  0.9980335837136993  1.0000
  Al  Al4       1.0  0.8631606464428998  0.9981090649655614  0.001944636655011299  1.0000
  H   H1        1.0  0.8259612576292882  0.08485878866878238  0.18160270697215716  1.0000
  H   H2        1.0  0.32593303721115763  0.9150445658940712  0.8184190014698416  1.0000
  H   H3        1.0  0.40141211619592804  0.18373395740396598  0.09342981660085313  1.0000
  H   H4        1.0  0.9014930088927358  0.8163158086150303  0.9065627979467977  1.0000
  H   H5        1.0  0.559480755349476  0.2934028531283062  0.1327067615563777  1.0000
  H   H6        1.0  0.059504056585915094  0.7066277466796224  0.8673493548375435  1.0000
  H   H7        1.0  0.5602066469526363  0.3780782878744944  0.21427376171946835  1.0000
  H   H8        1.0  0.0602714887684783  0.6219442318838518  0.7857857881684114  1.0000
  H   H9        1.0  0.4044224523560018  0.415231323019178  0.31830806030810527  1.0000
  H   H10       1.0  0.9045672579245477  0.584798036688987  0.6817243542495534  1.0000
  H   H11       1.0  0.8264167230058065  0.3179579899137509  0.4050343341638795  1.0000
  H   H12       1.0  0.3265483173602775  0.6819757142416876  0.5949559712369636  1.0000
  H   H13       1.0  0.6681405815385945  0.20845396066084734  0.3657215137668716  1.0000
  H   H14       1.0  0.16824405413469629  0.7914575818133328  0.6342593566398096  1.0000
  H   H15       1.0  0.6680447506443628  0.12335526372157084  0.2844636135975876  1.0000
  H   H16       1.0  0.16806016513329072  0.8765266386959071  0.7155419885618955  1.0000
  H   H17       1.0  0.36539489749083026  0.1442000420805626  0.769640554779251  1.0000
  H   H18       1.0  0.8668350723514777  0.855380740657992  0.23003012684106497  1.0000
  H   H19       1.0  0.13362425832850994  0.11258565626227574  0.7428887246189222  1.0000
  H   H20       1.0  0.6361157013361236  0.8874728682742512  0.25709807880439683  1.0000
  H   H21       1.0  0.14116193492978374  0.22327691672214914  0.631876135692579  1.0000
  H   H22       1.0  0.6432496003418464  0.7767695992763777  0.3680882095001366  1.0000
  H   H23       1.0  0.37110719227424477  0.25632369922609394  0.6587163150888388  1.0000
  H   H24       1.0  0.872350559196242  0.7433275783403275  0.3410380413245165  1.0000
  H   H25       1.0  0.3811040113566761  0.23847891481754863  0.8356082639017259  1.0000
  H   H26       1.0  0.8797307349317193  0.7611661056785975  0.16400729707432765  1.0000
  H   H27       1.0  0.37314630493101225  0.3550436403623109  0.7309606091857079  1.0000
  H   H28       1.0  0.8719717096578634  0.6446917872866891  0.2687312956805954  1.0000
  H   H29       1.0  0.8083297169864708  0.22999689896195008  0.8314543303973567  1.0000
  H   H30       1.0  0.3070482534583263  0.7707169102515506  0.16905043750864485  1.0000
  H   H31       1.0  0.8082630443420199  0.16260240726835204  0.7806925713075403  1.0000
  H   H32       1.0  0.3092714351404452  0.8379685197096762  0.2199486785692528  1.0000
  H   H33       1.0  0.8096981734132883  0.27377318871572237  0.6695640317161706  1.0000
  H   H34       1.0  0.31043039074570083  0.7265796926400441  0.33091262672894584  1.0000
  H   H35       1.0  0.8138764356546134  0.34142002084990947  0.7204039407048344  1.0000
  H   H36       1.0  0.3131713644698948  0.6590728143316723  0.27992306447539056  1.0000
  H   H37       1.0  0.1430149160285978  0.38637137949807254  0.7593040251613985  1.0000
  H   H38       1.0  0.641005612615814  0.6136082415207298  0.24074213475559963  1.0000
  H   H39       1.0  0.24246643178857852  0.33350708459327894  0.8966579575053546  1.0000
  H   H40       1.0  0.9940589535408294  0.3046965893828712  0.8827019230657814  1.0000
  H   H41       1.0  0.1604563334705986  0.23190576686021566  0.943200502156991  1.0000
  H   H42       1.0  0.7385481347484132  0.6662880565303624  0.10326525581315592  1.0000
  H   H43       1.0  0.4908213468324334  0.6954758074627421  0.11762695534144291  1.0000
  H   H44       1.0  0.6572143690835901  0.7680020767673598  0.05680121304089171  1.0000
  H   H45       1.0  0.6192706088994199  0.394255065576786  0.5424791783352562  1.0000
  H   H46       1.0  0.11934409092522462  0.6056934607944271  0.45738105489893144  1.0000
  H   H47       1.0  0.619853441141295  0.10582267625286325  0.9578486143165823  1.0000
  H   H48       1.0  0.11972977438859542  0.89419912914898  0.04221420722701201  1.0000
  C   C1        1.0  0.6143601432089412  0.6154725869511138  0.38425311941729506  1.0000
  C   C2        1.0  0.1143742785956263  0.38454329877954757  0.615768919853217  1.0000
  C   C3        1.0  0.616368694590186  0.5800084049935066  0.5830366644248671  1.0000
  C   C4        1.0  0.1162937811069256  0.4199780632282072  0.41696843248184484  1.0000
  C   C5        1.0  0.9516071203403412  0.1252605106494826  0.18153728203585473  1.0000
  C   C6        1.0  0.45160341023748174  0.8746753269213056  0.8184814639295868  1.0000
  C   C7        1.0  0.11379371622868462  0.1299661877989209  0.13336031562511153  1.0000
  C   C8        1.0  0.6138398772716799  0.8700186714058872  0.8666374672935078  1.0000
  C   C9        1.0  0.2762725052884747  0.18199256983793077  0.1309959265671736  1.0000
  C   C10       1.0  0.7763299816359533  0.8180265273417432  0.8690091167659236  1.0000
  C   C11       1.0  0.2770704887180244  0.23223527633746238  0.17527509151056364  1.0000
  C   C12       1.0  0.7771260793988334  0.7677641403857364  0.8247496254976455  1.0000
  C   C13       1.0  0.11402828446113489  0.22634090359192532  0.2259631464181169  1.0000
  C   C14       1.0  0.6140775173058939  0.7736276984052213  0.7740542616676578  1.0000
  C   C15       1.0  0.9510210933432646  0.1712333670057333  0.22963960236793923  1.0000
  C   C16       1.0  0.45104951769407364  0.8287067492594247  0.7703735212648299  1.0000
  C   C17       1.0  0.43613790080063813  0.2892126740389073  0.17167858823122373  1.0000
  C   C18       1.0  0.936174504468255  0.7108026810870598  0.8283634358668909  1.0000
  C   C19       1.0  0.4364254621695877  0.3359932677262378  0.21669434945658858  1.0000
  C   C20       1.0  0.9364944984198686  0.6640192746751126  0.7833443689534295  1.0000
  C   C21       1.0  0.2775100097899568  0.33005761804015077  0.26927151356828466  1.0000
  C   C22       1.0  0.7776069167681712  0.6699474298130069  0.7307520603410683  1.0000
  C   C23       1.0  0.11409987955767062  0.2752075718999123  0.2726917493087769  1.0000
  C   C24       1.0  0.6141863854059295  0.7247692224794307  0.7273189147394279  1.0000
  C   C25       1.0  0.9509252687309983  0.2693481859473081  0.3233113054684297  1.0000
  C   C26       1.0  0.45101450857912073  0.730606591306781  0.6766866654860169  1.0000
  C   C27       1.0  0.7916518460659603  0.21249013806998107  0.3268416932959326  1.0000
  C   C28       1.0  0.29173447249043255  0.7874388646319161  0.6731518466033961  1.0000
  C   C29       1.0  0.79173571338589  0.1654936255351416  0.2820275548955139  1.0000
  C   C30       1.0  0.291778431537594  0.8344224479739354  0.7179811233447425  1.0000
  C   C31       1.0  0.2778367565670834  0.37543469871323515  0.3179142559217781  1.0000
  C   C32       1.0  0.7779538957539672  0.6245757246652841  0.6820992662304806  1.0000
  C   C33       1.0  0.11537352712527849  0.37084982785561493  0.36592686473913727  1.0000
  C   C34       1.0  0.6155399682878908  0.6291372321603106  0.6340731858801193  1.0000
  C   C35       1.0  0.9519894161441158  0.3194418765453122  0.3677085995451535  1.0000
  C   C36       1.0  0.45210688586043796  0.6805179992302258  0.6322882550432284  1.0000
  C   C37       1.0  0.2123305309793508  0.16479665993374232  0.7507273726264289  1.0000
  C   C38       1.0  0.7137047255068578  0.835092564881471  0.24916623892657697  1.0000
  C   C39       1.0  0.21602226710570702  0.23859526191895944  0.677046411799637  1.0000
  C   C40       1.0  0.7172901336690103  0.761312596015081  0.32285385732086525  1.0000
  C   C41       1.0  0.22503594493802132  0.26035818452731957  0.8240521930132233  1.0000
  C   C42       1.0  0.7235796466336382  0.739514686875104  0.17584474471028244  1.0000
  C   C43       1.0  0.8889001627096036  0.2148663473217311  0.7874303317854798  1.0000
  C   C44       1.0  0.3888035342279749  0.7855949243519545  0.21297814322980466  1.0000
  C   C45       1.0  0.10504314001632761  0.18840731981816805  0.8126945153197627  1.0000
  C   C46       1.0  0.6049081864539899  0.8116729540469834  0.18736227869413827  1.0000
  C   C47       1.0  0.10848563726930388  0.3124162055537879  0.6883500420597674  1.0000
  C   C48       1.0  0.6084992023246585  0.6876512716470061  0.3117047580280286  1.0000
  C   C49       1.0  0.22021140545831494  0.33444991855514417  0.7501716085696801  1.0000
  C   C50       1.0  0.7189810557283565  0.6654468008080415  0.2497411048566606  1.0000
  C   C51       1.0  0.8909812139511857  0.2883374585324887  0.713808263921429  1.0000
  C   C52       1.0  0.3909618137260508  0.712023228717584  0.2865204038547517  1.0000
  C   C53       1.0  0.6125705746054138  0.9196396124342952  0.9172184835092668  1.0000
  C   C54       1.0  0.11242376261154868  0.08038123524559639  0.08274778281386833  1.0000
  C   C55       1.0  0.6097789050569986  0.8844095838635082  0.11541235537456636  1.0000
  C   C56       1.0  0.1100406850511533  0.11562513414323655  0.884602687734571  1.0000
  C   C57       1.0  0.151027643464559  0.28348694484873244  0.8904330913077704  1.0000
  C   C58       1.0  0.6479787638524356  0.7164595593236031  0.10961249927906638  1.0000
  O   O1        1.0  0.44560821157774905  0.5624566880874582  0.5621176989741913  1.0000
  O   O2        1.0  0.9454707545385617  0.43754245342771003  0.43787247343052377  1.0000
  O   O3        1.0  0.7863877768778594  0.5891204494787983  0.4115198031346382  1.0000
  O   O4        1.0  0.286318199269445  0.41087570516836547  0.5884857927296566  1.0000
  O   O5        1.0  0.7875178643305604  0.5610847322939349  0.5635830251416678  1.0000
  O   O6        1.0  0.2873882452554781  0.4389013115392614  0.43642213722865375  1.0000
  O   O7        1.0  0.9468689545704906  0.4133776913155457  0.5865088006795603  1.0000
  O   O8        1.0  0.4469395016008236  0.5866126364714077  0.4134853902545644  1.0000
  O   O9        1.0  0.6166031151026558  0.4504645943735781  0.5092041399071406  1.0000
  O   O10       1.0  0.1166233052151  0.5495345813639716  0.4907769266794873  1.0000
  O   O11       1.0  0.7825365555091467  0.9108637470921934  0.08933671358967393  1.0000
  O   O12       1.0  0.2827568634225486  0.08890236797019917  0.9104229388516105  1.0000
  O   O13       1.0  0.44151194332082605  0.9415069525591448  0.933894126931982  1.0000
  O   O14       1.0  0.9412988118140008  0.058188974981334185  0.06637282247129411  1.0000
  O   O15       1.0  0.4430992763538484  0.9136496284216521  0.08547677633907112  1.0000
  O   O16       1.0  0.9433569200467318  0.08658850982421722  0.9147490285131004  1.0000
  O   O17       1.0  0.2822800316445324  0.065743130230743  0.05889802312398731  1.0000
  O   O18       1.0  0.7826209880007795  0.9346105640339105  0.9407515703635314  1.0000
  O   O19       1.0  0.6146331932789836  0.04954204350499232  0.9908886360806906  1.0000
  O   O20       1.0  0.11461403578959312  0.9504538168620583  0.009110755200076405  1.0000
