data_image0
_chemical_formula_structural       Ag4H36C56N12O8F12
_chemical_formula_sum              "Ag4 H36 C56 N12 O8 F12"
_cell_length_a       10.749525080289837
_cell_length_b       11.418355579900911
_cell_length_c       14.1710277559597
_cell_angle_alpha    90.27509532491919
_cell_angle_beta     112.24766272925129
_cell_angle_gamma    118.09001666734245

_space_group_name_H-M_alt    "P 1"
_space_group_IT_number       1

loop_
  _space_group_symop_operation_xyz
  'x, y, z'

loop_
  _atom_site_type_symbol
  _atom_site_label
  _atom_site_symmetry_multiplicity
  _atom_site_fract_x
  _atom_site_fract_y
  _atom_site_fract_z
  _atom_site_occupancy
  Ag  Ag1       1.0  0.25957262165460543  0.3637484895966097  0.94448756222355  1.0000
  Ag  Ag2       1.0  0.45152131804201207  0.1364185440471886  0.5555496195612549  1.0000
  Ag  Ag3       1.0  0.7404276762940752  0.6362524793426871  0.055512218528377795  1.0000
  Ag  Ag4       1.0  0.5484771888123349  0.8635793689439523  0.44444963497001316  1.0000
  H   H1        1.0  0.9305639892711427  0.1518734924890666  0.389466740048185  1.0000
  H   H2        1.0  0.889023605626292  0.3480847180311812  0.11066353814587164  1.0000
  H   H3        1.0  0.06943712226239272  0.848126457800845  0.6105342759131531  1.0000
  H   H4        1.0  0.11097681136406828  0.6519152322587303  0.8893357776664246  1.0000
  H   H5        1.0  0.12955871256764345  0.4187412951979113  0.7230953194488237  1.0000
  H   H6        1.0  0.4878907794172704  0.0814318503421916  0.7769881884665679  1.0000
  H   H7        1.0  0.870439686010002  0.5812576364426221  0.276903405181173  1.0000
  H   H8        1.0  0.5121095077664393  0.9185691185971051  0.2230125871262416  1.0000
  H   H9        1.0  0.07384882778988804  0.3404142881757011  0.5403585579075028  1.0000
  H   H10       1.0  0.6930957735927804  0.1593086143370215  0.9596274582366675  1.0000
  H   H11       1.0  0.9261523920203487  0.6595846434648251  0.4596429879550925  1.0000
  H   H12       1.0  0.30690593497219965  0.8406923546022682  0.04037373313155969  1.0000
  H   H13       1.0  0.2976693678551784  0.106989763366613  0.6570952418030842  1.0000
  H   H14       1.0  0.03374013554445556  0.3931151326648106  0.842889378904964  1.0000
  H   H15       1.0  0.7023316246366776  0.8930112055726767  0.34290623909787143  1.0000
  H   H16       1.0  0.9662594570960721  0.6068858362744862  0.1571096965388179  1.0000
  H   H17       1.0  0.3508703579750475  0.2010640712036675  0.8367312499656165  1.0000
  H   H18       1.0  0.8134075104537859  0.2992333495611774  0.6632787182735315  1.0000
  H   H19       1.0  0.649129213135538  0.7989368977356222  0.16326981515993566  1.0000
  H   H20       1.0  0.1865900530090556  0.7007666007287341  0.3367207608288325  1.0000
  H   H21       1.0  0.8292408149481146  0.0704956305641815  0.16858705948945382  1.0000
  H   H22       1.0  0.09001779070044345  0.4295878738301937  0.3315989520515288  1.0000
  H   H23       1.0  0.1707595912772749  0.92950431972573  0.8314132511637312  1.0000
  H   H24       1.0  0.9099813131853483  0.5704110578103325  0.6684004778866209  1.0000
  H   H25       1.0  0.904003857443229  0.9871945088937366  0.04729564412023276  1.0000
  H   H26       1.0  0.3692368241644957  0.5128492184646092  0.4526651325576907  1.0000
  H   H27       1.0  0.09599785112175159  0.012806460045560198  0.9527055472479943  1.0000
  H   H28       1.0  0.6307615636481786  0.487149713175917  0.5473345869131947  1.0000
  H   H29       1.0  0.14789792309100136  0.9801220262261906  0.114266059627333  1.0000
  H   H30       1.0  0.5530361509126464  0.5196945423196979  0.3854385655499256  1.0000
  H   H31       1.0  0.8521030801658257  0.019878942713098997  0.885734426432741  1.0000
  H   H32       1.0  0.44696343096291713  0.4803064266195988  0.6145615047347377  1.0000
  H   H33       1.0  0.3259657378465874  0.0517117359380208  0.30541673210056075  1.0000
  H   H34       1.0  0.4682529883815079  0.44804478200435227  0.1942129341317056  1.0000
  H   H35       1.0  0.6740345493371223  0.948289233001276  0.6945840434922487  1.0000
  H   H36       1.0  0.5317480256402972  0.5519561869349445  0.8057865570874866  1.0000
  C   C1        1.0  0.1631853170304324  0.3480592517965988  0.70518522278644  1.0000
  C   C2        1.0  0.6101006361689941  0.15202425259777638  0.7948496438814345  1.0000
  C   C3        1.0  0.8368130707822345  0.6519396798439274  0.2948144966844524  1.0000
  C   C4        1.0  0.38989905398327107  0.847975697692135  0.205150956304486  1.0000
  C   C5        1.0  0.13215370731138887  0.303746984978126  0.6030460617451752  1.0000
  C   C6        1.0  0.7254248152334881  0.1960910249148995  0.8969372336864794  1.0000
  C   C7        1.0  0.8678440834698407  0.6962509280130149  0.3969534823188284  1.0000
  C   C8        1.0  0.27457499396044927  0.8039079067256266  0.10306290155982366  1.0000
  C   C9        1.0  0.1817419602165772  0.21622972322071377  0.5831891248416526  1.0000
  C   C10       1.0  0.8823211532381026  0.2836857040254372  0.9167827620824415  1.0000
  C   C11       1.0  0.8182572519459156  0.7837681897704272  0.4168108349977615  1.0000
  C   C12       1.0  0.117679871548674  0.7163152649138596  0.08321573429585528  1.0000
  C   C13       1.0  0.26175324956113144  0.1784958941189316  0.6689436031715559  1.0000
  C   C14       1.0  0.9144707074378573  0.3216110392112626  0.8310541952850556  1.0000
  C   C15       1.0  0.7382470376225783  0.821505074820365  0.3310571724212537  1.0000
  C   C16       1.0  0.08552828817123277  0.678388911078649  0.16894470475182996  1.0000
  C   C17       1.0  0.2884512765019025  0.2280134592855418  0.7685326324871937  1.0000
  C   C18       1.0  0.7921537561229358  0.2721953389829679  0.7314754094558182  1.0000
  C   C19       1.0  0.7115477083422093  0.7719864910043697  0.23146726239058074  1.0000
  C   C20       1.0  0.20784724713389116  0.7278056299563289  0.2685250766042557  1.0000
  C   C21       1.0  0.1536313655774962  0.1683236613783166  0.4774950775177943  1.0000
  C   C22       1.0  0.007572792900376165  0.3315632436851033  0.022499195497736883  1.0000
  C   C23       1.0  0.8463684436164414  0.8316752702622096  0.5225050577285018  1.0000
  C   C24       1.0  0.9924263109854154  0.668435687955423  0.9775002344404132  1.0000
  C   C25       1.0  0.03518388191125866  0.10373415993791468  0.30429729940850336  1.0000
  C   C26       1.0  0.1268306811777151  0.3962311811280088  0.1956955685855348  1.0000
  C   C27       1.0  0.9648153302512343  0.8962637530532261  0.6957026604309108  1.0000
  C   C28       1.0  0.873168411943098  0.6037677505125174  0.804304856193504  1.0000
  C   C29       1.0  0.9353304497334847  0.065186429978958  0.1976213980363752  1.0000
  C   C30       1.0  0.17225740831366926  0.4348135451660013  0.3024024804982588  1.0000
  C   C31       1.0  0.06466854587559831  0.9348135203109535  0.8023775020005104  1.0000
  C   C32       1.0  0.8277409794990049  0.565185386474532  0.6975972389726266  1.0000
  C   C33       1.0  0.9790879361149576  0.0201662018391602  0.13104706868037408  1.0000
  C   C34       1.0  0.3276025091311539  0.4798959109181665  0.3688803644898329  1.0000
  C   C35       1.0  0.0209117648022784  0.9798337484507512  0.8689525366646651  1.0000
  C   C36       1.0  0.6723958786815134  0.5201030207223596  0.6311193549810598  1.0000
  C   C37       1.0  0.11820616717684368  0.0155405149900574  0.16941619641363556  1.0000
  C   C38       1.0  0.4328620961112932  0.4844105649845005  0.33038334138549164  1.0000
  C   C39       1.0  0.8817955413881366  0.9844604539492322  0.8305849949545917  1.0000
  C   C40       1.0  0.5671368887328185  0.515589385305411  0.6696165534922827  1.0000
  C   C41       1.0  0.21812902872265738  0.0545344133788603  0.2755176863075235  1.0000
  C   C42       1.0  0.38763850267226735  0.4453514730351742  0.22426392615317783  1.0000
  C   C43       1.0  0.7818714857794266  0.9454645182616659  0.7244831542469259  1.0000
  C   C44       1.0  0.6123611874799975  0.5546484772547372  0.7757366740327498  1.0000
  C   C45       1.0  0.174196917197051  0.097728203174583  0.3437171822360696  1.0000
  C   C46       1.0  0.23240548025136581  0.40221676490367736  0.1562070412449117  1.0000
  C   C47       1.0  0.8258048021329004  0.9022727657647067  0.6562830142912617  1.0000
  C   C48       1.0  0.7675949259740237  0.5977831853862341  0.8437932694082733  1.0000
  C   C49       1.0  0.6155774120100261  0.33360054245149223  0.08081999356870276  1.0000
  C   C50       1.0  0.7014830470831512  0.1664411973181714  0.419488152478813  1.0000
  C   C51       1.0  0.3844215728340858  0.6663994078384121  0.9191799013090788  1.0000
  C   C52       1.0  0.29851807521535545  0.8335587529717401  0.5805118686416364  1.0000
  C   C53       1.0  0.5214926189083471  0.1819073509032592  0.086182210499274  1.0000
  C   C54       1.0  0.7534785292951511  0.3180203001354869  0.4138728037306905  1.0000
  C   C55       1.0  0.4785069629672093  0.8180936180360375  0.9138178597853895  1.0000
  C   C56       1.0  0.24652248472665414  0.6819806688038027  0.5861266874884947  1.0000
  N   N1        1.0  0.23909860999278007  0.31043849277634905  0.7873339091491118  1.0000
  N   N2        1.0  0.6415818166815016  0.18979679037612127  0.7127103291230341  1.0000
  N   N3        1.0  0.7609016879559007  0.6895624761629406  0.21266587160281597  1.0000
  N   N4        1.0  0.3584171681626104  0.8102031599137902  0.2872895657547474  1.0000
  N   N5        1.0  0.24539603908999658  0.1385913231815508  0.45190632587100776  1.0000
  N   N6        1.0  0.15463196098355783  0.361387260326353  0.048034405913689696  1.0000
  N   N7        1.0  0.7546043671353859  0.8614086271083607  0.5480939847821774  1.0000
  N   N8        1.0  0.8453678482103796  0.6386116713141732  0.9519657293326064  1.0000
  N   N9        1.0  0.027326837423167768  0.15016521747344308  0.3905740784544777  1.0000
  N   N10       1.0  0.9863345812916863  0.349810310086319  0.10945203903957429  1.0000
  N   N11       1.0  0.97267429564031  0.8498347328164683  0.609424947825083  1.0000
  N   N12       1.0  0.013665119625549891  0.6501896402035924  0.8905475663054645  1.0000
  O   O1        1.0  0.5326405573471078  0.3834349075762802  0.036104477172507594  1.0000
  O   O2        1.0  0.6135326274340541  0.1166750817020556  0.46433566888224215  1.0000
  O   O3        1.0  0.4673597406015732  0.6165660613630095  0.9638953035794131  1.0000
  O   O4        1.0  0.38646920017260555  0.8833248685878559  0.5356650575463533  1.0000
  O   O5        1.0  0.7623199670871088  0.38931658911486267  0.12179531781567482  1.0000
  O   O6        1.0  0.7515097389995234  0.110685423328853  0.37847128358934873  1.0000
  O   O7        1.0  0.23767901775701036  0.6106833611750417  0.8782045770620996  1.0000
  O   O8        1.0  0.2484913832989835  0.8893145269610514  0.6215287375311008  1.0000
  F   F1        1.0  0.4218133244511719  0.09985106848916558  0.9872589514509187  1.0000
  F   F2        1.0  0.8345091562568996  0.4003424500385933  0.5126617848198123  1.0000
  F   F3        1.0  0.5781892192286052  0.9001488818007459  0.012741485444941192  1.0000
  F   F4        1.0  0.16549102265010887  0.5996595375500817  0.48733846087174026  1.0000
  F   F5        1.0  0.43181707155130783  0.1659196488339703  0.13734931397856093  1.0000
  F   F6        1.0  0.6285197211840696  0.3337034260392002  0.3625764902019526  1.0000
  F   F7        1.0  0.5681811104729281  0.8340813201053194  0.8626483508489146  1.0000
  F   F8        1.0  0.37148021781651874  0.6662944869519478  0.6374221852638373  1.0000
  F   F9        1.0  0.6140289530971969  0.129971512100937  0.13500052718600844  1.0000
  F   F10       1.0  0.8491440604256368  0.3699306727032337  0.3649953526410954  1.0000
  F   F11       1.0  0.3859710744732113  0.8700314941371232  0.865003167967828  1.0000
  F   F12       1.0  0.1508584832541474  0.6300692775866779  0.6350050842547647  1.0000
