data_image0
_chemical_formula_structural       Cd2H30C40N10O14
_chemical_formula_sum              "Cd2 H30 C40 N10 O14"
_cell_length_a       10.241110660983939
_cell_length_b       10.71528605260699
_cell_length_c       11.66041571868467
_cell_angle_alpha    115.69845804248439
_cell_angle_beta     104.01935143285536
_cell_angle_gamma    102.2894189490266

_space_group_name_H-M_alt    "P 1"
_space_group_IT_number       1

loop_
  _space_group_symop_operation_xyz
  'x, y, z'

loop_
  _atom_site_type_symbol
  _atom_site_label
  _atom_site_symmetry_multiplicity
  _atom_site_fract_x
  _atom_site_fract_y
  _atom_site_fract_z
  _atom_site_occupancy
  Cd  Cd1       1.0  0.9016967635501275  0.23419331676115004  0.18711930618827918  1.0000
  Cd  Cd2       1.0  0.09830089690025548  0.7658023595503421  0.8128798705558538  1.0000
  H   H1        1.0  0.8088735999505516  0.9098392499766277  0.9928558883692559  1.0000
  H   H2        1.0  0.19111873158928458  0.09015853229742277  0.007142998189259191  1.0000
  H   H3        1.0  0.7011334233095567  0.9665305224853568  0.06463083003986705  1.0000
  H   H4        1.0  0.2988590410939551  0.033470610285810685  0.935367742073815  1.0000
  H   H5        1.0  0.403098031094359  0.20103020543530897  0.1834674219945782  1.0000
  H   H6        1.0  0.5968944228339624  0.7989709095591024  0.8165319982918504  1.0000
  H   H7        1.0  0.7417510716892933  0.35119175801024466  0.5657499470052301  1.0000
  H   H8        1.0  0.2582455186800487  0.6488095771981077  0.434243596488784  1.0000
  H   H9        1.0  0.3259796865082123  0.37912875768304827  0.5597449450107631  1.0000
  H   H10       1.0  0.6740203779026076  0.6208769735662331  0.44025543903914144  1.0000
  H   H11       1.0  0.0061199541541157  0.6176106969333686  0.4335214225239169  1.0000
  H   H12       1.0  0.993890694751542  0.3823906979534967  0.566485479106447  1.0000
  H   H13       1.0  0.7328258134523224  0.6732158989919695  0.1346703787944675  1.0000
  H   H14       1.0  0.26718969051761127  0.3267878857409485  0.8653342632604151  1.0000
  H   H15       1.0  0.994711978831262  0.8253678613240891  0.5868236471071808  1.0000
  H   H16       1.0  0.0053067053409562755  0.1746304457259668  0.41318029711063525  1.0000
  H   H17       1.0  0.8953450584475674  0.9065338656811828  0.2488541570691962  1.0000
  H   H18       1.0  0.1046753994085208  0.09346670160797999  0.7511502388219569  1.0000
  H   H19       1.0  0.7104711209534074  0.38052373065676887  0.020568472695551003  1.0000
  H   H20       1.0  0.2895354334119632  0.6194775151231865  0.9794409130362498  1.0000
  H   H21       1.0  0.04786793411892631  0.3241677713379048  0.9945562298330871  1.0000
  H   H22       1.0  0.9521269185373383  0.6758255896809897  0.005443964435805267  1.0000
  H   H23       1.0  0.6175560113620193  0.045853927971585086  0.8644433527610431  1.0000
  H   H24       1.0  0.3824325542159528  0.954150512850333  0.13555229997277243  1.0000
  H   H25       1.0  0.8909101230323486  0.2617284729636538  0.7321570273684516  1.0000
  H   H26       1.0  0.10909032426179979  0.738269483086924  0.26784282819640737  1.0000
  H   H27       1.0  0.7514718362600092  0.019575147922175493  0.5181621505055034  1.0000
  H   H28       1.0  0.248522675413639  0.9804260594024535  0.48183517955746397  1.0000
  H   H29       1.0  0.44371733046951783  0.09746066135785006  0.7112538135420081  1.0000
  H   H30       1.0  0.5562792284742811  0.9025406205202342  0.28874227447024464  1.0000
  C   C1        1.0  0.6739200363777371  0.21624369459367185  0.28628655364935446  1.0000
  C   C2        1.0  0.32606995666900224  0.7837530438597893  0.7137062532285724  1.0000
  C   C3        1.0  0.19667750301798745  0.26212774189003335  0.280159766612435  1.0000
  C   C4        1.0  0.8033187404388187  0.7378756545666787  0.7198414078148544  1.0000
  C   C5        1.0  0.34718133198241224  0.2862236583371711  0.3619463777169187  1.0000
  C   C6        1.0  0.652815945584642  0.7137797931730245  0.6380533275122672  1.0000
  C   C7        1.0  0.43975489545084656  0.24635989212515594  0.2939356821343537  1.0000
  C   C8        1.0  0.5602398583835395  0.7536390761835461  0.7060624987227938  1.0000
  C   C9        1.0  0.5802963624109125  0.2656788598352334  0.36505097324106117  1.0000
  C   C10       1.0  0.4196953728941537  0.7343200855270664  0.6349448298284344  1.0000
  C   C11       1.0  0.6311497936224556  0.3302011261269583  0.5077917209916407  1.0000
  C   C12       1.0  0.3688474839445989  0.6698023253832375  0.4922079842375454  1.0000
  C   C13       1.0  0.5376064619467228  0.3679945299775866  0.5746357590523061  1.0000
  C   C14       1.0  0.46239259716313813  0.6320022950918297  0.4253633330158235  1.0000
  C   C15       1.0  0.3959711899867314  0.34694684318512253  0.5045391555901374  1.0000
  C   C16       1.0  0.6040279810364453  0.6530532968278918  0.495461318378652  1.0000
  C   C17       1.0  0.9276452394394353  0.589610149237103  0.3362228732043988  1.0000
  C   C18       1.0  0.0723678212855958  0.4103924139076581  0.6637841708973439  1.0000
  C   C19       1.0  0.786426733413407  0.6181796041762266  0.1783195135600193  1.0000
  C   C20       1.0  0.2135842905166569  0.3818229021918355  0.8216879244196917  1.0000
  C   C21       1.0  0.9384116609389112  0.8476429266759877  0.4076964359942394  1.0000
  C   C22       1.0  0.061603324667771596  0.15235637830186724  0.5923088323288752  1.0000
  C   C23       1.0  0.9984335844831875  0.9018216914213897  0.5488136654592353  1.0000
  C   C24       1.0  0.0015762338859061991  0.09817421888975988  0.4511882370535432  1.0000
  C   C25       1.0  0.9395234091317803  0.945793068705704  0.358431414535822  1.0000
  C   C26       1.0  0.0604989840811427  0.054204258193316  0.6415703574039568  1.0000
  C   C27       1.0  0.7762012631443226  0.4731509917702395  0.12355066240991153  1.0000
  C   C28       1.0  0.2238078673296258  0.5268548260949969  0.8764560068302031  1.0000
  C   C29       1.0  0.9360529801419586  0.25512323449831337  0.9272649057391291  1.0000
  C   C30       1.0  0.06394416456142687  0.7448768665147651  0.07273511393488248  1.0000
  C   C31       1.0  0.7147560256207726  0.11230411751628107  0.865589252370846  1.0000
  C   C32       1.0  0.28523453485143335  0.8877003089753116  0.13440939917598624  1.0000
  C   C33       1.0  0.8614480788418177  0.22372255924644685  0.7975183947505897  1.0000
  C   C34       1.0  0.13854997758333096  0.776274264099754  0.2024796219974049  1.0000
  C   C35       1.0  0.6091443634035727  0.06573037286187138  0.6282349245187858  1.0000
  C   C36       1.0  0.39085244817614045  0.9342686877770419  0.3717611661149007  1.0000
  C   C37       1.0  0.6416046706788378  0.01236270739540399  0.5100093999311569  1.0000
  C   C38       1.0  0.358392505450091  0.9876374469479432  0.48998807522462345  1.0000
  C   C39       1.0  0.46777510340622547  0.05343129178891098  0.6185300128193347  1.0000
  C   C40       1.0  0.5322194501681494  0.9465699866427499  0.38146392455265493  1.0000
  N   N1        1.0  0.8435576626630449  0.18419147614066125  0.9673054320074711  1.0000
  N   N2        1.0  0.15643364524171946  0.8158062688566687  0.0326940755764014  1.0000
  N   N3        1.0  0.8647475992177932  0.4568696709999711  0.22222842174730312  1.0000
  N   N4        1.0  0.1352589865731133  0.5431316281102523  0.7777784194662587  1.0000
  N   N5        1.0  0.8825765147112037  0.6919852331258908  0.31394759749613144  1.0000
  N   N6        1.0  0.11743896830837028  0.30801851605351505  0.6860587409042437  1.0000
  N   N7        1.0  0.7214272702976174  0.1325337827714108  0.7587330860657957  1.0000
  N   N8        1.0  0.27856823358556676  0.8674674084996709  0.24126616749005336  1.0000
  N   N9        1.0  0.5916957795445015  0.4341434199886222  0.7250134735291452  1.0000
  N   N10       1.0  0.4083046887000137  0.5658545716154675  0.27498468569022794  1.0000
  O   O1        1.0  0.14902561584494828  0.18983908108044997  0.1501766608562036  1.0000
  O   O2        1.0  0.8509646579495609  0.8101586088633893  0.8498243159257725  1.0000
  O   O3        1.0  0.12266502775651132  0.31740879307105974  0.34927941891091047  1.0000
  O   O4        1.0  0.8773302025403994  0.682594583885681  0.6507215283689902  1.0000
  O   O5        1.0  0.508193416461765  0.4684066859112477  0.7841677433173402  1.0000
  O   O6        1.0  0.49180413207531615  0.5315856754566468  0.21583005152613305  1.0000
  O   O7        1.0  0.7184355827066754  0.45208731546181713  0.7849643937157964  1.0000
  O   O8        1.0  0.281567177584968  0.5479174161364566  0.21503359090869614  1.0000
  O   O9        1.0  0.79898985683257  0.964280617508258  0.08277823607734536  1.0000
  O   O10       1.0  0.2010017037081084  0.035714906249900494  0.917221274127961  1.0000
  O   O11       1.0  0.8089663342996616  0.2614813237505231  0.356469060341432  1.0000
  O   O12       1.0  0.19101919704131382  0.738505267434938  0.643524629454177  1.0000
  O   O13       1.0  0.6144843059580367  0.1350052408153743  0.15641457482115584  1.0000
  O   O14       1.0  0.385510015930791  0.8649982944089629  0.8435776635839077  1.0000
