data_image0
_chemical_formula_structural       Zn4H47C47N5O13
_chemical_formula_sum              "Zn4 H47 C47 N5 O13"
_cell_length_a       13.109970904815299
_cell_length_b       19.157378561148317
_cell_length_c       19.307246528482747
_cell_angle_alpha    85.07294646904047
_cell_angle_beta     84.40093272020846
_cell_angle_gamma    84.02604343667167

_space_group_name_H-M_alt    "P 1"
_space_group_IT_number       1

loop_
  _space_group_symop_operation_xyz
  'x, y, z'

loop_
  _atom_site_type_symbol
  _atom_site_label
  _atom_site_symmetry_multiplicity
  _atom_site_fract_x
  _atom_site_fract_y
  _atom_site_fract_z
  _atom_site_occupancy
  Zn  Zn1       1.0  0.4212429775656402  0.5630678394907846  0.44665371336914456  1.0000
  Zn  Zn2       1.0  0.4192425314472885  0.4457955180940374  0.5727168644295091  1.0000
  Zn  Zn3       1.0  0.6013112472335962  0.5447894939320436  0.5517503324272963  1.0000
  Zn  Zn4       1.0  0.5881107738464096  0.43379780411458996  0.4374080424322741  1.0000
  H   H1        1.0  0.9182014477645167  0.5400273457803735  0.530486223603681  1.0000
  H   H2        1.0  0.5044962361504941  0.9091946308841871  0.3779893662675347  1.0000
  H   H3        1.0  0.6136478894724887  0.42774688345836864  0.22180793233826523  1.0000
  H   H4        1.0  0.5985447387254511  0.22033838579243079  0.4241933574404014  1.0000
  H   H5        1.0  0.9235408093913905  0.4602059612336049  0.39793821045531524  1.0000
  H   H6        1.0  0.08210342351027579  0.5021526421983253  0.5754563094502031  1.0000
  H   H7        1.0  0.3692360307602556  0.477447423976706  0.7815226793623039  1.0000
  H   H8        1.0  0.546653046512226  0.7592637265370428  0.5956360272325865  1.0000
  H   H9        1.0  0.3396780327312356  0.582681444025866  0.10768671550557937  1.0000
  H   H10       1.0  0.37064319535829077  0.10109650733647868  0.6085303119202832  1.0000
  H   H11       1.0  0.355625220798963  0.5852564060179974  0.23642499985932366  1.0000
  H   H12       1.0  0.37278132305880274  0.23313080923847454  0.6006738831875678  1.0000
  H   H13       1.0  0.6018149155048036  0.4284975734419021  0.09232004968249896  1.0000
  H   H14       1.0  0.18388199584849474  0.5440849395117695  0.39902552006000036  1.0000
  H   H15       1.0  0.0953393161890972  0.5923606483969551  0.3027933020210439  1.0000
  H   H16       1.0  0.9745708979865172  0.5778743993282518  0.34951867978775647  1.0000
  H   H17       1.0  0.05188605479245468  0.506791419331563  0.31093720610682135  1.0000
  H   H18       1.0  0.19640131198448074  0.4511317571438198  0.04208017716088359  1.0000
  H   H19       1.0  0.5937139324944383  0.0888653549450495  0.43042578708666906  1.0000
  H   H20       1.0  0.14140968960295197  0.4213960967296302  0.9707815966357384  1.0000
  H   H21       1.0  0.19431404171787386  0.35948660671623145  0.03470187379602409  1.0000
  H   H22       1.0  0.31885566426671375  0.3659510895555869  0.9272371183945506  1.0000
  H   H23       1.0  0.37092735127782117  0.39741547385710163  0.9980285070407787  1.0000
  H   H24       1.0  0.30795293830160375  0.5220083550784835  0.9538559052531067  1.0000
  H   H25       1.0  0.266188390922224  0.4868999599347177  0.8804960566075191  1.0000
  H   H26       1.0  0.6277799159993904  0.9978869829383966  0.6916428769591645  1.0000
  H   H27       1.0  0.6802230114134746  0.9134277248391738  0.7237556790710824  1.0000
  H   H28       1.0  0.7612417167651343  0.9718638634180651  0.674515402411714  1.0000
  H   H29       1.0  0.7220250055768745  0.8797687793121439  0.5987633694479797  1.0000
  H   H30       1.0  0.6681922840768593  0.963526754578183  0.568267389948481  1.0000
  H   H31       1.0  0.4969720638297089  0.9369708503993975  0.6325390532977264  1.0000
  H   H32       1.0  0.5532466945732184  0.8520860042320919  0.6595167668951517  1.0000
  H   H33       1.0  0.9366708253003964  0.497302831162621  0.7210736961619515  1.0000
  H   H34       1.0  0.866154214878158  0.512087975858094  0.6463030166718793  1.0000
  H   H35       1.0  0.9111845472734713  0.584198377763194  0.6825719249913077  1.0000
  H   H36       1.0  0.6866208300156771  0.4748333394611422  0.8990627339691597  1.0000
  H   H37       1.0  0.7211490056663975  0.5789709090586471  0.7151482998827132  1.0000
  H   H38       1.0  0.7890345669844407  0.5646799704832546  0.7906246999789133  1.0000
  H   H39       1.0  0.7839273794793086  0.43597866576020283  0.7905254533504261  1.0000
  H   H40       1.0  0.7282029629350717  0.44656952938350275  0.7101437498899583  1.0000
  H   H41       1.0  0.42903425686644436  0.7764345244176881  0.2222818439963915  1.0000
  H   H42       1.0  0.41442450590060537  0.692076581935048  0.26578578522255464  1.0000
  H   H43       1.0  0.30397046046702775  0.7511737186833473  0.2494472052214078  1.0000
  H   H44       1.0  0.3407060059662967  0.7488519384667711  0.3755107150491241  1.0000
  H   H45       1.0  0.355199382745255  0.8330326214323946  0.33280677360735195  1.0000
  H   H46       1.0  0.5455693203426434  0.8019502209284826  0.3146669178281341  1.0000
  H   H47       1.0  0.5309068806977139  0.7173488219475459  0.35639081073827567  1.0000
  C   C1        1.0  0.5286011113243987  0.4825067653086706  0.6899076473446683  1.0000
  C   C2        1.0  0.5456514424725968  0.12122789934278443  0.4670025135122413  1.0000
  C   C3        1.0  0.5486384172049269  0.46234320301503107  0.12464084193157275  1.0000
  C   C4        1.0  0.47083413902889504  0.5064373375937592  0.09300793872361615  1.0000
  C   C5        1.0  0.4810493171874128  0.08821765708253791  0.5195588126797331  1.0000
  C   C6        1.0  0.40000346800223235  0.5498206526027261  0.1334750011096943  1.0000
  C   C7        1.0  0.4191981849939666  0.1283393867806097  0.5681025702470349  1.0000
  C   C8        1.0  0.5137161419992538  0.6835421382811688  0.4943771733440199  1.0000
  C   C9        1.0  0.4087256320623779  0.5509460523782225  0.20451395594709249  1.0000
  C   C10       1.0  0.42062149537682814  0.20101664696080232  0.5638112390067106  1.0000
  C   C11       1.0  0.42896570236771936  0.48134178631173813  0.880519833334787  1.0000
  C   C12       1.0  0.532848345640403  0.8659222933232729  0.551046864102247  1.0000
  C   C13       1.0  0.4385436589435443  0.47879800469888784  0.808245989770782  1.0000
  C   C14       1.0  0.5339221661526707  0.7933744630330822  0.5484051794776902  1.0000
  C   C15       1.0  0.5224909291851391  0.4821552828829069  0.9121893772729663  1.0000
  C   C16       1.0  0.5174645128452581  0.9073290311983442  0.4874648043152375  1.0000
  C   C17       1.0  0.5330746049716097  0.47886870015357613  0.7672140706190973  1.0000
  C   C18       1.0  0.5179871880428307  0.7614860891197351  0.4879611589115099  1.0000
  C   C19       1.0  0.626113050624909  0.47675643277435154  0.7987731991127799  1.0000
  C   C20       1.0  0.5076016252464157  0.802402609676868  0.4242592498037395  1.0000
  C   C21       1.0  0.4943332321791162  0.5063754353578387  0.312805424650655  1.0000
  C   C22       1.0  0.4917808383644696  0.311574827136532  0.509060344733676  1.0000
  C   C23       1.0  0.6175282664104671  0.4773462109617413  0.8712748263096514  1.0000
  C   C24       1.0  0.5551645864817657  0.4622147067819924  0.19588538368874706  1.0000
  C   C25       1.0  0.5100229816993649  0.8748675074602729  0.42588978280852524  1.0000
  C   C26       1.0  0.7837488108053846  0.4822441135740901  0.4670929439904226  1.0000
  C   C27       1.0  0.23186751406194617  0.5136766743766259  0.5211673489091808  1.0000
  C   C28       1.0  0.12183308225348102  0.5156719064898496  0.5247771713193143  1.0000
  C   C29       1.0  0.06423565797818036  0.5265910270365525  0.467327308223126  1.0000
  C   C30       1.0  0.5480973936452359  0.1935884070858975  0.4636892068930649  1.0000
  C   C31       1.0  0.8944126506583103  0.48629314956253467  0.44481647286035997  1.0000
  C   C32       1.0  0.9538828066959084  0.5190382056732901  0.4820778228193489  1.0000
  C   C33       1.0  0.48601793831739576  0.5068741064885814  0.23629164435801178  1.0000
  C   C34       1.0  0.48589076773070866  0.23400257276187386  0.512024631350634  1.0000
  C   C35       1.0  0.0539685829937682  0.554811684517091  0.3383071770958636  1.0000
  C   C36       1.0  0.3236275787405133  0.4789536502569406  0.9191657108029999  1.0000
  C   C37       1.0  0.30949204618040943  0.4088098464895822  0.9625829277576512  1.0000
  C   C38       1.0  0.2046601383121924  0.4101141103157033  0.00482821090420769  1.0000
  C   C39       1.0  0.5559966409745484  0.8947755127540519  0.6175579577751973  1.0000
  C   C40       1.0  0.6627011143993542  0.9228195086193764  0.611934907142192  1.0000
  C   C41       1.0  0.6842329998108169  0.9531187006657122  0.6791120570531034  1.0000
  C   C42       1.0  0.731263355068762  0.4712683539788075  0.7591092000814541  1.0000
  C   C43       1.0  0.7772338175979812  0.5420504204818428  0.7417655463102831  1.0000
  C   C44       1.0  0.878559460812987  0.5336227918101883  0.6955318621764732  1.0000
  C   C45       1.0  0.49864982621743076  0.7726429950418705  0.35549035056092737  1.0000
  C   C46       1.0  0.38778466392656  0.7775832163609239  0.33455170144794255  1.0000
  C   C47       1.0  0.3833878999788212  0.7477275749404342  0.2641554423726191  1.0000
  N   N1        1.0  0.4556756923303881  0.507938057587488  0.021525463346577584  1.0000
  N   N2        1.0  0.10599719921717113  0.5409336203243882  0.40150816186822164  1.0000
  N   N3        1.0  0.4775075111730517  0.0146497016401241  0.5296179927513123  1.0000
  N   N4        1.0  0.5346024511086752  0.4855340851723184  0.9834593329726214  1.0000
  N   N5        1.0  0.5130401893351008  0.9812766345474839  0.4772574740524789  1.0000
  O   O1        1.0  0.5098066878287781  0.4965090936473686  0.502451782399717  1.0000
  O   O2        1.0  0.4293190888282511  0.3463856449001526  0.5513493005003693  1.0000
  O   O3        1.0  0.5766099986335719  0.647444509362579  0.5331614053769727  1.0000
  O   O4        1.0  0.5895405413206233  0.5216680973337658  0.6528572703104699  1.0000
  O   O5        1.0  0.5597623980595047  0.33654703886057297  0.4643522281299609  1.0000
  O   O6        1.0  0.5514610185766671  0.4556607750418423  0.34059489141819194  1.0000
  O   O7        1.0  0.7451336653749081  0.5160038366120433  0.5192028007012296  1.0000
  O   O8        1.0  0.2779899941253064  0.49035132358353917  0.5756953503286795  1.0000
  O   O9        1.0  0.2806411546445986  0.5355685981387381  0.4622660606342065  1.0000
  O   O10       1.0  0.7363081455217183  0.44527125706948584  0.4309232179676953  1.0000
  O   O11       1.0  0.462224443124164  0.44798560957933387  0.6674739232993615  1.0000
  O   O12       1.0  0.44620398795094457  0.6596683526711901  0.4616692143870721  1.0000
  O   O13       1.0  0.44380159632031985  0.556779554894142  0.3445486412589317  1.0000
