data_image0
_chemical_formula_structural       Al4H16C32O30F8
_chemical_formula_sum              "Al4 H16 C32 O30 F8"
_cell_length_a       6.698088828570047
_cell_length_b       13.090578289222837
_cell_length_c       17.240977232935588
_cell_angle_alpha    89.81745882916526
_cell_angle_beta     90.57801601663927
_cell_angle_gamma    81.25727083476833

_space_group_name_H-M_alt    "P 1"
_space_group_IT_number       1

loop_
  _space_group_symop_operation_xyz
  'x, y, z'

loop_
  _atom_site_type_symbol
  _atom_site_label
  _atom_site_symmetry_multiplicity
  _atom_site_fract_x
  _atom_site_fract_y
  _atom_site_fract_z
  _atom_site_occupancy
  Al  Al1       1.0  0.11965661383069198  0.49400740668932036  0.5013682292936535  1.0000
  Al  Al2       1.0  0.6208767930439549  0.4916435668164779  0.5009633591688994  1.0000
  Al  Al3       1.0  0.7784145470880545  0.004979629008431599  0.0038219837947579983  1.0000
  Al  Al4       1.0  0.2784024631676019  0.0054784261465315  0.002872686672397199  1.0000
  H   H1        1.0  0.18020480846070086  0.2733312700010799  0.14720290253318066  1.0000
  H   H2        1.0  0.1858082496593738  0.27676434447003123  0.8552401968998634  1.0000
  H   H3        1.0  0.7564965779315711  0.8573573201803412  0.14548687774778554  1.0000
  H   H4        1.0  0.6557127307259234  0.7529463986186541  0.7872172764905653  1.0000
  H   H5        1.0  0.25181775474248974  0.7230510106710355  0.28312106521025976  1.0000
  H   H6        1.0  0.24971337670751118  0.7249576452786001  0.7259554849213216  1.0000
  H   H7        1.0  0.3809116907136598  0.82782363711933  0.17674913335498127  1.0000
  H   H8        1.0  0.3483037965313045  0.8398475573350623  0.8391314573210308  1.0000
  H   H9        1.0  0.8432905065786117  0.005549200361187401  0.3379897543803238  1.0000
  H   H10       1.0  0.8425755745538338  0.0094124335621899  0.6669799941840323  1.0000
  H   H11       1.0  0.8546340349548486  0.324598793044771  0.37227660242145066  1.0000
  H   H12       1.0  0.8756096918451632  0.3201275865740244  0.6229877766308999  1.0000
  H   H13       1.0  0.334703204555403  0.6142252598297304  0.4628654345637883  1.0000
  H   H14       1.0  0.9181713107345785  0.3527654953047231  0.4904666761296779  1.0000
  H   H15       1.0  0.5699314740998317  0.8768616458282493  0.9739463625764555  1.0000
  H   H16       1.0  0.9908390034193316  0.12249065051058489  0.9594654287363863  1.0000
  C   C1        1.0  0.4010884589430361  0.3721781042014456  0.3930362657628093  1.0000
  C   C2        1.0  0.4033640895646257  0.3792914951424676  0.6121539731984879  1.0000
  C   C3        1.0  0.8372780469124237  0.6095594503018021  0.6079031389149276  1.0000
  C   C4        1.0  0.8333859018891799  0.6110838943083508  0.393478894914267  1.0000
  C   C5        1.0  0.8122511362761813  0.678918444024248  0.325207955236479  1.0000
  C   C6        1.0  0.8206899964263739  0.6713263308360665  0.6788713355586322  1.0000
  C   C7        1.0  0.9664101781464111  0.7169021414416789  0.28728825828746096  1.0000
  C   C8        1.0  0.969826792218825  0.7098493668368066  0.7203033576122307  1.0000
  C   C9        1.0  0.09470444131230944  0.8192417923567133  0.18085290702201454  1.0000
  C   C10       1.0  0.08224659501816232  0.8116957323942483  0.8306593761728036  1.0000
  C   C11       1.0  0.9358108485596546  0.7833235309475839  0.21786712534981226  1.0000
  C   C12       1.0  0.9321682437173209  0.7701303336663797  0.7923609267698735  1.0000
  C   C13       1.0  0.5878589303433657  0.23969253400458262  0.30554382077992404  1.0000
  C   C14       1.0  0.5927990328027448  0.24456384713221274  0.6996414454111456  1.0000
  C   C15       1.0  0.4180376302983504  0.3126952853599648  0.3193160182881626  1.0000
  C   C16       1.0  0.4244521171318425  0.31911448251781144  0.6857337449811778  1.0000
  C   C17       1.0  0.2768448445300963  0.32328111324984116  0.25795878077619944  1.0000
  C   C18       1.0  0.2836986263194063  0.3289724888555056  0.7461213390352696  1.0000
  C   C19       1.0  0.3005729912571694  0.26333819759160093  0.19074578758519317  1.0000
  C   C20       1.0  0.30521913346090196  0.2663143701605151  0.8123542802680884  1.0000
  C   C21       1.0  0.473694776488287  0.19047191927457874  0.17922833826010276  1.0000
  C   C22       1.0  0.47512400104277924  0.1909255247588462  0.8237489445350403  1.0000
  C   C23       1.0  0.6189471059733337  0.18083966693261996  0.23863626413796613  1.0000
  C   C24       1.0  0.6210204805344828  0.18277991376470484  0.7657303348922893  1.0000
  C   C25       1.0  0.818752895699255  0.12109408801188688  0.26822614014083257  1.0000
  C   C26       1.0  0.8197802595167828  0.12269641953359671  0.7376074516541348  1.0000
  C   C27       1.0  0.7859689603135677  0.193957135156559  0.3430099690103886  1.0000
  C   C28       1.0  0.789344366389244  0.19721489856981114  0.6629896813673353  1.0000
  C   C29       1.0  0.4938839116124214  0.12353523885721528  0.8939675742913732  1.0000
  C   C30       1.0  0.4939644761326959  0.1253694884458767  0.10826974117456696  1.0000
  C   C31       1.0  0.06804648624919447  0.8871500895452442  0.11369904246421916  1.0000
  C   C32       1.0  0.057652930726220554  0.8776564334183377  0.8996894742747867  1.0000
  O   O1        1.0  0.5682244980934712  0.39557528229842387  0.5812776173688687  1.0000
  O   O2        1.0  0.5690733475651157  0.39275303765887776  0.4205063736604158  1.0000
  O   O3        1.0  0.22848619545612078  0.3946761669800339  0.42291894319273377  1.0000
  O   O4        1.0  0.22729964072263442  0.4063172773631577  0.5851069405782922  1.0000
  O   O5        1.0  0.010547434174689762  0.5829834165053073  0.42083599956603  1.0000
  O   O6        1.0  0.010677943804687074  0.5893433305346677  0.5775297739011335  1.0000
  O   O7        1.0  0.3534223810820905  0.5539694323163218  0.49677322675224633  1.0000
  O   O8        1.0  0.6743434376652644  0.5815563155352593  0.5826016134117109  1.0000
  O   O9        1.0  0.670964889602999  0.5849562513340273  0.4205114019678787  1.0000
  O   O10       1.0  0.8907043705988897  0.42567606926147755  0.5031432449036115  1.0000
  O   O11       1.0  0.33186328258281605  0.1016095143680644  0.07954787202638157  1.0000
  O   O12       1.0  0.33119556059264  0.10087704843991933  0.9221683068074423  1.0000
  O   O13       1.0  0.6723266831388274  0.09469634959175723  0.9198953151521604  1.0000
  O   O14       1.0  0.6712297884389782  0.09861808648289382  0.08242036423062866  1.0000
  O   O15       1.0  0.8861558522529832  0.9013693743679524  0.9304844077315407  1.0000
  O   O16       1.0  0.8872328214171502  0.9153087397497683  0.08698517702852367  1.0000
  O   O17       1.0  0.5468892039863746  0.9404562082978954  0.0035833126585841997  1.0000
  O   O18       1.0  0.227728655638458  0.913585734898625  0.08491862243649707  1.0000
  O   O19       1.0  0.22487837669434904  0.9065828116611881  0.9230131135104497  1.0000
  O   O20       1.0  0.00968701153911409  0.0672426132769175  0.9978335348014151  1.0000
  O   O21       1.0  0.7452190427811799  0.8095496509194008  0.1905991527227612  1.0000
  O   O22       1.0  0.7431432440809826  0.7857179135599496  0.8223701827021087  1.0000
  O   O23       1.0  0.15592974969994336  0.6921140736261437  0.31602671913131525  1.0000
  O   O24       1.0  0.15879775817673186  0.6910106883018373  0.6925868058133415  1.0000
  O   O25       1.0  0.2899832407994651  0.791301184640865  0.20686401515249736  1.0000
  O   O26       1.0  0.2781640649812047  0.7963440037906507  0.8041712096487071  1.0000
  O   O27       1.0  0.825150493557764  0.0168314974255352  0.28207796952311526  1.0000
  O   O28       1.0  0.8266881558339421  0.018770217311264003  0.7230044814975541  1.0000
  O   O29       1.0  0.9268925981586378  0.2563989843602599  0.35788849732823974  1.0000
  O   O30       1.0  0.9361727272389331  0.2554516088470394  0.6487514434903968  1.0000
  F   F1        1.0  0.7641736968406647  0.13199387163219004  0.40988395943975314  1.0000
  F   F2        1.0  0.7588731560149  0.13635082214906905  0.5961219007766089  1.0000
  F   F3        1.0  0.6187943931977316  0.7034589641366863  0.2990366496018807  1.0000
  F   F4        1.0  0.6242536530001602  0.689767957597496  0.7064997518962739  1.0000
  F   F5        1.0  0.11125218131670066  0.3964989751186821  0.2615628676431711  1.0000
  F   F6        1.0  0.12035877012228721  0.4036471842718754  0.7425316716121058  1.0000
  F   F7        1.0  0.9855929670982703  0.135642635493177  0.22420346877389352  1.0000
  F   F8        1.0  0.9864120351381301  0.1359962480860233  0.7839828982963722  1.0000
