data_image0
_chemical_formula_structural       Zn2H24C64N10O16
_chemical_formula_sum              "Zn2 H24 C64 N10 O16"
_cell_length_a       17.716347440521655
_cell_length_b       18.475306950938236
_cell_length_c       19.65328403380586
_cell_angle_alpha    92.13346550467868
_cell_angle_beta     92.07616889365607
_cell_angle_gamma    90.58057497930757

_space_group_name_H-M_alt    "P 1"
_space_group_IT_number       1

loop_
  _space_group_symop_operation_xyz
  'x, y, z'

loop_
  _atom_site_type_symbol
  _atom_site_label
  _atom_site_symmetry_multiplicity
  _atom_site_fract_x
  _atom_site_fract_y
  _atom_site_fract_z
  _atom_site_occupancy
  Zn  Zn1       1.0  0.49252321105763036  0.4239718726367413  0.4982704326003571  1.0000
  Zn  Zn2       1.0  0.4974002191740396  0.5750170380902802  0.49514054796434  1.0000
  H   H1        1.0  0.11907443623510973  0.38608378645460545  0.5324977840370906  1.0000
  H   H2        1.0  0.8730472903766398  0.6111325199491374  0.5048807299224906  1.0000
  H   H3        1.0  0.872211710459581  0.3829376193882794  0.5439197040635905  1.0000
  H   H4        1.0  0.1201538102943474  0.6191830261310328  0.5264819855514774  1.0000
  H   H5        1.0  0.2584531637320353  0.3863267611577894  0.5165406473484924  1.0000
  H   H6        1.0  0.7326356157107127  0.6068621831313264  0.48920354700513274  1.0000
  H   H7        1.0  0.7316297773171954  0.3800138086117356  0.5290482642846472  1.0000
  H   H8        1.0  0.25985200225810706  0.6184030821296673  0.5128461849178338  1.0000
  H   H9        1.0  0.6005558192147191  0.4094419156018033  0.048513025919689305  1.0000
  H   H10       1.0  0.401983151327606  0.5615207119702459  0.9419346599727234  1.0000
  H   H11       1.0  0.5914708594846445  0.41796717931490684  0.923591775784054  1.0000
  H   H12       1.0  0.41177326026150507  0.5540267132759025  0.06683288450469863  1.0000
  H   H13       1.0  0.3941699021283682  0.16335916655544475  0.4355939652085327  1.0000
  H   H14       1.0  0.6026702363816909  0.8342735925438091  0.5543419257749919  1.0000
  H   H15       1.0  0.5887657261776126  0.17340860364933516  0.574779605644139  1.0000
  H   H16       1.0  0.3985708441002345  0.8269145200453137  0.4267230688516294  1.0000
  H   H17       1.0  0.6177923137230579  0.07041728237923188  0.5013022120783435  1.0000
  H   H18       1.0  0.3769616731833878  0.9291992265934466  0.4921820683822491  1.0000
  H   H19       1.0  0.3739963793110234  0.06230574733121588  0.4983444348656933  1.0000
  H   H20       1.0  0.6208786762579309  0.9371127139534821  0.49457180545774565  1.0000
  H   H21       1.0  0.49268829850801416  0.7171570225782061  0.2938082164017928  1.0000
  H   H22       1.0  0.2816198342366292  0.421894935754814  0.6611357216211006  1.0000
  H   H23       1.0  0.6876138849878259  0.6417438411857858  0.6965964743608455  1.0000
  H   H24       1.0  0.42223899567811435  0.27867792811323966  0.29649904670653643  1.0000
  C   C1        1.0  0.4977287163566047  0.5174480204738999  0.630098851412946  1.0000
  C   C2        1.0  0.49690972069563333  0.49134479225260447  0.3621498092019381  1.0000
  C   C3        1.0  0.5140060308602018  0.4824352377933818  0.14164544999900394  1.0000
  C   C4        1.0  0.4954374954917783  0.500285821724482  0.8496065512310126  1.0000
  C   C5        1.0  0.5094112320262455  0.4872809755575388  0.28658122638231737  1.0000
  C   C6        1.0  0.4955479663027448  0.5163849962768337  0.7067998191697742  1.0000
  C   C7        1.0  0.55696555136835  0.44279186728448383  0.0254074901512382  1.0000
  C   C8        1.0  0.4455792110361187  0.5281913688648172  0.9650409260666422  1.0000
  C   C9        1.0  0.551956820068142  0.4478010633944221  0.9549535812398705  1.0000
  C   C10       1.0  0.4513650804519429  0.5242527518363929  0.03547316408756271  1.0000
  C   C11       1.0  0.49697943123083393  0.4912478231823198  0.9241000057852989  1.0000
  C   C12       1.0  0.5077059340649938  0.48234544553270076  0.0664610154260572  1.0000
  C   C13       1.0  0.4357038020859179  0.2681343508138453  0.4707155370584817  1.0000
  C   C14       1.0  0.5558602805324498  0.7301441968377061  0.5235797505382962  1.0000
  C   C15       1.0  0.539730184359911  0.2736494502301667  0.5446096618791716  1.0000
  C   C16       1.0  0.44632071681655827  0.7261490054989961  0.4566344336314857  1.0000
  C   C17       1.0  0.4368700014435305  0.19241192114203895  0.46743937003938657  1.0000
  C   C18       1.0  0.557613498178334  0.8059301574010785  0.5247735138622147  1.0000
  C   C19       1.0  0.5450601414761566  0.19794172154605855  0.5431463561709367  1.0000
  C   C20       1.0  0.44428642317082995  0.8018677260953166  0.455568614783566  1.0000
  C   C21       1.0  0.4930712094445227  0.15557907966377366  0.5035057207753868  1.0000
  C   C22       1.0  0.5005663418693088  0.8436672553478458  0.49060019535163957  1.0000
  C   C23       1.0  0.5649364139228368  0.0395513862458685  0.5002739586054831  1.0000
  C   C24       1.0  0.4299216741252181  0.9598583616077504  0.4928670408834891  1.0000
  C   C25       1.0  0.4282329872792801  0.03502820014445969  0.4964147906080782  1.0000
  C   C26       1.0  0.5666089066074561  0.9642998211813774  0.49652044519619665  1.0000
  C   C27       1.0  0.4991595492301713  0.9233780417798341  0.4929168795682699  1.0000
  C   C28       1.0  0.49568033370344017  0.07591040472856037  0.5002349659300053  1.0000
  C   C29       1.0  0.6399731726144254  0.4920444629885097  0.4997061253012094  1.0000
  C   C30       1.0  0.350279764417003  0.5011835705859082  0.5043354857986416  1.0000
  C   C31       1.0  0.1502339852554258  0.4368367192413201  0.5285930155992632  1.0000
  C   C32       1.0  0.8418072873030625  0.5606381506450685  0.5099750263939457  1.0000
  C   C33       1.0  0.841333090447897  0.4318523257875454  0.5318797428618895  1.0000
  C   C34       1.0  0.15081439471727257  0.5683453028864631  0.5249195310259154  1.0000
  C   C35       1.0  0.22762024154669547  0.4369603665469766  0.5200552032753338  1.0000
  C   C36       1.0  0.7638347065399743  0.5583059965874353  0.5012045867691911  1.0000
  C   C37       1.0  0.7632291103944056  0.4300856008395967  0.5231980712720488  1.0000
  C   C38       1.0  0.2283556035954106  0.5679827410994489  0.5171119919177515  1.0000
  C   C39       1.0  0.2673336711353683  0.5023978107218382  0.5138642050085593  1.0000
  C   C40       1.0  0.7237892033356559  0.4931816781125418  0.507683926655311  1.0000
  C   C41       1.0  0.11024786300556852  0.5026614227242729  0.5300629116781437  1.0000
  C   C42       1.0  0.8819761637024827  0.49722591124827165  0.5251412300488597  1.0000
  C   C43       1.0  0.030687061431578396  0.5018282958069946  0.5332428987489594  1.0000
  C   C44       1.0  0.9617208341044975  0.49931700651549693  0.5313707059120106  1.0000
  C   C45       1.0  0.5199549448603804  0.5511182561341882  0.2514162472432488  1.0000
  C   C46       1.0  0.429622065184276  0.4938050466622172  0.7373908148067942  1.0000
  C   C47       1.0  0.5603402812230344  0.5339423369159492  0.7468324905688206  1.0000
  C   C48       1.0  0.5070108770772138  0.420748276481781  0.249872774410811  1.0000
  C   C49       1.0  0.5216839275087821  0.5486950234926552  0.17971657788197606  1.0000
  C   C50       1.0  0.4295733072374617  0.48539640710104237  0.8084184671245327  1.0000
  C   C51       1.0  0.5603638147262516  0.5260187920143692  0.8178757698723731  1.0000
  C   C52       1.0  0.5097047561925053  0.41830934958233706  0.17811683666970177  1.0000
  C   C53       1.0  0.5346505727858358  0.6238881613841014  0.28699721770106384  1.0000
  C   C54       1.0  0.358176605423111  0.4867471334001649  0.6939866481724268  1.0000
  C   C55       1.0  0.6290825315529104  0.5582264288161339  0.7107244182759871  1.0000
  C   C56       1.0  0.4988063208802842  0.3488915395460379  0.2831264496732048  1.0000
  C   C57       1.0  0.5330386394176756  0.6144910507437441  0.14510925903634592  1.0000
  C   C58       1.0  0.3620952432213543  0.46119742540874126  0.8386958035362043  1.0000
  C   C59       1.0  0.6269325166675017  0.5449074427016427  0.8581389549879435  1.0000
  C   C60       1.0  0.5041544748108536  0.3496414305164136  0.14217723194196452  1.0000
  C   C61       1.0  0.37502917994166296  0.300180889193321  0.4323988046493242  1.0000
  C   C62       1.0  0.6159112022514606  0.6971988861210504  0.5620677626499531  1.0000
  C   C63       1.0  0.5918816034206102  0.3124732096772218  0.5904960097472911  1.0000
  C   C64       1.0  0.3858948371292286  0.6878524060272538  0.4198380228869568  1.0000
  N   N1        1.0  0.4869176964568211  0.30928305295042685  0.5077399679458878  1.0000
  N   N2        1.0  0.5011659094227383  0.6897777113233159  0.490210373440192  1.0000
  N   N3        1.0  0.5432560800611484  0.6690990948800674  0.11861824390654623  1.0000
  N   N4        1.0  0.30615375038647125  0.4417770382061191  0.8622816831066091  1.0000
  N   N5        1.0  0.6820447056988429  0.5605819421460508  0.8899178784529769  1.0000
  N   N6        1.0  0.5004027534617138  0.29263781783363624  0.11444663397919905  1.0000
  N   N7        1.0  0.3216881176562723  0.31435851323112723  0.3991306542334813  1.0000
  N   N8        1.0  0.6682508043685047  0.6829052768672453  0.5964347480814567  1.0000
  N   N9        1.0  0.6359870402765823  0.3335066121852748  0.6323623352617889  1.0000
  N   N10       1.0  0.3330831278723565  0.66625024098505  0.3878517508088138  1.0000
  O   O1        1.0  0.48854355509158864  0.45530478283283304  0.6011717548055062  1.0000
  O   O2        1.0  0.4898707176314971  0.5543802478506734  0.3889695108520571  1.0000
  O   O3        1.0  0.4934058616823763  0.4316766376590521  0.3919361702606211  1.0000
  O   O4        1.0  0.5080461129125099  0.5774630665248494  0.6027206147318085  1.0000
  O   O5        1.0  0.6056412407966719  0.43100140777718804  0.5014298991892617  1.0000
  O   O6        1.0  0.38572955169075124  0.5616464972553882  0.5039174652753645  1.0000
  O   O7        1.0  0.3805195264770944  0.43900079450376217  0.49762124279320136  1.0000
  O   O8        1.0  0.6074283703398747  0.5526621382483012  0.49125167318923973  1.0000
  O   O9        1.0  0.5956310752595897  0.6428002213633446  0.3125255847661564  1.0000
  O   O10       1.0  0.47498222563034903  0.6685865006948857  0.2785765765701386  1.0000
  O   O11       1.0  0.33109280441441064  0.5386242574277841  0.6657821455212273  1.0000
  O   O12       1.0  0.32788258304361767  0.41933250725566734  0.690135904985546  1.0000
  O   O13       1.0  0.659437960092106  0.5200199162444928  0.6681944445577345  1.0000
  O   O14       1.0  0.6500243586338074  0.626647446435129  0.7292473296378648  1.0000
  O   O15       1.0  0.550933116927709  0.3125789226414353  0.304179914736416  1.0000
  O   O16       1.0  0.4255679351103225  0.3272881548669701  0.278474159385418  1.0000
