data_image0
_chemical_formula_structural       Zn2H66C90N4O20F18
_chemical_formula_sum              "Zn2 H66 C90 N4 O20 F18"
_cell_length_a       16.670017372176574
_cell_length_b       16.553687252449652
_cell_length_c       27.676942884264136
_cell_angle_alpha    90.14900672755094
_cell_angle_beta     88.0563682956603
_cell_angle_gamma    86.01045483334963

_space_group_name_H-M_alt    "P 1"
_space_group_IT_number       1

loop_
  _space_group_symop_operation_xyz
  'x, y, z'

loop_
  _atom_site_type_symbol
  _atom_site_label
  _atom_site_symmetry_multiplicity
  _atom_site_fract_x
  _atom_site_fract_y
  _atom_site_fract_z
  _atom_site_occupancy
  Zn  Zn1       1.0  0.5927508332851017  0.49873366463191354  0.48727541168329214  1.0000
  Zn  Zn2       1.0  0.40531613008612777  0.4937495805005909  0.49753204744586543  1.0000
  H   H1        1.0  0.40938823615002917  0.34417164334400496  0.2590989834464921  1.0000
  H   H2        1.0  0.6027951829229181  0.6303952294300004  0.7184951021803625  1.0000
  H   H3        1.0  0.4296163020167256  0.24569007599780673  0.4836096432267566  1.0000
  H   H4        1.0  0.5912267179373172  0.726162743800664  0.5528919123140382  1.0000
  H   H5        1.0  0.3846543304931346  0.0009941337227275  0.5515785124198658  1.0000
  H   H6        1.0  0.5502945823998999  0.9982221288796465  0.5979959864356913  1.0000
  H   H7        1.0  0.13250071055788473  0.3836508914966005  0.5517764253201419  1.0000
  H   H8        1.0  0.868387822654739  0.5518220135747923  0.41145035838094657  1.0000
  H   H9        1.0  0.8760897372609759  0.4958908297139003  0.5638254262643584  1.0000
  H   H10       1.0  0.1186076124316102  0.5933985226460406  0.45844351441965603  1.0000
  H   H11       1.0  0.6091725111158935  0.08949307471220887  0.6932953694752158  1.0000
  H   H12       1.0  0.5096190333330527  0.10684930425695427  0.6719992941642872  1.0000
  H   H13       1.0  0.6264016213371519  0.23955260081402938  0.6881523456551688  1.0000
  H   H14       1.0  0.5256754953260979  0.2561624084105247  0.6706661056543834  1.0000
  H   H15       1.0  0.4766682820871963  0.19861775702538145  0.7501359740530942  1.0000
  H   H16       1.0  0.5370798631927156  0.28121620111215145  0.7597013802050083  1.0000
  H   H17       1.0  0.5780087953571709  0.1805355055565983  0.7675910592797023  1.0000
  H   H18       1.0  0.2179198862706713  0.9541686998658533  0.5354723292423245  1.0000
  H   H19       1.0  0.2736916863507303  0.9088184413646728  0.5834898753664672  1.0000
  H   H20       1.0  0.19879563242054835  0.8136430225151088  0.5031387263573064  1.0000
  H   H21       1.0  0.2448065913706898  0.7714615772257358  0.5547076141345569  1.0000
  H   H22       1.0  0.13605490279944377  0.8467443071559585  0.6084586970859218  1.0000
  H   H23       1.0  0.09464190294122687  0.7799458231729799  0.567408718882035  1.0000
  H   H24       1.0  0.08954560983040953  0.8854498463064001  0.5557408056711279  1.0000
  H   H25       1.0  0.29299217731185223  0.691055878758277  0.4098311300381496  1.0000
  H   H26       1.0  0.19115688746941123  0.677826434665462  0.4269628980559474  1.0000
  H   H27       1.0  0.2991978937021428  0.562561544920328  0.3613190025602862  1.0000
  H   H28       1.0  0.19621058431229696  0.5516882235025661  0.3748404997778535  1.0000
  H   H29       1.0  0.15962989892929608  0.6851912890372346  0.33334186933684146  1.0000
  H   H30       1.0  0.21495480486727556  0.6164197294266386  0.2931680584414379  1.0000
  H   H31       1.0  0.2632789317583359  0.6963396136791501  0.31996967173373747  1.0000
  H   H32       1.0  0.6986788397949439  0.4773545166426558  0.6420072754245183  1.0000
  H   H33       1.0  0.7925699821395467  0.5141302284554712  0.6234767376081292  1.0000
  H   H34       1.0  0.7442297516098435  0.34000945892885426  0.6089927234144596  1.0000
  H   H35       1.0  0.8407038010963461  0.3732098578936202  0.5952367841980786  1.0000
  H   H36       1.0  0.8581422127791284  0.40422769065386877  0.6840790387463256  1.0000
  H   H37       1.0  0.838895686699999  0.30132353820776797  0.6750677407729879  1.0000
  H   H38       1.0  0.7608607172182644  0.3710319843671215  0.697764031315188  1.0000
  H   H39       1.0  0.6870099926484555  0.5384546383929916  0.3411518451524458  1.0000
  H   H40       1.0  0.7908054194610444  0.5279056341533988  0.354821170747627  1.0000
  H   H41       1.0  0.6766718721068231  0.6790623186831652  0.3752152123065357  1.0000
  H   H42       1.0  0.7810068455173607  0.6723015453650375  0.38544027771375505  1.0000
  H   H43       1.0  0.8097692135694032  0.6496576110207284  0.294987750395208  1.0000
  H   H44       1.0  0.7546429463637238  0.743466679239944  0.3071103600918405  1.0000
  H   H45       1.0  0.7045251687365662  0.6599880771694655  0.2857095322544722  1.0000
  H   H46       1.0  0.3213182591173264  0.2540582212574378  0.5486677121147777  1.0000
  H   H47       1.0  0.21725356669907817  0.2825447588788633  0.5428692140900748  1.0000
  H   H48       1.0  0.3154067333633321  0.31475294750726585  0.6320330117862341  1.0000
  H   H49       1.0  0.20998202780652514  0.3324828819720479  0.6289453204946724  1.0000
  H   H50       1.0  0.19759760091335468  0.18096611665646378  0.6166251782328444  1.0000
  H   H51       1.0  0.24541061681313883  0.20059192094245046  0.6713245588862051  1.0000
  H   H52       1.0  0.3036841706572204  0.16465812446670472  0.6198320225446705  1.0000
  H   H53       1.0  0.4579606724678271  0.24825746456030365  0.9945957881913258  1.0000
  H   H54       1.0  0.5060021909651197  0.20239177588068455  0.04562959973564058  1.0000
  H   H55       1.0  0.5654935790210516  0.17843956535439526  0.940103974314688  1.0000
  H   H56       1.0  0.6096661210298109  0.1315772304084746  0.9910162728963099  1.0000
  H   H57       1.0  0.48093527729988483  0.061254005170532394  0.008912387208511103  1.0000
  H   H58       1.0  0.5213054852445681  0.03674858658487779  0.9501566890770475  1.0000
  H   H59       1.0  0.43741420763486616  0.10824794167226767  0.9574968998888733  1.0000
  H   H60       1.0  0.33008490785812933  0.7887766518383967  0.9970649775630346  1.0000
  H   H61       1.0  0.331427771737431  0.7612627349504989  0.9348700064415282  1.0000
  H   H62       1.0  0.4424724095363926  0.877551169155211  0.9818250775151611  1.0000
  H   H63       1.0  0.4460771441898999  0.851712637906189  0.9196244366600295  1.0000
  H   H64       1.0  0.30276192434558874  0.9110388919313195  0.9121937997482162  1.0000
  H   H65       1.0  0.3662197793420601  0.9843058631652821  0.9331482628275933  1.0000
  H   H66       1.0  0.29964043156674336  0.9384288931572228  0.9743979491937649  1.0000
  C   C1        1.0  0.5335743080166111  0.34865029433299094  0.5112649876794463  1.0000
  C   C2        1.0  0.4985677005186841  0.6480177905531405  0.4930250456742299  1.0000
  C   C3        1.0  0.48316554289419855  0.5170180158495014  0.5850918538128766  1.0000
  C   C4        1.0  0.4799702495348653  0.47272918332934205  0.4017836649628065  1.0000
  C   C5        1.0  0.5844940141079746  0.474851812416098  0.8096685186198371  1.0000
  C   C6        1.0  0.40400938371045914  0.5198388213340764  0.17386826265526878  1.0000
  C   C7        1.0  0.4895953080602241  0.6006474598408359  0.8140504856613971  1.0000
  C   C8        1.0  0.5043494809237996  0.39854306296629  0.1690345686372083  1.0000
  C   C9        1.0  0.5634528886966235  0.5856239459230537  0.7058475012897389  1.0000
  C   C10       1.0  0.43444826524143554  0.3966365285867467  0.27499308780006254  1.0000
  C   C11       1.0  0.5478045343316252  0.5795379715451645  0.6571215000868165  1.0000
  C   C12       1.0  0.4431070642966474  0.40148032759829977  0.3245783689263674  1.0000
  C   C13       1.0  0.4604620907567136  0.47393078921468396  0.6720186612666196  1.0000
  C   C14       1.0  0.5015376760398879  0.5279312427461349  0.3173760623072184  1.0000
  C   C15       1.0  0.4750517254043345  0.4785693053969806  0.7211423370600798  1.0000
  C   C16       1.0  0.49402206301672885  0.5248838480929833  0.267438876717179  1.0000
  C   C17       1.0  0.5264545841598005  0.5342922898105583  0.7380391378421008  1.0000
  C   C18       1.0  0.45999328784725424  0.4594974419158361  0.24612984128263085  1.0000
  C   C19       1.0  0.5264802315773521  0.5262528764154482  0.89041641841645  1.0000
  C   C20       1.0  0.4692000097337329  0.4761431119632106  0.09325689338286479  1.0000
  C   C21       1.0  0.5792574383634131  0.4710559231113861  0.8628931592704632  1.0000
  C   C22       1.0  0.4147736102893376  0.5291922267818946  0.12102772456439939  1.0000
  C   C23       1.0  0.6267737672927041  0.41450149345582316  0.8881958613312831  1.0000
  C   C24       1.0  0.3693633403818524  0.5878356558338281  0.0959525544120723  1.0000
  C   C25       1.0  0.48939880615829884  0.594966777833342  0.8672609701674359  1.0000
  C   C26       1.0  0.5049279840326122  0.40597390446112763  0.11585546835387817  1.0000
  C   C27       1.0  0.4962232253685455  0.5245880695327614  0.638629381890695  1.0000
  C   C28       1.0  0.4762532417034889  0.4663693553656285  0.3472916349734233  1.0000
  C   C29       1.0  0.5323895654085149  0.43045197940337937  0.0148324794380557  1.0000
  C   C30       1.0  0.4652459844583348  0.5753980129667441  0.9688612444633335  1.0000
  C   C31       1.0  0.4457900969294214  0.5585895976414432  0.0194911630735675  1.0000
  C   C32       1.0  0.5529578576488845  0.4476659035571942  0.9646547293253815  1.0000
  C   C33       1.0  0.4850834635345506  0.4901082446940989  0.0430342711101375  1.0000
  C   C34       1.0  0.5131782594812577  0.5155467255112781  0.9411011861496659  1.0000
  C   C35       1.0  0.5483461110446227  0.35328474238031043  0.035313110460172895  1.0000
  C   C36       1.0  0.44606940142340795  0.6515749078296621  0.947142153452148  1.0000
  C   C37       1.0  0.5402314127249426  0.34497036646429535  0.0860557524462493  1.0000
  C   C38       1.0  0.4544713131437134  0.6572994697816269  0.8961933114350698  1.0000
  C   C39       1.0  0.6159651827737206  0.40562633303405693  0.9383878018317374  1.0000
  C   C40       1.0  0.382491853161973  0.5992671453790592  0.046156762758187087  1.0000
  C   C41       1.0  0.5279492231648106  0.2642068694942167  0.5300281561121523  1.0000
  C   C42       1.0  0.4816765411735986  0.7316110472159848  0.5134647429233823  1.0000
  C   C43       1.0  0.46655444203206997  0.2200008993083031  0.512187980992884  1.0000
  C   C44       1.0  0.5358896211904707  0.7620247285139711  0.5454029348837891  1.0000
  C   C45       1.0  0.45262403650379923  0.14535009448862005  0.531036417032432  1.0000
  C   C46       1.0  0.5183614243885869  0.8365098796730734  0.5671558511379473  1.0000
  C   C47       1.0  0.4975369915253154  0.10808305297955195  0.5683224297023057  1.0000
  C   C48       1.0  0.44937395516532763  0.8873343459320895  0.5577037440046695  1.0000
  C   C49       1.0  0.5577773038814655  0.1548622818708694  0.5872935270012363  1.0000
  C   C50       1.0  0.3927104138530097  0.8539643674195572  0.5272696188187068  1.0000
  C   C51       1.0  0.5729020814423648  0.23026897796511037  0.567350410952187  1.0000
  C   C52       1.0  0.41024143590445294  0.7783444864532356  0.5055742415219057  1.0000
  C   C53       1.0  0.4960400907571269  0.023141073200370996  0.5810257664953509  1.0000
  C   C54       1.0  0.43949801381660325  0.9737184583228923  0.5664500925928804  1.0000
  C   C55       1.0  0.23639234234612164  0.5435616278891685  0.4768314339822268  1.0000
  C   C56       1.0  0.7600780076020824  0.4985153389607788  0.5309331090965584  1.0000
  C   C57       1.0  0.1525214640339314  0.5464100056026665  0.477709651699456  1.0000
  C   C58       1.0  0.843374854569319  0.5047583274135615  0.5309202057558123  1.0000
  C   C59       1.0  0.1145280847474979  0.4884578143197515  0.5054569933500587  1.0000
  C   C60       1.0  0.8828484506273568  0.5228619837688484  0.4872066816745145  1.0000
  C   C61       1.0  0.1610238452085468  0.42865636079248753  0.5299893578003534  1.0000
  C   C62       1.0  0.8386966912724104  0.536756014509457  0.445393726584001  1.0000
  C   C63       1.0  0.24478376074932842  0.4294545599240108  0.5258471932771797  1.0000
  C   C64       1.0  0.7560537170335023  0.5278423263825616  0.44890841427267236  1.0000
  C   C65       1.0  0.027368303824751174  0.4886710362289224  0.5102920357405907  1.0000
  C   C66       1.0  0.9697589553697552  0.5266718481096078  0.4832882317235772  1.0000
  C   C67       1.0  0.5699624230432859  0.1305592788812078  0.6718294913392384  1.0000
  C   C68       1.0  0.5662568087513405  0.2163833415949837  0.6921916775250451  1.0000
  C   C69       1.0  0.5377559165759463  0.21928569696824235  0.7453317264525621  1.0000
  C   C70       1.0  0.2553484740010106  0.9000929925813637  0.5459576378939062  1.0000
  C   C71       1.0  0.20857564049163807  0.8246141684691534  0.5416601197629376  1.0000
  C   C72       1.0  0.12791994229797868  0.8347276067511158  0.5698777757210819  1.0000
  C   C73       1.0  0.24865497531440883  0.6456822617433459  0.415054620489343  1.0000
  C   C74       1.0  0.24114717446623493  0.5967320835343414  0.3689844454512112  1.0000
  C   C75       1.0  0.218325849746634  0.6516926922849962  0.3265891350510941  1.0000
  C   C76       1.0  0.7499491862282566  0.46781629775875894  0.6161477386471786  1.0000
  C   C77       1.0  0.7882117910098501  0.3820370202451357  0.6203853904543735  1.0000
  C   C78       1.0  0.8128636758120604  0.3638239425630657  0.6721816546293623  1.0000
  C   C79       1.0  0.7324195273943844  0.5599416282162082  0.3649787447041176  1.0000
  C   C80       1.0  0.7350272251040549  0.6514553037986203  0.3615717591527669  1.0000
  C   C81       1.0  0.7520141305337589  0.6775116155085925  0.30947631842831663  1.0000
  C   C82       1.0  0.27193318374456504  0.29707613965740615  0.5613777942577369  1.0000
  C   C83       1.0  0.26170162066022573  0.29221047579039794  0.6160417338213405  1.0000
  C   C84       1.0  0.2513822950695754  0.20485798304221692  0.6318040784439347  1.0000
  C   C85       1.0  0.5158812200531385  0.22311091730597343  0.008297468196140302  1.0000
  C   C86       1.0  0.5519973092517105  0.15455760505879815  0.9763252732257895  1.0000
  C   C87       1.0  0.49476613505279216  0.08652719765734666  0.9731038366505017  1.0000
  C   C88       1.0  0.36837230371334334  0.7815194818328876  0.9640114497019852  1.0000
  C   C89       1.0  0.40566301593680265  0.8603466106096107  0.9516848001421819  1.0000
  C   C90       1.0  0.33987014677961713  0.9271746945927005  0.9423947869991736  1.0000
  N   N1        1.0  0.5368313281472652  0.5386796925584463  0.7890756544594594  1.0000
  N   N2        1.0  0.45491654076575105  0.45818386478342177  0.1945939853538121  1.0000
  N   N3        1.0  0.28134790530477716  0.4869151568631976  0.5007280735029055  1.0000
  N   N4        1.0  0.7178067260207044  0.5087319039168962  0.4904840261230773  1.0000
  O   O1        1.0  0.6015986766426734  0.3767863988187655  0.5035488070692296  1.0000
  O   O2        1.0  0.43743028807227086  0.6081686506761343  0.4872464683023096  1.0000
  O   O3        1.0  0.46493084089291875  0.38420612288965117  0.5045836336271136  1.0000
  O   O4        1.0  0.5718015463533063  0.6229581855483983  0.4852331764866519  1.0000
  O   O5        1.0  0.5470152635589969  0.5134562570522122  0.5592537606843279  1.0000
  O   O6        1.0  0.41205167675368404  0.47357343578232036  0.42351006498108024  1.0000
  O   O7        1.0  0.41137590359630133  0.5142266144027516  0.5719851452475452  1.0000
  O   O8        1.0  0.5488776522186428  0.47766085608646586  0.4187536964709721  1.0000
  O   O9        1.0  0.6240492500547745  0.4255739360911333  0.7836550944775025  1.0000
  O   O10       1.0  0.35711079115625916  0.562824137219117  0.19950911373253177  1.0000
  O   O11       1.0  0.5451012790644754  0.34671202678456564  0.19063240609690973  1.0000
  O   O12       1.0  0.4498313915122196  0.6521799930639886  0.791630431254667  1.0000
  O   O13       1.0  0.6056777848735067  0.12437455134911347  0.6232444073448489  1.0000
  O   O14       1.0  0.32542000528311377  0.8996673470455575  0.5135169908437262  1.0000
  O   O15       1.0  0.28098381477032314  0.5962039199381194  0.4536595265571818  1.0000
  O   O16       1.0  0.7143178051698129  0.4829198473807565  0.5698854444504704  1.0000
  O   O17       1.0  0.7055880163828548  0.5346787720871615  0.41228568032099827  1.0000
  O   O18       1.0  0.2970333098751182  0.3748427906667969  0.545385218139067  1.0000
  O   O19       1.0  0.5713986331253478  0.2876242813171074  0.007306946353615699  1.0000
  O   O20       1.0  0.42928758210877044  0.7170351111260161  0.9757504586853967  1.0000
  F   F1        1.0  0.4116546055097245  0.4173913143950755  0.6574070771128432  1.0000
  F   F2        1.0  0.5331733518469405  0.5936472465162126  0.33649698249852367  1.0000
  F   F3        1.0  0.3562257633074566  0.7531910529487148  0.4741978585020305  1.0000
  F   F4        1.0  0.6311446799489742  0.2720913251906012  0.5870891832589819  1.0000
  F   F5        1.0  0.5733449550259948  0.8638022911431944  0.5979269226132686  1.0000
  F   F6        1.0  0.39250027889576694  0.10578197300286972  0.5105839839417284  1.0000
  F   F7        1.0  0.995284302213733  0.5706671359701116  0.4446139392683151  1.0000
  F   F8        1.0  0.0008947802772993952  0.4402303282773515  0.5466864173247784  1.0000
  F   F9        1.0  0.43869051124576686  0.4287079033502721  0.7525727859262615  1.0000
  F   F10       1.0  0.5203867368467526  0.5857951275699163  0.23974315674720967  1.0000
  F   F11       1.0  0.6860140038422385  0.3671529587542182  0.8665539721671394  1.0000
  F   F12       1.0  0.3094235340951599  0.6346884123927906  0.11729281711495078  1.0000
  F   F13       1.0  0.4187765148369351  0.3394207860339193  0.3522568767930422  1.0000
  F   F14       1.0  0.5840382428581705  0.6307499156602177  0.6264878710618049  1.0000
  F   F15       1.0  0.5671072440435552  0.2731800209608011  0.10430116258384459  1.0000
  F   F16       1.0  0.43154893995372123  0.7289094599753339  0.875972593388347  1.0000
  F   F17       1.0  0.6726136414030534  0.3579662940332965  0.9600485307583142  1.0000
  F   F18       1.0  0.3264243129033559  0.6486618552575435  0.024862275453472204  1.0000
