data_image0
_chemical_formula_structural       Zn2H29C33N3O10
_chemical_formula_sum              "Zn2 H29 C33 N3 O10"
_cell_length_a       9.710570275853392
_cell_length_b       11.036024672835621
_cell_length_c       16.095814596735103
_cell_angle_alpha    89.8472065080159
_cell_angle_beta     89.8364299214054
_cell_angle_gamma    89.74681158802775

_space_group_name_H-M_alt    "P 1"
_space_group_IT_number       1

loop_
  _space_group_symop_operation_xyz
  'x, y, z'

loop_
  _atom_site_type_symbol
  _atom_site_label
  _atom_site_symmetry_multiplicity
  _atom_site_fract_x
  _atom_site_fract_y
  _atom_site_fract_z
  _atom_site_occupancy
  Zn  Zn1       1.0  0.6361868144371385  0.5084909867753422  0.4985106329880153  1.0000
  Zn  Zn2       1.0  0.3528083216819837  0.5090155178771096  0.5056497885310094  1.0000
  H   H1        1.0  0.6643529755300932  0.6305889541496369  0.9303638913083531  1.0000
  H   H2        1.0  0.28415180894396036  0.5159843745461002  0.0687422673979157  1.0000
  H   H3        1.0  0.3814333294154224  0.6485284655729088  0.0782452856291158  1.0000
  H   H4        1.0  0.4063564019518465  0.6640689247881041  0.9338205462018792  1.0000
  H   H5        1.0  0.293360553330686  0.5401186249963102  0.9238855340116743  1.0000
  H   H6        1.0  0.5690429321687063  0.30094669732701357  0.9259979492476731  1.0000
  H   H7        1.0  0.7263214556143681  0.4898159022513581  0.07758002857844559  1.0000
  H   H8        1.0  0.7312467327990007  0.48115181728712736  0.9348869157989981  1.0000
  H   H9        1.0  0.3887649766008181  0.326498086156377  0.9301456452019465  1.0000
  H   H10       1.0  0.2811192543789716  0.8993223127404447  0.5525062780270815  1.0000
  H   H11       1.0  0.2864691155105987  0.12465755496426566  0.5542285449809726  1.0000
  H   H12       1.0  0.7599015645367331  0.11363181769832657  0.3881834977878356  1.0000
  H   H13       1.0  0.7595777096499959  0.8889815441778309  0.39035827729870937  1.0000
  H   H14       1.0  0.8248765528859892  0.8882226610956817  0.4941910926553135  1.0000
  H   H15       1.0  0.1190129078001902  0.4369022182850059  0.622943446391787  1.0000
  H   H16       1.0  0.8585203695989845  0.4390730554696131  0.6190407051807014  1.0000
  H   H17       1.0  0.8732310538745977  0.5437831688811271  0.3035119177515995  1.0000
  H   H18       1.0  0.8719520154379906  0.692243301348661  0.346879618857308  1.0000
  H   H19       1.0  0.1360931882771581  0.5421931443682338  0.3083140780519571  1.0000
  H   H20       1.0  0.1334048435604274  0.6909523344816076  0.3515812748880265  1.0000
  H   H21       1.0  0.9682861273181658  0.11780175937165177  0.47996063531364547  1.0000
  H   H22       1.0  0.8467422357578869  0.23129400376720347  0.5104986290116855  1.0000
  H   H23       1.0  0.8619647482165292  0.0950110333156431  0.5690505076603357  1.0000
  H   H24       1.0  0.7621635062596679  0.7074421045889991  0.0658332263188015  1.0000
  H   H25       1.0  0.583320415829874  0.7367039521578318  0.0589824604714337  1.0000
  H   H26       1.0  0.653901067197566  0.6773038824561579  0.1528192047006769  1.0000
  H   H27       1.0  0.37237987618406265  0.18906897013253846  0.0597470300840897  1.0000
  H   H28       1.0  0.3720276577447237  0.2804203720084431  0.1511550895497962  1.0000
  H   H29       1.0  0.2738699161941867  0.3244131433810152  0.0622354976904518  1.0000
  C   C1        1.0  0.4867849867374261  0.7435060801148834  0.5046797015565119  1.0000
  C   C2        1.0  0.4943905176629926  0.5044089515667876  0.3387737146065462  1.0000
  C   C3        1.0  0.492162290451894  0.27412806534311324  0.5052083612806229  1.0000
  C   C4        1.0  0.5042553468551887  0.5028631890410222  0.6652375930017485  1.0000
  C   C5        1.0  0.6413419850875925  0.5446956045670317  0.0523937972534796  1.0000
  C   C6        1.0  0.3802919161171019  0.5590840915381035  0.048701600516231694  1.0000
  C   C7        1.0  0.3893614784014546  0.569793314202769  0.9533507916385844  1.0000
  C   C8        1.0  0.5090292048194768  0.49666488997399216  0.754967251393694  1.0000
  C   C9        1.0  0.5043541650679869  0.4854424106334108  0.0837301157806891  1.0000
  C   C10       1.0  0.6465057779446681  0.539588547821772  0.9560933957262492  1.0000
  C   C11       1.0  0.5098334903121186  0.4908053785807382  0.9205895475330763  1.0000
  C   C12       1.0  0.48871957757607026  0.35970465521411643  0.9521073909687345  1.0000
  C   C13       1.0  0.4922284128213051  0.3527871592866702  0.0477132881615674  1.0000
  C   C14       1.0  0.5115264317593073  0.4926999991250652  0.8303956212405267  1.0000
  C   C15       1.0  0.4977635772506303  0.48662578652232463  0.1738395053321824  1.0000
  C   C16       1.0  0.492689717110764  0.49541423139092433  0.24902109551388923  1.0000
  C   C17       1.0  0.605825011512799  0.9438045351211809  0.4852302380680412  1.0000
  C   C18       1.0  0.48941813255515854  0.8782655098323954  0.5079296509339883  1.0000
  C   C19       1.0  0.37401900512585945  0.9471042294370944  0.53327715017069  1.0000
  C   C20       1.0  0.3768830267901961  0.07349873782649749  0.5341430363883646  1.0000
  C   C21       1.0  0.49418717569767506  0.1392150277325186  0.5086073464181099  1.0000
  C   C22       1.0  0.6084725510145432  0.07023907559783987  0.4850406891308481  1.0000
  C   C23       1.0  0.7554674580875513  0.0755280722504352  0.4514409772324228  1.0000
  C   C24       1.0  0.7510631502160051  0.9318091805310613  0.4518031461183795  1.0000
  C   C25       1.0  0.0694339222511644  0.5481302752991862  0.4391221398971084  1.0000
  C   C26       1.0  0.0633467878287846  0.469141096793109  0.5684689560878907  1.0000
  C   C27       1.0  0.9198401841878193  0.46995709786182954  0.5663436060040397  1.0000
  C   C28       1.0  0.9258813078030669  0.548686850329261  0.4367640266906392  1.0000
  C   C29       1.0  0.9204122273360367  0.602361487175038  0.35031048654303737  1.0000
  C   C30       1.0  0.0842006923506275  0.6016344189684302  0.35315729101286303  1.0000
  C   C31       1.0  0.8647564547144382  0.13334765565734585  0.5058828451077133  1.0000
  C   C32       1.0  0.6603782316410972  0.6737906719953413  0.08472790210237238  1.0000
  C   C33       1.0  0.37039820749568975  0.28247776275728836  0.083166702060872  1.0000
  N   N1        1.0  0.14142726143514042  0.508829185014484  0.5038222241229137  1.0000
  N   N2        1.0  0.8478726689870726  0.5102007400712123  0.49924716979889877  1.0000
  N   N3        1.0  0.6250146014130139  0.28356199194230663  0.07651045964240669  1.0000
  O   O1        1.0  0.6025887369248579  0.6896209590931262  0.5120876070935338  1.0000
  O   O2        1.0  0.3706520939843045  0.6923192265024551  0.4941835513244044  1.0000
  O   O3        1.0  0.6107390548040073  0.5282731823858666  0.3710427827801723  1.0000
  O   O4        1.0  0.38090436915575054  0.48804998502231456  0.37688411084796775  1.0000
  O   O5        1.0  0.6044926426283724  0.3266229472889605  0.4853976324834193  1.0000
  O   O6        1.0  0.37847558090250294  0.32745063742620306  0.5214403818001472  1.0000
  O   O7        1.0  0.6173010690636572  0.4846670747285413  0.6266713259947139  1.0000
  O   O8        1.0  0.38741427303330056  0.5260965383100639  0.6330228085655776  1.0000
  O   O9        1.0  0.723203597956406  0.27451082159564777  0.0275657394348698  1.0000
  O   O10       1.0  0.6251289849539461  0.24480427212959904  0.1484948716891878  1.0000
