data_image0
_chemical_formula_structural       Zn16H24C96S20Br8O64
_chemical_formula_sum              "Zn16 H24 C96 S20 Br8 O64"
_cell_length_a       19.6165697920835
_cell_length_b       19.678194995192733
_cell_length_c       33.27103332051333
_cell_angle_alpha    79.2336422004571
_cell_angle_beta     79.43617902574017
_cell_angle_gamma    64.03657579810587

_space_group_name_H-M_alt    "P 1"
_space_group_IT_number       1

loop_
  _space_group_symop_operation_xyz
  'x, y, z'

loop_
  _atom_site_type_symbol
  _atom_site_label
  _atom_site_symmetry_multiplicity
  _atom_site_fract_x
  _atom_site_fract_y
  _atom_site_fract_z
  _atom_site_occupancy
  Zn  Zn1       1.0  0.05682446982142858  0.3980849036696626  0.47931361216338786  1.0000
  Zn  Zn2       1.0  0.9871281763328952  0.4812615567711518  0.5600509542342421  1.0000
  Zn  Zn3       1.0  0.0556686596252121  0.5632077834102276  0.4807050130065632  1.0000
  Zn  Zn4       1.0  0.9011125086026721  0.5570085006015904  0.47932069033364405  1.0000
  Zn  Zn5       1.0  0.6916182946901158  0.3523223494782926  0.27154087620382944  1.0000
  Zn  Zn6       1.0  0.6870476084087186  0.19335794112650723  0.26677672316704104  1.0000
  Zn  Zn7       1.0  0.7709428943170734  0.26674454930068264  0.19055948207162737  1.0000
  Zn  Zn8       1.0  0.8473614679041502  0.1974759333856186  0.2725982075893185  1.0000
  Zn  Zn9       1.0  0.26923868122220546  0.7653287826685897  0.688490537810921  1.0000
  Zn  Zn10      1.0  0.3506711896986019  0.6966873140919034  0.7701294301929451  1.0000
  Zn  Zn11      1.0  0.19081978352784287  0.8458350454834686  0.7711284513721497  1.0000
  Zn  Zn12      1.0  0.19162795101968297  0.6868873544506686  0.7661763324885911  1.0000
  Zn  Zn13      1.0  0.5600763066678454  0.06070077448639922  0.9828874880288155  1.0000
  Zn  Zn14      1.0  0.40052632993191384  0.05654321868527751  0.9777477126793527  1.0000
  Zn  Zn15      1.0  0.553835663680438  0.9016833880901557  0.978160960847923  1.0000
  Zn  Zn16      1.0  0.4841203412469639  0.9832407088149469  0.060440538303502905  1.0000
  H   H1        1.0  0.9535800429404516  0.2535884198890627  0.35087228183286356  1.0000
  H   H2        1.0  0.741805167264644  0.45458145535315003  0.3538963507087303  1.0000
  H   H3        1.0  0.0003990118363575002  0.3047605152566176  0.3981840993740775  1.0000
  H   H4        1.0  0.09282553391118137  0.599967559727908  0.698107400255225  1.0000
  H   H5        1.0  0.20398022533791496  0.6998296222442875  0.597031779422366  1.0000
  H   H6        1.0  0.04489838149372359  0.5560727195043995  0.6477138472127422  1.0000
  H   H7        1.0  0.46369582709112217  0.23884788053813114  0.34366121123996146  1.0000
  H   H8        1.0  0.4825306758527643  0.6988380123006264  0.5997874946376103  1.0000
  H   H9        1.0  0.20546421091302133  0.9774632840407663  0.6025775253897976  1.0000
  H   H10       1.0  0.9487370628868632  0.9708893527946003  0.3453435789231847  1.0000
  H   H11       1.0  0.5551349797069917  0.04816300184531034  0.1532632252309156  1.0000
  H   H12       1.0  0.6510148307936063  0.15536501513099688  0.048205070465201096  1.0000
  H   H13       1.0  0.6067124869571644  0.09624777176139072  0.19969805707531657  1.0000
  H   H14       1.0  0.5459010258061949  0.7696883664899448  0.1488485687618351  1.0000
  H   H15       1.0  0.16252191839413394  0.14088647056525622  0.04022844170565781  1.0000
  H   H16       1.0  0.4966222580930263  0.7949428900868725  0.8994557842404235  1.0000
  H   H17       1.0  0.2953042064755492  0.0064472752831648324  0.8971916049455615  1.0000
  H   H18       1.0  0.44439679751801003  0.7500362949006673  0.8517603554304073  1.0000
  H   H19       1.0  0.300253505108742  0.28234818756770613  0.9009945690197229  1.0000
  H   H20       1.0  0.7875290086054249  0.008998535864620322  0.9089683512591124  1.0000
  H   H21       1.0  0.8458224140752646  0.5733143537686518  0.3993863879923509  1.0000
  H   H22       1.0  0.0660634559358542  0.6885809924939326  0.5129573709679676  1.0000
  H   H23       1.0  0.7977145171055681  0.1762670697908107  0.12302305917240373  1.0000
  H   H24       1.0  0.175609918773084  0.9050993408731641  0.8497841041072008  1.0000
  C   C1        1.0  0.0612916397323744  0.3144382999238431  0.5624900591292956  1.0000
  C   C2        1.0  0.0636116429380067  0.5755721262497817  0.5673118397204463  1.0000
  C   C3        1.0  0.1816891780666623  0.4403569827569171  0.43879067587125314  1.0000
  C   C4        1.0  0.9339808613376872  0.688020336188217  0.43881610224924833  1.0000
  C   C5        1.0  0.9340660990266443  0.43476385086874103  0.42872339616879873  1.0000
  C   C6        1.0  0.8203301613744002  0.5599554302367977  0.5621152711412449  1.0000
  C   C7        1.0  0.5643768288679495  0.31196460318739144  0.3123815480217615  1.0000
  C   C8        1.0  0.688275720922725  0.17574636824459597  0.1811457995598857  1.0000
  C   C9        1.0  0.6879436349784668  0.43278820492510317  0.18728315989061883  1.0000
  C   C10       1.0  0.9361009000538798  0.19034467070738262  0.18972112640739175  1.0000
  C   C11       1.0  0.8170262834756625  0.32179091209567917  0.32023202489940433  1.0000
  C   C12       1.0  0.8107676549273534  0.06724840293713197  0.30927052764717894  1.0000
  C   C13       1.0  0.4361034638351028  0.6863254422067302  0.6869683479294224  1.0000
  C   C14       1.0  0.31414207677674705  0.8177908844442072  0.820764280492277  1.0000
  C   C15       1.0  0.19229505290471138  0.9320164827022738  0.6891989433600259  1.0000
  C   C16       1.0  0.0639949717801755  0.8082570573643654  0.8102616592636878  1.0000
  C   C17       1.0  0.18100687143172675  0.6793532550258874  0.6801219473804778  1.0000
  C   C18       1.0  0.3145193282255576  0.5687006575954997  0.8125450024144811  1.0000
  C   C19       1.0  0.43757701394806486  0.18483867978580562  0.9380926766116815  1.0000
  C   C20       1.0  0.42914871969291807  0.9312020972622791  0.9302455527691721  1.0000
  C   C21       1.0  0.6835184060229337  0.9390104006618362  0.9388808385916718  1.0000
  C   C22       1.0  0.5615791573082232  0.8165182388675521  0.06185891620185655  1.0000
  C   C23       1.0  0.570075723358144  0.06961313505253497  0.06953797134305258  1.0000
  C   C24       1.0  0.31617823316190646  0.061282487047734015  0.06096368367911961  1.0000
  C   C25       1.0  0.8988354623632872  0.40854094746201525  0.4019391755311048  1.0000
  C   C26       1.0  0.8453069600283384  0.351163718470339  0.3490869297852086  1.0000
  C   C27       1.0  0.8249501456620648  0.4504286252539558  0.3893756816765901  1.0000
  C   C28       1.0  0.9179788432749516  0.3086460266090045  0.3618251363638407  1.0000
  C   C29       1.0  0.7988246274913064  0.4217422899683642  0.36323242367792835  1.0000
  C   C30       1.0  0.9439463387916118  0.33722101571578394  0.3880334402246532  1.0000
  C   C31       1.0  0.09612871378948279  0.6039448927445362  0.5944078283112831  1.0000
  C   C32       1.0  0.15096941166932248  0.6529157737506283  0.6507087242859697  1.0000
  C   C33       1.0  0.14151160906802568  0.6449698625617588  0.5803076811834913  1.0000
  C   C34       1.0  0.1061750791235099  0.612319894855375  0.6650726844493776  1.0000
  C   C35       1.0  0.16849405255287309  0.6689469255719658  0.608305791665039  1.0000
  C   C36       1.0  0.07945754160304828  0.5881239781272926  0.6370578817850543  1.0000
  C   C37       1.0  0.30138493075705236  0.45724610200907284  0.39982644402909523  1.0000
  C   C38       1.0  0.44547194555417485  0.296595762869302  0.3504938443783772  1.0000
  C   C39       1.0  0.2561241133661767  0.4173773727539898  0.4137483459837553  1.0000
  C   C40       1.0  0.48937673973230017  0.3374798623771797  0.3371325918173938  1.0000
  C   C41       1.0  0.3765923604624887  0.3402481456867504  0.37331178369768747  1.0000
  C   C42       1.0  0.3699566276808852  0.4132836896202789  0.3767729777234976  1.0000
  C   C43       1.0  0.7290606238049122  0.5743052260814991  0.6300569993362968  1.0000
  C   C44       1.0  0.5270848972372021  0.6702587284922075  0.6201180196994259  1.0000
  C   C45       1.0  0.7461666807856344  0.5830728891661966  0.5874304007790555  1.0000
  C   C46       1.0  0.5115063089389337  0.6608006968692948  0.6625818657124397  1.0000
  C   C47       1.0  0.6065863508485022  0.6382533747801705  0.6081124995324031  1.0000
  C   C48       1.0  0.6495334320114522  0.6055029261583442  0.6419206929618468  1.0000
  C   C49       1.0  0.07612053817061339  0.22395593149725107  0.6308946888509155  1.0000
  C   C50       1.0  0.1763441276296547  0.022375594493638625  0.6224308905547247  1.0000
  C   C51       1.0  0.08564458492214298  0.24064471897560225  0.5882334215358256  1.0000
  C   C52       1.0  0.16659824581096663  0.007503608924160724  0.664945939802287  1.0000
  C   C53       1.0  0.14361720956451043  0.10147677259036672  0.6099220638322934  1.0000
  C   C54       1.0  0.10936455383085077  0.14471044073062705  0.6433433307111827  1.0000
  C   C55       1.0  0.8381750827052057  0.8062319893400063  0.39817019021995753  1.0000
  C   C56       1.0  0.9035021057661295  0.9513724320669327  0.3506612159542328  1.0000
  C   C57       1.0  0.9075859734143064  0.7626380824447028  0.414026304169532  1.0000
  C   C58       1.0  0.834485616525164  0.9929074080771657  0.3346560903118245  1.0000
  C   C59       1.0  0.9052551665992893  0.8828451672982071  0.3737555786260316  1.0000
  C   C60       1.0  0.837023641959611  0.8745022497185674  0.3750043668938048  1.0000
  C   C61       1.0  0.65874076821364  0.15139506392569774  0.15046462095993007  1.0000
  C   C62       1.0  0.6004085464854609  0.09803056642304868  0.09788313471029403  1.0000
  C   C63       1.0  0.670706192774567  0.16807256373773788  0.10719569242161239  1.0000
  C   C64       1.0  0.5876379189272284  0.08171644388055915  0.14061915303350503  1.0000
  C   C65       1.0  0.6417284243442438  0.1415491832710103  0.08140348413358821  1.0000
  C   C66       1.0  0.6164198748081019  0.10840382172484207  0.16638150998359444  1.0000
  C   C67       1.0  0.6765112594295957  0.5239604852685604  0.11908963325036127  1.0000
  C   C68       1.0  0.5762725644260626  0.7253628131501914  0.12870534594723176  1.0000
  C   C69       1.0  0.665095384306987  0.5066477046686374  0.16163662905308485  1.0000
  C   C70       1.0  0.5875043694602907  0.7411778737656437  0.08630476748555078  1.0000
  C   C71       1.0  0.6087680611520979  0.6460506708198754  0.14079622378001488  1.0000
  C   C72       1.0  0.6441942011719348  0.6034433692400258  0.10722144804591949  1.0000
  C   C73       1.0  0.08374010981306407  0.122949224911622  0.1783381762242655  1.0000
  C   C74       1.0  0.17039075716795077  0.12408032111002144  0.0726728255148785  1.0000
  C   C75       1.0  0.011338359461902297  0.1631288451272468  0.16554708910468463  1.0000
  C   C76       1.0  0.2417444304148688  0.08510487824289474  0.0862969533190423  1.0000
  C   C77       1.0  0.1124279837422364  0.13792936294374414  0.10626160334859952  1.0000
  C   C78       1.0  0.14144063941761686  0.10873363937636074  0.1446347274281337  1.0000
  C   C79       1.0  0.34050045540094936  0.8515921668881392  0.8482583772736874  1.0000
  C   C80       1.0  0.39900752077497254  0.9031247387174234  0.9016311489685053  1.0000
  C   C81       1.0  0.2986625363878516  0.9247335750845592  0.8613104290847248  1.0000
  C   C82       1.0  0.44121919923400543  0.8309373256078912  0.8886639031532725  1.0000
  C   C83       1.0  0.327961638102046  0.9498457830977005  0.8876493330636775  1.0000
  C   C84       1.0  0.4120712622835612  0.8059872624329643  0.8622010856996666  1.0000
  C   C85       1.0  0.4092775080302998  0.44995662014110127  0.8538735036874455  1.0000
  C   C86       1.0  0.3452243463723547  0.30203041264348945  0.8968778490162208  1.0000
  C   C87       1.0  0.3408054782506936  0.4937233913712404  0.83719150960453  1.0000
  C   C88       1.0  0.41380741396689297  0.2598404605197119  0.9132443656763344  1.0000
  C   C89       1.0  0.34351772441441136  0.37145954943094495  0.8750367027198678  1.0000
  C   C90       1.0  0.41097408039119177  0.38030038607570305  0.8754325387507578  1.0000
  C   C91       1.0  0.9436925711557079  0.7927038287457722  0.8495388367163345  1.0000
  C   C92       1.0  0.8039868201105661  0.9520982156968004  0.9013299068980772  1.0000
  C   C93       1.0  0.989926367782111  0.8314426768921309  0.8357198470852012  1.0000
  C   C94       1.0  0.7586439157120991  0.9126695959967823  0.914204251484577  1.0000
  C   C95       1.0  0.8717060521710633  0.9083621805573685  0.8776756610347007  1.0000
  C   C96       1.0  0.8762180663520593  0.8364794744407508  0.8733549481819126  1.0000
  S   S1        1.0  0.2977648540153908  0.3263362974358089  0.398241501455594  1.0000
  S   S2        1.0  0.44778864902550447  0.42860330229156335  0.3520225498718617  1.0000
  S   S3        1.0  0.6645237040954439  0.629016400362936  0.5619485878163388  1.0000
  S   S4        1.0  0.5926531281079548  0.613256739981765  0.6882393098372573  1.0000
  S   S5        1.0  0.13531639368565607  0.1588171772098051  0.5634876918230417  1.0000
  S   S6        1.0  0.11803890151455927  0.08861496669271672  0.690048638900322  1.0000
  S   S7        1.0  0.9709823047309666  0.8058522473363752  0.40067203061091317  1.0000
  S   S8        1.0  0.7713153450956937  0.949824096390522  0.3475022063794881  1.0000
  S   S9        1.0  0.6155213077459079  0.58791782873913  0.18690143066878312  1.0000
  S   S10       1.0  0.6374798935051728  0.6604691341082544  0.060903429298342394  1.0000
  S   S11       1.0  0.0142287627675728  0.18294012778778782  0.11204914251374731  1.0000
  S   S12       1.0  0.23939547878575942  0.0645533288802724  0.1395979642257359  1.0000
  S   S13       1.0  0.27868225976236966  0.44897657006684  0.8478928765595128  1.0000
  S   S14       1.0  0.4764625093522454  0.3036146173686446  0.9023704489646818  1.0000
  S   S15       1.0  0.950527306959614  0.9215697293167228  0.8521562234414191  1.0000
  S   S16       1.0  0.7975640685009963  0.8226212314733206  0.8980784404649995  1.0000
  S   S17       1.0  0.7571616676755965  0.5396219663136179  0.40676569739939344  1.0000
  S   S18       1.0  0.17385893403049824  0.6642962463012342  0.5270949405942389  1.0000
  S   S19       1.0  0.7169022964048324  0.2283516342500749  0.08154092771198408  1.0000
  S   S20       1.0  0.20935971657099367  0.9933180245547818  0.8438198548293202  1.0000
  Br  Br1       1.0  0.2795376145503212  0.5563414629957322  0.40858907921890614  1.0000
  Br  Br2       1.0  0.7986434334129839  0.5262277936728024  0.6693510775172484  1.0000
  Br  Br3       1.0  0.026584803734763796  0.2934267959820289  0.6698150387402393  1.0000
  Br  Br4       1.0  0.7544489622208133  0.7816481911943429  0.40412647676522795  1.0000
  Br  Br5       1.0  0.7273899244959451  0.4550851893330545  0.0801704824359319  1.0000
  Br  Br6       1.0  0.1078466204955717  0.08944907480088203  0.23270900582641474  1.0000
  Br  Br7       1.0  0.49278791248057974  0.474650752917441  0.8495390918185421  1.0000
  Br  Br8       1.0  0.9629267061546402  0.6948926955597726  0.8392419316094076  1.0000
  O   O1        1.0  0.0010378034031787995  0.49809831925967546  0.4996882429841635  1.0000
  O   O2        1.0  0.08216698191375829  0.3127363487838722  0.5236553254888107  1.0000
  O   O3        1.0  0.049050545518163284  0.5187293631803627  0.5827986072133058  1.0000
  O   O4        1.0  0.1549221832391083  0.5040789371349775  0.4530816551023946  1.0000
  O   O5        1.0  0.021642184794885097  0.3736693523561243  0.5806768219466889  1.0000
  O   O6        1.0  0.15028724381841838  0.39359745635592003  0.44416900845769897  1.0000
  O   O7        1.0  0.05028304619359859  0.6103451217177353  0.5308532796712981  1.0000
  O   O8        1.0  0.004019663583342501  0.6584393206741979  0.44594255975460584  1.0000
  O   O9        1.0  0.9105124387098724  0.5066752415409539  0.42987819157880847  1.0000
  O   O10       1.0  0.8862299813270482  0.6585724273342564  0.4512375852257406  1.0000
  O   O11       1.0  0.9874733764117494  0.3835395184163843  0.4480971911373999  1.0000
  O   O12       1.0  0.8798055872574791  0.5349574862516063  0.5805879321924081  1.0000
  O   O13       1.0  0.8181326980923983  0.5678323096676369  0.5231252810488343  1.0000
  O   O14       1.0  0.7483601848815055  0.25265572070837566  0.250605015905542  1.0000
  O   O15       1.0  0.5940302937675384  0.3600914937924103  0.3029306753434966  1.0000
  O   O16       1.0  0.6529634765528413  0.17969538813113675  0.21725321540617412  1.0000
  O   O17       1.0  0.7209107342659279  0.3730344897960337  0.1689527434742502  1.0000
  O   O18       1.0  0.5931487238802261  0.24433573911552744  0.3024911822433652  1.0000
  O   O19       1.0  0.6721651886203331  0.43540618098997913  0.22629255021494293  1.0000
  O   O20       1.0  0.7479467189996071  0.1893040991955673  0.17016482377692915  1.0000
  O   O21       1.0  0.8790670765841924  0.22782998032275256  0.16885190983869341  1.0000
  O   O22       1.0  0.8613910686701515  0.25604865394679904  0.3095905413631074  1.0000
  O   O23       1.0  0.9332455932297135  0.17515209671345414  0.2287720410984022  1.0000
  O   O24       1.0  0.7515498787225282  0.36498383221766795  0.3087550359531548  1.0000
  O   O25       1.0  0.7457034982277264  0.09330254321722016  0.295784410768654  1.0000
  O   O26       1.0  0.856875768524965  0.09897354536528259  0.3031142668139637  1.0000
  O   O27       1.0  0.25090012938483847  0.748468084079775  0.7488716489495673  1.0000
  O   O28       1.0  0.3779104542277665  0.7225838301570705  0.6672250424691484  1.0000
  O   O29       1.0  0.365582842418675  0.766122734123755  0.8005686875777656  1.0000
  O   O30       1.0  0.17775168963797228  0.9311627935276406  0.7283894708466008  1.0000
  O   O31       1.0  0.43586075688841663  0.669684097473315  0.7261115725236281  1.0000
  O   O32       1.0  0.22634047736436708  0.8745720498230942  0.6690542890049542  1.0000
  O   O33       1.0  0.24212376017602813  0.8405408096226314  0.8197422370676861  1.0000
  O   O34       1.0  0.09112369756992679  0.858676413377367  0.801033392947943  1.0000
  O   O35       1.0  0.16490646085603086  0.6617860742054233  0.7184212642202894  1.0000
  O   O36       1.0  0.09507035058573618  0.7414059498984645  0.7995048077905125  1.0000
  O   O37       1.0  0.22002280826315967  0.7171425213320789  0.66415501986598  1.0000
  O   O38       1.0  0.35744462967142  0.6040038949854177  0.8064912124936328  1.0000
  O   O39       1.0  0.24959597904562256  0.5918672761515823  0.799340237514393  1.0000
  O   O40       1.0  0.4994053189835057  0.0005726256615546468  0.9999364100002879  1.0000
  O   O41       1.0  0.5042960225057982  0.1568510416530913  0.9496900409426557  1.0000
  O   O42       1.0  0.3866782849753746  0.997225957598417  0.9408700965716648  1.0000
  O   O43       1.0  0.651762275224101  0.8926083362246973  0.9466391606854501  1.0000
  O   O44       1.0  0.39002096171367373  0.15460436465377825  0.9458635025150103  1.0000
  O   O45       1.0  0.65687958127004  0.005320102708630296  0.950164661146225  1.0000
  O   O46       1.0  0.4946088993885453  0.8865714649887125  0.9415186766714001  1.0000
  O   O47       1.0  0.576669421611541  0.8169363381816622  0.02272401596325578  1.0000
  O   O48       1.0  0.5322206956864547  0.03093593749463258  0.0863522723295702  1.0000
  O   O49       1.0  0.5264904416719175  0.8744817734166972  0.08160643239784802  1.0000
  O   O50       1.0  0.5849263167102805  0.0865020253135072  0.0310753393792638  1.0000
  O   O51       1.0  0.31538815089380273  0.07770421117196244  0.022027871420178285  1.0000
  O   O52       1.0  0.3748852343822334  0.026346446626924112  0.08058029959417472  1.0000
  O   O53       1.0  0.7972869966198529  0.5947335665598102  0.3861563431762677  1.0000
  O   O54       1.0  0.6894594012692676  0.5652921896347749  0.3870922325712414  1.0000
  O   O55       1.0  0.7531976415568309  0.5313998111758168  0.45098417012985687  1.0000
  O   O56       1.0  0.09598370160774998  0.72035849527623  0.5087942939024614  1.0000
  O   O57       1.0  0.21664898867079774  0.7085508313286372  0.5245341271155439  1.0000
  O   O58       1.0  0.20688918834217418  0.5935381658152112  0.5095324309030715  1.0000
  O   O59       1.0  0.8023485428027184  0.1798535990971005  0.0921590342072633  1.0000
  O   O60       1.0  0.71987024889642  0.23083836147402068  0.03793082591878519  1.0000
  O   O61       1.0  0.6823431622943018  0.29746131315124547  0.10074137522166639  1.0000
  O   O62       1.0  0.15372941349222907  0.9532011084523547  0.863218273753759  1.0000
  O   O63       1.0  0.18369648080087586  0.05980657922939509  0.8642378115121899  1.0000
  O   O64       1.0  0.21835711662630078  0.9989454863717174  0.7995320975423326  1.0000
