data_image0
_chemical_formula_structural       Cu2H18C22N4
_chemical_formula_sum              "Cu2 H18 C22 N4"
_cell_length_a       7.845316040352361
_cell_length_b       8.071357737713074
_cell_length_c       8.274514394094071
_cell_angle_alpha    71.71194805421379
_cell_angle_beta     67.24295910543499
_cell_angle_gamma    90.47426434213467

_space_group_name_H-M_alt    "P 1"
_space_group_IT_number       1

loop_
  _space_group_symop_operation_xyz
  'x, y, z'

loop_
  _atom_site_type_symbol
  _atom_site_label
  _atom_site_symmetry_multiplicity
  _atom_site_fract_x
  _atom_site_fract_y
  _atom_site_fract_z
  _atom_site_occupancy
  Cu  Cu1       1.0  0.9599408955688135  0.19540247125253532  0.7126713577824478  1.0000
  Cu  Cu2       1.0  0.3606206487843338  0.37817959992165123  0.04210397839243998  1.0000
  H   H1        1.0  0.19732243705276176  0.7083333389612033  0.26872367927916957  1.0000
  H   H2        1.0  0.4923783072746559  0.6503153668486306  0.17039770519548375  1.0000
  H   H3        1.0  0.8841252091464541  0.5229402337142588  0.4217059516640021  1.0000
  H   H4        1.0  0.4467670202978766  0.0435349653801538  0.3299670740193507  1.0000
  H   H5        1.0  0.610019945839028  0.655605628470269  0.8343637091541043  1.0000
  H   H6        1.0  0.9167578920728799  0.5882891521841105  0.7344847227984775  1.0000
  H   H7        1.0  0.1318377405093187  0.8618303538622527  0.4833985510566734  1.0000
  H   H8        1.0  0.8357203215410466  0.9142337236733766  0.5845075354608443  1.0000
  H   H9        1.0  0.9410092929410896  0.10045240744810971  0.2374866800531804  1.0000
  H   H10       1.0  0.8176114437156131  0.25277539942121763  0.3299699826198791  1.0000
  H   H11       1.0  0.7660398162991698  0.19155840667287552  0.16277475203511926  1.0000
  H   H12       1.0  0.5753175178482195  0.35943364848362336  0.5805785196229112  1.0000
  H   H13       1.0  0.5002228809448468  0.3203807173573949  0.4157661850888488  1.0000
  H   H14       1.0  0.39474530404519476  0.46644336439806017  0.5295661227361848  1.0000
  H   H15       1.0  0.40888389006151726  0.9849365122205141  0.01953337739411858  1.0000
  H   H16       1.0  0.7155108656300654  0.9111969823843753  0.9215549501065967  1.0000
  H   H17       1.0  0.02023678475202221  0.4021359176069481  0.9706668759219003  1.0000
  H   H18       1.0  0.3024558553982785  0.17034477004028767  0.7854246782503155  1.0000
  C   C1        1.0  0.9765819070470912  0.7542664389972132  0.1715390227418041  1.0000
  C   C2        1.0  0.6582900660692346  0.9942608782390254  0.4367432844420523  1.0000
  C   C3        1.0  0.6715926894312361  0.5712524608855601  0.31639908952228524  1.0000
  C   C4        1.0  0.15524269151323714  0.795939009443799  0.16492431284526538  1.0000
  C   C5        1.0  0.9270692124511657  0.868086574492672  0.030048145361888413  1.0000
  C   C6        1.0  0.6280165103630965  0.6815386279141151  0.1702752004911972  1.0000
  C   C7        1.0  0.8456646844644738  0.607527609907592  0.3131167685109305  1.0000
  C   C8        1.0  0.1175275820041151  0.2612017699500058  0.45885884085847556  1.0000
  C   C9        1.0  0.48404378731022757  0.9593905157130892  0.4396731816967972  1.0000
  C   C10       1.0  0.39916358934289786  0.7006129851255168  0.7250415649851121  1.0000
  C   C11       1.0  0.7512473180825979  0.8257950245163885  0.03139661500302527  1.0000
  C   C12       1.0  0.5751077724284812  0.741357038682871  0.724006524075577  1.0000
  C   C13       1.0  0.05431861328616351  0.6259128322019764  0.7259955920310331  1.0000
  C   C14       1.0  0.3513903194988758  0.8143378989769231  0.5821901171021724  1.0000
  C   C15       1.0  0.1129191737114752  0.5189949722758058  0.8599147999391833  1.0000
  C   C16       1.0  0.1726552063500932  0.7741784691926482  0.5882334774700768  1.0000
  C   C17       1.0  0.7316169001021537  0.263105315551428  0.8404869469337655  1.0000
  C   C18       1.0  0.21127977343703466  0.052312223185246906  0.8955181516862751  1.0000
  C   C19       1.0  0.6999425120779962  0.8843267100216892  0.5843361781111299  1.0000
  C   C20       1.0  0.2716814405439223  0.9457850149282407  0.028229928712214223  1.0000
  C   C21       1.0  0.8026636134951206  0.14269159332312142  0.2828426446360411  1.0000
  C   C22       1.0  0.5290094022758183  0.42090473235524684  0.4692829491677132  1.0000
  N   N1        1.0  0.2786400862740379  0.5534180736906648  0.8619313173806237  1.0000
  N   N2        1.0  0.21155457476780268  0.3067203986077587  0.2974523426823482  1.0000
  N   N3        1.0  0.5878581077196545  0.30445661273583374  0.92085973407508  1.0000
  N   N4        1.0  0.04579899668982531  0.016350026665406903  0.8941216269247152  1.0000
