data_image0
_chemical_formula_structural       Ag12P4H28C32S8N4O36F24
_chemical_formula_sum              "Ag12 P4 H28 C32 S8 N4 O36 F24"
_cell_length_a       9.334304069
_cell_length_b       13.073218142356895
_cell_length_c       16.244
_cell_angle_alpha    108.9177104395536
_cell_angle_beta     90.0
_cell_angle_gamma    90.0

_space_group_name_H-M_alt    "P 1"
_space_group_IT_number       1

loop_
  _space_group_symop_operation_xyz
  'x, y, z'

loop_
  _atom_site_type_symbol
  _atom_site_label
  _atom_site_symmetry_multiplicity
  _atom_site_fract_x
  _atom_site_fract_y
  _atom_site_fract_z
  _atom_site_occupancy
  Ag  Ag1       1.0  0.6550215157770225  0.46967225501197163  0.8090279416407  1.0000
  Ag  Ag2       1.0  0.1550206624193464  0.5303293027538416  0.6909722185746006  1.0000
  Ag  Ag3       1.0  0.3449801909383226  0.5303268769570906  0.1909703543997026  1.0000
  Ag  Ag4       1.0  0.8449810442959986  0.4696706378141401  0.3090287508971628  1.0000
  Ag  Ag5       1.0  0.1276731496200014  0.5626239348909152  0.021633367324632502  1.0000
  Ag  Ag6       1.0  0.6276718603433764  0.4373768142759786  0.4783665819069823  1.0000
  Ag  Ag7       1.0  0.8723274857782002  0.4373743884792276  0.9783665645678425  1.0000
  Ag  Ag8       1.0  0.3723277037376746  0.5626239348909152  0.5216339829365496  1.0000
  Ag  Ag9       1.0  0.2956149681435889  0.4916960637081687  0.8419568485816882  1.0000
  Ag  Ag10      1.0  0.795611536232677  0.5083014510630619  0.6580422567151842  1.0000
  Ag  Ag11      1.0  0.7043856672546127  0.5083006424641426  0.1580414301195816  1.0000
  Ag  Ag12      1.0  0.20438374257979314  0.4916976809060004  0.3419585017729005  1.0000
  P   P1        1.0  0.9551445864731889  0.5978804648601397  0.8597251922170555  1.0000
  P   P2        1.0  0.4551458757498068  0.40211866710892263  0.640274950659105  1.0000
  P   P3        1.0  0.04485390629071869  0.40211866710892263  0.14027433504718803  1.0000
  P   P4        1.0  0.5448547596483948  0.5978804648601397  0.35972457660513857  1.0000
  H   H1        1.0  0.8147966836926486  0.8449357348969644  0.8147790805556383  1.0000
  H   H2        1.0  0.3147926163835351  0.15506420567101034  0.685220042080374  1.0000
  H   H3        1.0  0.1852050230226965  0.1550650142699297  0.18522025306405954  1.0000
  H   H4        1.0  0.6852058763803726  0.8449365434958835  0.31477867592740677  1.0000
  H   H5        1.0  0.7581529322044176  0.7230095300332238  0.8895088223788362  1.0000
  H   H6        1.0  0.2581542214810426  0.2769904105347578  0.6104915314810171  1.0000
  H   H7        1.0  0.2418455605594829  0.2769896019358384  0.11049008927349037  1.0000
  H   H8        1.0  0.7418453426000156  0.7230103386321433  0.38950964897443896  1.0000
  H   H9        1.0  0.8581582451982611  0.73032169003762  0.9854588557182352  1.0000
  H   H10       1.0  0.3581584631577286  0.2696766333325229  0.5145404605623228  1.0000
  H   H11       1.0  0.1418402475656464  0.2696766333325229  0.01453922933848869  1.0000
  H   H12       1.0  0.6418400296061719  0.730324115834371  0.4854601042812163  1.0000
  H   H13       1.0  0.1145902246266317  0.8135709915141831  0.9996615972740202  1.0000
  H   H14       1.0  0.6145910779843078  0.18642975765271072  0.500341430017194  1.0000
  H   H15       1.0  0.8854104107715699  0.1864281404548791  0.0003379299902234918  1.0000
  H   H16       1.0  0.3854095574138938  0.8135709915141831  0.49965913482634505  1.0000
  H   H17       1.0  0.2558401764445435  0.964463635373555  0.9761417339797589  1.0000
  H   H18       1.0  0.7558378158507821  0.0355338793976756  0.5238610649886227  1.0000
  H   H19       1.0  0.744160458953651  0.0355338793976756  0.0238604493766985  1.0000
  H   H20       1.0  0.24415960559598196  0.9644644439724744  0.4761376356800184  1.0000
  H   H21       1.0  0.1627577148515513  0.0547041425165773  0.8703756247300944  1.0000
  H   H22       1.0  0.662751068989202  0.9452941808535726  0.6296249227742976  1.0000
  H   H23       1.0  0.837247205815231  0.9452957980514044  0.12962596035359297  1.0000
  H   H24       1.0  0.3372474237747056  0.054705759714408914  0.3703748154736317  1.0000
  H   H25       1.0  0.9319655686909698  0.9856084970472168  0.7925663693699648  1.0000
  H   H26       1.0  0.43195935874756225  0.0143906349218454  0.707434389118113  1.0000
  H   H27       1.0  0.0680382806586692  0.0143938693175087  0.2074358486647796  1.0000
  H   H28       1.0  0.5680380626991948  0.9856101142450557  0.292564944501585  1.0000
  C   C1        1.0  0.8661395579398742  0.7265786856518731  0.916995755691957  1.0000
  C   C2        1.0  0.3661397758993417  0.2734196377182769  0.583002944976684  1.0000
  C   C3        1.0  0.13385893482403327  0.2734196377182769  0.083002944976684  1.0000
  C   C4        1.0  0.6338597881817094  0.7265794942507853  0.4169959666756425  1.0000
  C   C5        1.0  0.9509064558415332  0.8187403643891288  0.9088970202715387  1.0000
  C   C6        1.0  0.45090560248386413  0.18125876757993356  0.5911031226046219  1.0000
  C   C7        1.0  0.0490931082395178  0.18125876757993356  0.0911012757688638  1.0000
  C   C8        1.0  0.5490928902800434  0.8187427901858797  0.4088958063868517  1.0000
  C   C9        1.0  0.0782243640878306  0.8541966182907927  0.9546782395924964  1.0000
  C   C10       1.0  0.5782230748112126  0.1458033222771888  0.545323345491191  1.0000
  C   C11       1.0  0.9217762713103639  0.1458033222771888  0.045322114267357  1.0000
  C   C12       1.0  0.4217775605869888  0.854197426889705  0.4546759881285069  1.0000
  C   C13       1.0  0.1557812975933786  0.9381696157978681  0.9412410747840596  1.0000
  C   C14       1.0  0.6557800083167606  0.06182870757228191  0.5587613195560833  1.0000
  C   C15       1.0  0.844219337804816  0.06182870757228191  0.0587594727203324  1.0000
  C   C16       1.0  0.344218484447147  0.9381712329956997  0.4412390343037629  1.0000
  C   C17       1.0  0.1057914969022207  0.9886730869417947  0.882860580159928  1.0000
  C   C18       1.0  0.6057848510398712  0.011324427829436  0.6171391407488612  1.0000
  C   C19       1.0  0.8942144950817124  0.011326853626179903  0.1171397736999253  1.0000
  C   C20       1.0  0.39421149908974223  0.9886755127385456  0.382859366275234  1.0000
  C   C21       1.0  0.9795781166339877  0.9519821024942203  0.8390460338605195  1.0000
  C   C22       1.0  0.47957083537343687  0.048017029474849  0.6609534934037242  1.0000
  C   C23       1.0  0.0204257327156512  0.0480178380737613  0.16095431999933396  1.0000
  C   C24       1.0  0.5204276573904707  0.9519821024942203  0.33904541824860246  1.0000
  C   C25       1.0  0.5011835874874392  0.8053798844872518  0.06650672602087576  1.0000
  C   C26       1.0  0.0011784488611752  0.19461924748181053  0.4334946480791189  1.0000
  C   C27       1.0  0.4988159765936189  0.19461924748181053  0.9334915700195268  1.0000
  C   C28       1.0  0.9988189725855817  0.8053815016850905  0.5665089948240052  1.0000
  C   C29       1.0  0.9252055574963904  0.1899164361818464  0.7174959589754905  1.0000
  C   C30       1.0  0.4252079180901589  0.8100859301828862  0.7825056434473368  1.0000
  C   C31       1.0  0.0747940065846606  0.8100843129850476  0.2825046058680414  1.0000
  C   C32       1.0  0.5747927173080427  0.1899164361818464  0.2174941121397396  1.0000
  S   S1        1.0  0.5052278097155707  0.6541718870503389  0.028732781421986407  1.0000
  S   S2        1.0  0.005226956357894599  0.3458272449187235  0.47126797706609835  1.0000
  S   S3        1.0  0.4947728256826309  0.3458288621165551  0.9712634741381264  1.0000
  S   S4        1.0  0.994771536406013  0.6541726956492582  0.5287360704652643  1.0000
  S   S5        1.0  0.0831417097903824  0.24240097467187385  0.7895191017922656  1.0000
  S   S6        1.0  0.5831404205137644  0.7575997744950203  0.7104833098870245  1.0000
  S   S7        1.0  0.9168589256078121  0.7575973486982763  0.21048206132404348  1.0000
  S   S8        1.0  0.4168602148844371  0.24240097467187385  0.2895178705684316  1.0000
  N   N1        1.0  0.9074088370583127  0.8691831906142939  0.8524084832055081  1.0000
  N   N2        1.0  0.4074058410663497  0.13081674995368084  0.6475906394305113  1.0000
  N   N3        1.0  0.0925960836084698  0.1308183671515195  0.1475910613978826  1.0000
  N   N4        1.0  0.5925915803804074  0.8691839992132131  0.3524086941891937  1.0000
  O   O1        1.0  0.1045498403293976  0.6037371468143392  0.9015993209621769  1.0000
  O   O2        1.0  0.6045496223699232  0.3962611765558108  0.5983993797064641  1.0000
  O   O3        1.0  0.8954486524345099  0.3962611765558108  0.09840122654221518  1.0000
  O   O4        1.0  0.3954510130282785  0.6037371468143392  0.4015999365740938  1.0000
  O   O5        1.0  0.8592659871277633  0.5085755660958499  0.8734819161122901  1.0000
  O   O6        1.0  0.3592651337700943  0.4914251830710513  0.6265192643431661  1.0000
  O   O7        1.0  0.1407314343189938  0.49142599166996354  0.12651947532685878  1.0000
  O   O8        1.0  0.6407376442624013  0.5085755660958499  0.3734819161122899  1.0000
  O   O9        1.0  0.963510502070406  0.5923585428574825  0.7636063496497768  1.0000
  O   O10       1.0  0.4635128626641674  0.40763897191374815  0.7363927556470954  1.0000
  O   O11       1.0  0.0364890620106522  0.40763897191374815  0.23639337125901252  1.0000
  O   O12       1.0  0.5364888440511776  0.5923585428574825  0.2636069652616939  1.0000
  O   O13       1.0  0.3788745228200909  0.6296284841294693  0.07257565394079528  1.0000
  O   O14       1.0  0.8788743048606165  0.3703722650374246  0.4274242952908196  1.0000
  O   O15       1.0  0.6211261125781106  0.3703690306417542  0.9274166796249688  1.0000
  O   O16       1.0  0.12112525922043459  0.6296301013273081  0.5725797695796828  1.0000
  O   O17       1.0  0.4923409357600192  0.6245229905689555  0.934046384003004  1.0000
  O   O18       1.0  0.9923417891176881  0.3754777585979383  0.565953565228611  1.0000
  O   O19       1.0  0.5076639849067702  0.3754785671968577  0.0659482357050365  1.0000
  O   O20       1.0  0.007662060231950799  0.6245237991678749  0.43404967304628167  1.0000
  O   O21       1.0  0.6424538943311333  0.6290786368660619  0.06056749653306776  1.0000
  O   O22       1.0  0.14245411229060778  0.3709196865040809  0.4394324353594072  1.0000
  O   O23       1.0  0.3575467410670683  0.370924538097583  0.9394306232019431  1.0000
  O   O24       1.0  0.8575465231075938  0.6290794454649813  0.5605689387405945  1.0000
  O   O25       1.0  0.12716427397539576  0.3352410679003057  0.7645566281765069  1.0000
  O   O26       1.0  0.6271661986502153  0.6647588726676761  0.7354424944595124  1.0000
  O   O27       1.0  0.8728342187885048  0.6647596812665952  0.23544270544319798  1.0000
  O   O28       1.0  0.37283336543083573  0.3352402593013864  0.26455703280473847  1.0000
  O   O29       1.0  0.0269039875006882  0.2644272091648219  0.8772504146466388  1.0000
  O   O30       1.0  0.5269005555897763  0.7355735400020721  0.6227507658088172  1.0000
  O   O31       1.0  0.9730955765803627  0.7355735400020721  0.1227501501969002  1.0000
  O   O32       1.0  0.4731000798084253  0.2644255919669903  0.3772487614554265  1.0000
  O   O33       1.0  0.1830795298039902  0.1504608520378099  0.7618938196068257  1.0000
  O   O34       1.0  0.6830803831616662  0.8495398971290841  0.7381067452367134  1.0000
  O   O35       1.0  0.8169189629599174  0.8495390885301646  0.23810714986493758  1.0000
  O   O36       1.0  0.31691918091939186  0.15046004343889763  0.261894224235057  1.0000
  F   F1        1.0  0.3773821780349778  0.8420029466258256  0.041895522111140275  1.0000
  F   F2        1.0  0.8773744608554779  0.1579978025410753  0.45810504273239866  1.0000
  F   F3        1.0  0.6226205999975107  0.15799699394215594  0.9580992912414459  1.0000
  F   F4        1.0  0.1226229605912792  0.8420029466258256  0.5418979845588154  1.0000
  F   F5        1.0  0.6120820532271408  0.8475935995364097  0.03356049331769373  1.0000
  F   F6        1.0  0.11207477196659  0.15240634103157194  0.4664423229898276  1.0000
  F   F7        1.0  0.387919653488204  0.1524103840261546  0.9664409154605877  1.0000
  F   F8        1.0  0.8879205068458731  0.8475911737396589  0.5335617072023879  1.0000
  F   F9        1.0  0.5089677778740906  0.8452033811384185  0.15443399372323796  1.0000
  F   F10       1.0  0.0089637105649771  0.1547941336328122  0.34556757402130966  1.0000
  F   F11       1.0  0.4910275009383795  0.1547941336328122  0.8455644959617173  1.0000
  F   F12       1.0  0.9910369248332245  0.8452074241330011  0.6544362798655072  1.0000
  F   F13       1.0  0.8568362398394456  0.1107707742079143  0.7403981876553729  1.0000
  F   F14       1.0  0.356838600433214  0.8892315921568186  0.7596027991555375  1.0000
  F   F15       1.0  0.1431601102901681  0.8892324007557308  0.25960301013922293  1.0000
  F   F16       1.0  0.6431609636478441  0.110767539812251  0.2403942656610383  1.0000
  F   F17       1.0  0.9680968107746749  0.14630384500667054  0.6333553233643202  1.0000
  F   F18       1.0  0.4680970287341495  0.8537001385558938  0.8666467010258855  1.0000
  F   F19       1.0  0.031902753306376  0.8536952869623917  0.3666460507356745  1.0000
  F   F20       1.0  0.5319003927126075  0.1463062708034215  0.133352878255792  1.0000
  F   F21       1.0  0.828542753999713  0.2684871843259486  0.722024981667154  1.0000
  F   F22       1.0  0.3285429719591875  0.7315143734398646  0.7779776409958216  1.0000
  F   F23       1.0  0.1714600240327755  0.7315151820387841  0.27797600514375626  1.0000
  F   F24       1.0  0.6714587347561576  0.2684863757270293  0.22202230823579328  1.0000
