data_image0
_chemical_formula_structural       Ni2H32C34S2N4O14
_chemical_formula_sum              "Ni2 H32 C34 S2 N4 O14"
_cell_length_a       8.617349379319691
_cell_length_b       8.170811746373682
_cell_length_c       14.244107116601638
_cell_angle_alpha    90.00148513535107
_cell_angle_beta     89.99581590744229
_cell_angle_gamma    114.11725738046204

_space_group_name_H-M_alt    "P 1"
_space_group_IT_number       1

loop_
  _space_group_symop_operation_xyz
  'x, y, z'

loop_
  _atom_site_type_symbol
  _atom_site_label
  _atom_site_symmetry_multiplicity
  _atom_site_fract_x
  _atom_site_fract_y
  _atom_site_fract_z
  _atom_site_occupancy
  Ni  Ni1       1.0  0.36758336592381374  0.3981550844904689  0.01933458209355621  1.0000
  Ni  Ni2       1.0  0.63240476673176  0.6018242617553823  0.5193242599160828  1.0000
  H   H1        1.0  0.5867739530017743  0.5116082338567906  0.18807399383172918  1.0000
  H   H2        1.0  0.41326910348777796  0.4883894605801728  0.6880359756400128  1.0000
  H   H3        1.0  0.8088016933668954  0.8058236881097681  0.23940515255761605  1.0000
  H   H4        1.0  0.1912507606893783  0.19426270161122963  0.7393830674943519  1.0000
  H   H5        1.0  0.8839677436857512  0.07464912732343268  0.13293638907140357  1.0000
  H   H6        1.0  0.11600445548751998  0.9253636579903101  0.6329350104170219  1.0000
  H   H7        1.0  0.7164068147382635  0.03973157456015028  0.985607034294077  1.0000
  H   H8        1.0  0.2835867403887208  0.9602781560665788  0.4855721769123351  1.0000
  H   H9        1.0  0.5337812167758075  0.9839705008693539  0.8681340989790842  1.0000
  H   H10       1.0  0.46626702759566285  0.0159951015901925  0.36814867526529604  1.0000
  H   H11       1.0  0.3152077720314281  0.8806740276239394  0.7417546361428722  1.0000
  H   H12       1.0  0.6848748401321101  0.11929822899597296  0.2417597489913065  1.0000
  H   H13       1.0  0.098185671433086  0.5611817497498278  0.7423326946738984  1.0000
  H   H14       1.0  0.901852477276435  0.4387545993476535  0.2423021540947873  1.0000
  H   H15       1.0  0.11734169813610154  0.3543132066073084  0.8686898672700283  1.0000
  H   H16       1.0  0.8827024637748478  0.6456959624253782  0.36865790872125376  1.0000
  H   H17       1.0  0.9978567304472321  0.6700030754176322  0.011127723667193804  1.0000
  H   H18       1.0  0.0021856970686045204  0.3301566819013075  0.5111896230375736  1.0000
  H   H19       1.0  0.6672242490410197  0.5470447101353881  0.769963306062053  1.0000
  H   H20       1.0  0.3327667498030493  0.4529382556485686  0.2699624778902035  1.0000
  H   H21       1.0  0.7814028729921458  0.8731732185083557  0.7305001489586619  1.0000
  H   H22       1.0  0.2185789629190538  0.12686031442068918  0.2305481038032654  1.0000
  H   H23       1.0  0.997032453590073  0.09392584913594958  0.834126852441891  1.0000
  H   H24       1.0  0.0030815949702969604  0.9061723857749298  0.3341453401280533  1.0000
  H   H25       1.0  0.12766906119362897  0.557677355443218  0.11476567639703465  1.0000
  H   H26       1.0  0.8721851179859283  0.4418253317312448  0.6148549441865188  1.0000
  H   H27       1.0  0.3594838218461475  0.13098734164606898  0.08709163527436913  1.0000
  H   H28       1.0  0.640626663742708  0.8690305257771129  0.5871397617008967  1.0000
  H   H29       1.0  0.5576225281966032  0.285641660737177  0.07839065865829303  1.0000
  H   H30       1.0  0.44247705360132283  0.7144948356274199  0.578402649609217  1.0000
  H   H31       1.0  0.9564054771854702  0.407926331582793  0.07985303797326544  1.0000
  H   H32       1.0  0.043260074952016274  0.5918394500230306  0.5799429182923391  1.0000
  C   C1        1.0  0.6178953061043161  0.632322565723328  0.14636862579318696  1.0000
  C   C2        1.0  0.3821159827024161  0.3676586910673336  0.6463616000233686  1.0000
  C   C3        1.0  0.7433439355034963  0.7966920178025984  0.17316544706125828  1.0000
  C   C4        1.0  0.25665116025759727  0.20327332468701087  0.6731350023526945  1.0000
  C   C5        1.0  0.7822825452136682  0.9455649643301312  0.11500335266308784  1.0000
  C   C6        1.0  0.21771195749660424  0.05442174200380379  0.6149647783674086  1.0000
  C   C7        1.0  0.6888657647516752  0.9268097684082262  0.03287090757529401  1.0000
  C   C8        1.0  0.3111389439343028  0.07318496056578987  0.5328377169249381  1.0000
  C   C9        1.0  0.5604106309322319  0.7605439938682462  0.011175160980002404  1.0000
  C   C10       1.0  0.4396113929368681  0.23945354515389983  0.5111471004802655  1.0000
  C   C11       1.0  0.4446094561490811  0.7217620658405579  0.9320597520076821  1.0000
  C   C12       1.0  0.5554109164027424  0.2782448818922987  0.4320421961276325  1.0000
  C   C13       1.0  0.4423423659514541  0.8446225620939813  0.8648562681558974  1.0000
  C   C14       1.0  0.5576897129254801  0.15534772988014817  0.3648343063440934  1.0000
  C   C15       1.0  0.3191898601044371  0.7864755906154456  0.7947458573730163  1.0000
  C   C16       1.0  0.6808792052827785  0.2135197444768622  0.2947358580445397  1.0000
  C   C17       1.0  0.20008468431123566  0.6086553221890084  0.794377509106859  1.0000
  C   C18       1.0  0.7999436621638337  0.3913267217368457  0.2943516145984405  1.0000
  C   C19       1.0  0.2092951249228179  0.4924244773847021  0.8634877003760767  1.0000
  C   C20       1.0  0.7907531229326209  0.5075992928425207  0.3634684097971787  1.0000
  C   C21       1.0  0.155492952278685  0.026360700340198693  0.9858862323677758  1.0000
  C   C22       1.0  0.8445444685611322  0.9736902310571265  0.4859465821725878  1.0000
  C   C23       1.0  0.018374683915730862  0.8951063486227965  0.9259359868056838  1.0000
  C   C24       1.0  0.9816518131745935  0.10497483359137048  0.42601005702266564  1.0000
  C   C25       1.0  0.9516964603552652  0.712703420584887  0.9487738404026946  1.0000
  C   C26       1.0  0.04833626429231689  0.2873797364957794  0.4488465300511211  1.0000
  C   C27       1.0  0.8244277225655737  0.5899242684161407  0.8928877154261987  1.0000
  C   C28       1.0  0.1755463036141265  0.41013332729430363  0.3929123783491237  1.0000
  C   C29       1.0  0.7653160778839236  0.6458346556219752  0.8129874549497277  1.0000
  C   C30       1.0  0.23467956323041514  0.3542221208280125  0.31302375296281343  1.0000
  C   C31       1.0  0.829968728790398  0.8278106331997106  0.7910977156770403  1.0000
  C   C32       1.0  0.17000499992971638  0.17224630813646508  0.2911452170593592  1.0000
  C   C33       1.0  0.9537572674719216  0.9516142402983974  0.8480783420538176  1.0000
  C   C34       1.0  0.0462592234081711  0.048450535457014596  0.3481359324574101  1.0000
  S   S1        1.0  0.731916104713818  0.35696792265363797  0.9212252703966829  1.0000
  S   S2        1.0  0.2680283884104782  0.643127626029759  0.4212031536690974  1.0000
  N   N1        1.0  0.5290360047804086  0.6135668614731314  0.06643004958895203  1.0000
  N   N2        1.0  0.4709672690283497  0.386431116574279  0.5664108980692293  1.0000
  N   N3        1.0  0.32955626948066213  0.5469219091831192  0.9303546856810816  1.0000
  N   N4        1.0  0.6704565172707789  0.4530887229589948  0.4303395374683064  1.0000
  O   O1        1.0  0.1950106538872802  0.19343124150446295  0.9665984177567427  1.0000
  O   O2        1.0  0.805036449232155  0.8066156696393918  0.466631064388885  1.0000
  O   O3        1.0  0.22277756216553266  0.968886277582989  0.049664452569693714  1.0000
  O   O4        1.0  0.7772337034975507  0.031069276402639897  0.5497619752210456  1.0000
  O   O5        1.0  0.7486000793754072  0.3503591652299675  0.025976392633069213  1.0000
  O   O6        1.0  0.2513964274838685  0.649881426781171  0.5259482855782738  1.0000
  O   O7        1.0  0.8299231935095366  0.2726232645716209  0.872925030195525  1.0000
  O   O8        1.0  0.1699404603151038  0.7272938612388982  0.3728732589692287  1.0000
  O   O9        1.0  0.5540075932701924  0.28976638037783425  0.891867420583694  1.0000
  O   O10       1.0  0.4459442832887319  0.7103897538122367  0.391783714229483  1.0000
  O   O11       1.0  0.4413297872904494  0.26348174027161514  0.10357007134352612  1.0000
  O   O12       1.0  0.5587253961882938  0.7365663650115476  0.603559842881268  1.0000
  O   O13       1.0  0.05605409228783744  0.4302946467923263  0.12056657136911757  1.0000
  O   O14       1.0  0.9436363379068524  0.5692145698641299  0.620686228715748  1.0000
