data_image0
_chemical_formula_structural       Zn4As4H24C24N4O12
_chemical_formula_sum              "Zn4 As4 H24 C24 N4 O12"
_cell_length_a       5.314460403350866
_cell_length_b       11.279754858549838
_cell_length_c       13.849050374339896
_cell_angle_alpha    68.63137397877989
_cell_angle_beta     78.90817680024003
_cell_angle_gamma    76.3795185286811

_space_group_name_H-M_alt    "P 1"
_space_group_IT_number       1

loop_
  _space_group_symop_operation_xyz
  'x, y, z'

loop_
  _atom_site_type_symbol
  _atom_site_label
  _atom_site_symmetry_multiplicity
  _atom_site_fract_x
  _atom_site_fract_y
  _atom_site_fract_z
  _atom_site_occupancy
  Zn  Zn1       1.0  0.10688523871792896  0.47233531439481163  0.624468880025404  1.0000
  Zn  Zn2       1.0  0.20332530789813308  0.02781475922803619  0.8754916935577769  1.0000
  Zn  Zn3       1.0  0.8931089746595191  0.5276652328253703  0.37552915111935903  1.0000
  Zn  Zn4       1.0  0.7966752850596992  0.9721896629028849  0.12450520700825521  1.0000
  As  As1       1.0  0.5634226875272004  0.6481513814635562  0.5469861198996996  1.0000
  As  As2       1.0  0.758085449960873  0.8519285696713371  0.9529713046866136  1.0000
  As  As3       1.0  0.4365775527069645  0.35184526753331363  0.453014069470001  1.0000
  As  As4       1.0  0.24191153538807703  0.1480728845006141  0.04702909582636754  1.0000
  H   H1        1.0  0.3567688378611319  0.1767663277345619  0.6780524612035919  1.0000
  H   H2        1.0  0.21088267896960403  0.32323809014339844  0.8220073311098233  1.0000
  H   H3        1.0  0.6432445908780335  0.8232313369325935  0.32194545832398813  1.0000
  H   H4        1.0  0.7891118591022278  0.6767643724247421  0.1779910764311411  1.0000
  H   H5        1.0  0.5982598719308568  0.08376712574161621  0.7524226819157607  1.0000
  H   H6        1.0  0.4340808892683934  0.4161304919290529  0.7476490855364591  1.0000
  H   H7        1.0  0.4017485108887585  0.9162314422402602  0.24757774541508584  1.0000
  H   H8        1.0  0.5659107977222677  0.5838748774247264  0.252348431090141  1.0000
  H   H9        1.0  0.8408042641973953  0.8992378976627291  0.7297641625955793  1.0000
  H   H10       1.0  0.4694462346772355  0.6007894060820647  0.7702391252236682  1.0000
  H   H11       1.0  0.15920769820181133  0.10075778049203171  0.270236429988188  1.0000
  H   H12       1.0  0.5305425732029861  0.3992130122712608  0.22976116568843716  1.0000
  H   H13       1.0  0.9005460618835244  0.7244548261894154  0.6550139114293645  1.0000
  H   H14       1.0  0.2794953164009829  0.7755770283366131  0.8449970831911601  1.0000
  H   H15       1.0  0.0994673039430863  0.2755398638580361  0.3449878016583697  1.0000
  H   H16       1.0  0.7204945259858704  0.22442341713246353  0.1550053019222873  1.0000
  H   H17       1.0  0.15767696961875546  0.8898134559632566  0.5350614492263761  1.0000
  H   H18       1.0  0.5818885661819235  0.6100698588288083  0.9650914032623492  1.0000
  H   H19       1.0  0.842334623859692  0.11018123741456519  0.4649401170547592  1.0000
  H   H20       1.0  0.41810236428103303  0.3899296357803621  0.03491050422557156  1.0000
  H   H21       1.0  0.10152213202134408  0.06543779309347288  0.6102953943004651  1.0000
  H   H22       1.0  0.7768514372449286  0.4343856184687952  0.8898901552962571  1.0000
  H   H23       1.0  0.8984930154965055  0.9345588462189763  0.38970524386057565  1.0000
  H   H24       1.0  0.2231367399326983  0.5656168743793374  0.11010693935686792  1.0000
  C   C1        1.0  0.46489318852118106  0.9904400590300426  0.6775341196944711  1.0000
  C   C2        1.0  0.13235296304984678  0.5095430973003232  0.822514706439364  1.0000
  C   C3        1.0  0.5351212304982481  0.009556563323883398  0.3224672441280206  1.0000
  C   C4        1.0  0.8676373018272373  0.4904593549700352  0.1774841331498537  1.0000
  C   C5        1.0  0.6905915926083991  0.895829063396782  0.6880145060696423  1.0000
  C   C6        1.0  0.2740023122964248  0.6042072206969137  0.8119831249180436  1.0000
  C   C7        1.0  0.3094199659867627  0.104168513147421  0.31198718857177715  1.0000
  C   C8        1.0  0.7259854075076929  0.3957961485163252  0.18801764361958823  1.0000
  C   C9        1.0  0.7242001474644866  0.7980389945910603  0.6455597486024447  1.0000
  C   C10       1.0  0.1672279118309846  0.7019769725037578  0.8544435922131443  1.0000
  C   C11       1.0  0.27581213028602036  0.20195664631629032  0.35444244211081616  1.0000
  C   C12       1.0  0.8327658883993222  0.2980235205105047  0.14555676272256335  1.0000
  C   C13       1.0  0.5313064294641162  0.795731394557862  0.5910200116856856  1.0000
  C   C14       1.0  0.9174726221768882  0.7042531271563561  0.9090247403256271  1.0000
  C   C15       1.0  0.468704444858993  0.2042652344568054  0.40898105852360805  1.0000
  C   C16       1.0  0.08251758913072395  0.2957483030896668  0.09097667109045203  1.0000
  C   C17       1.0  0.3077195418148835  0.8920814366413053  0.5775885564985757  1.0000
  C   C18       1.0  0.776751117629395  0.6078568259256371  0.9225084549948551  1.0000
  C   C19       1.0  0.6922913325082192  0.10791519237335481  0.4224125137107181  1.0000
  C   C20       1.0  0.22324341109934656  0.39214368404714156  0.0774911742794089  1.0000
  C   C21       1.0  0.27438771583157967  0.9895606146087914  0.6205866322727829  1.0000
  C   C22       1.0  0.884037381975851  0.5103743896818999  0.8795272816452171  1.0000
  C   C23       1.0  0.7256284755359985  0.010436004414763996  0.37941487835630044  1.0000
  C   C24       1.0  0.11595147013074579  0.48962709810040655  0.12047165917332588  1.0000
  N   N1        1.0  0.42644393405042536  0.08448432289168299  0.7280040575292263  1.0000
  N   N2        1.0  0.2384657888241929  0.415521038367885  0.7720272626749178  1.0000
  N   N3        1.0  0.5735687661903129  0.9155133248169564  0.2719945876598048  1.0000
  N   N4        1.0  0.7615248449736571  0.5844823986794198  0.22797060321693158  1.0000
  O   O1        1.0  0.7261841228281369  0.5143678707595143  0.6365678816603692  1.0000
  O   O2        1.0  0.8770315911284854  0.9856150452317677  0.8632734568220288  1.0000
  O   O3        1.0  0.27381011608949285  0.48562784069891757  0.36343124285740913  1.0000
  O   O4        1.0  0.12296611337580288  0.0143844733033305  0.13672743976279383  1.0000
  O   O5        1.0  0.7335346282471776  0.6753741048222962  0.4232815561801433  1.0000
  O   O6        1.0  0.831824927529482  0.8246774296805697  0.0766222954072547  1.0000
  O   O7        1.0  0.2664669898741892  0.32462639182901404  0.576718660320509  1.0000
  O   O8        1.0  0.16816888204392186  0.1753250159290545  0.9233768377951607  1.0000
  O   O9        1.0  0.2524789024072976  0.6302866438794866  0.547747839097589  1.0000
  O   O10       1.0  0.42999875405882876  0.8699155323600251  0.9522588033383387  1.0000
  O   O11       1.0  0.7475169948655561  0.3697157611523707  0.4522530390409188  1.0000
  O   O12       1.0  0.5699989249052706  0.13008882193682333  0.04774099987347575  1.0000
