data_image0
_chemical_formula_structural       MnH26C22N6O8
_chemical_formula_sum              "Mn1 H26 C22 N6 O8"
_cell_length_a       7.235653835610577
_cell_length_b       8.304649548070158
_cell_length_c       11.609645828922075
_cell_angle_alpha    101.43831393965998
_cell_angle_beta     90.50781059406552
_cell_angle_gamma    108.37537871177955

_space_group_name_H-M_alt    "P 1"
_space_group_IT_number       1

loop_
  _space_group_symop_operation_xyz
  'x, y, z'

loop_
  _atom_site_type_symbol
  _atom_site_label
  _atom_site_symmetry_multiplicity
  _atom_site_fract_x
  _atom_site_fract_y
  _atom_site_fract_z
  _atom_site_occupancy
  Mn  Mn1       1.0  0.49993889187715  0.49997797876888944  0.49999523951934327  1.0000
  H   H1        1.0  0.824959306549772  0.51235100278182  0.3959586294427949  1.0000
  H   H2        1.0  0.1750057130585887  0.4876924337066555  0.6040740668261932  1.0000
  H   H3        1.0  0.9159785373511224  0.5810177900738582  0.5306377410907146  1.0000
  H   H4        1.0  0.08381366126652523  0.41921745784240744  0.46942181316587295  1.0000
  H   H5        1.0  0.29044317112369805  0.3189430999687631  0.12501720631629354  1.0000
  H   H6        1.0  0.7095747410086019  0.6810329049087331  0.8749892051689656  1.0000
  H   H7        1.0  0.025394581928708183  0.6827767748873228  0.9729184416187593  1.0000
  H   H8        1.0  0.9746114142177617  0.3171931423455874  0.02708408804885921  1.0000
  H   H9        1.0  0.4050040040286617  0.7785319726878014  0.051516319074011094  1.0000
  H   H10       1.0  0.5950182826119884  0.22146331515274656  0.9484623893310342  1.0000
  H   H11       1.0  0.5118296971448472  0.9959130911734208  0.12380993553563265  1.0000
  H   H12       1.0  0.48818327101547937  0.004105190992007102  0.8761797161404203  1.0000
  H   H13       1.0  0.16767843185517248  0.019725361092568502  0.14500144117914  1.0000
  H   H14       1.0  0.8323244341472176  0.9802498220405128  0.8549868936951627  1.0000
  H   H15       1.0  0.24039552898382519  0.9859422326689613  0.998545051876235  1.0000
  H   H16       1.0  0.7595897426715579  0.014043129676274196  0.0014540285213655944  1.0000
  H   H17       1.0  0.19730014129348913  0.1246802732436976  0.5796765135652819  1.0000
  H   H18       1.0  0.8027015175683373  0.8753041683888867  0.4203085550830039  1.0000
  H   H19       1.0  0.5587523989520304  0.18879122573971338  0.2980613890089003  1.0000
  H   H20       1.0  0.4412932784169356  0.811196637193035  0.7019408475212927  1.0000
  H   H21       1.0  0.23336072792147894  0.7096442739103922  0.23173689068879363  1.0000
  H   H22       1.0  0.7666782672232344  0.2903595625943539  0.7682496739367508  1.0000
  H   H23       1.0  0.4918211433484385  0.7894374271655809  0.25498704377127984  1.0000
  H   H24       1.0  0.5082028482469666  0.21056173719996  0.7449913456636991  1.0000
  H   H25       1.0  0.1307383764968577  0.8031516883895123  0.42705092075110684  1.0000
  H   H26       1.0  0.8692596410262184  0.19683149283468995  0.5729243282267902  1.0000
  C   C1        1.0  0.564024509192123  0.513365010665389  0.11732494277234912  1.0000
  C   C2        1.0  0.43599765750282415  0.48662014635504397  0.8826913980923763  1.0000
  C   C3        1.0  0.3805283258433434  0.3992424967148482  0.06949494779818371  1.0000
  C   C4        1.0  0.6194883196997337  0.6007375508413376  0.9305136140494668  1.0000
  C   C5        1.0  0.6285530121140894  0.5146408324158642  0.24120549123055918  1.0000
  C   C6        1.0  0.3714445684342635  0.4853507061791619  0.7588069968388069  1.0000
  C   C7        1.0  0.8635347378112428  0.764843904924142  0.10167129345560263  1.0000
  C   C8        1.0  0.13646033858759665  0.23515018865142423  0.898323251802438  1.0000
  C   C9        1.0  0.6843612774038305  0.616976741052504  0.04742771871315201  1.0000
  C   C10       1.0  0.3156453593372888  0.38299184442133344  0.952576408610078  1.0000
  C   C11       1.0  0.3799780001058224  0.88238062045631  0.1179664946269199  1.0000
  C   C12       1.0  0.6200081190805021  0.11761782197516622  0.8820255572080953  1.0000
  C   C13       1.0  0.20492826778957612  0.9265789164845233  0.07568748665187293  1.0000
  C   C14       1.0  0.7950727995947914  0.07343865113515588  0.9243066966803822  1.0000
  C   C15       1.0  0.26156781701003945  0.09165529625322223  0.4979092139472527  1.0000
  C   C16       1.0  0.7384482916258363  0.9083311416048047  0.5020785035941344  1.0000
  C   C17       1.0  0.44918098708944826  0.1304571363143481  0.3537597540470827  1.0000
  C   C18       1.0  0.5508573639730372  0.8695323570179242  0.6462397410048055  1.0000
  C   C19       1.0  0.3626667696906478  0.8241869756956318  0.2351763931129369  1.0000
  C   C20       1.0  0.6373482011461957  0.1757916528352226  0.7648163797691439  1.0000
  C   C21       1.0  0.22656985626832693  0.9318432112280421  0.424193779345707  1.0000
  C   C22       1.0  0.7734466749134156  0.06814177879658702  0.5757842883139263  1.0000
  N   N1        1.0  0.40028874602624126  0.21498904962070506  0.4524269377873651  1.0000
  N   N2        1.0  0.5997380679673012  0.7849970594498715  0.5475759234276012  1.0000
  N   N3        1.0  0.028754371732617384  0.7768844843747547  0.044543392443138444  1.0000
  N   N4        1.0  0.9712540306315133  0.22310118132140394  0.9554611349220893  1.0000
  N   N5        1.0  0.34591868327998304  0.9587305865798401  0.3331059639087641  1.0000
  N   N6        1.0  0.6541009488457233  0.04124637922346607  0.6668756071969497  1.0000
  O   O1        1.0  0.4969772913707615  0.5032036061467694  0.3139992113399686  1.0000
  O   O2        1.0  0.5029930333061754  0.49677061888679236  0.6860038731608499  1.0000
  O   O3        1.0  0.8035220178571334  0.5194916007792756  0.2614797021392121  1.0000
  O   O4        1.0  0.1964919718153268  0.4805483235227613  0.7385609334572081  1.0000
  O   O5        1.0  0.8070050955778851  0.49405068963113763  0.4803656495119668  1.0000
  O   O6        1.0  0.1929997129064916  0.5059618167679079  0.5196635020050949  1.0000
  O   O7        1.0  0.851711602478282  0.8744321520498277  0.18878759631596861  1.0000
  O   O8        1.0  0.14828955111568115  0.12557741395877292  0.8111995905742048  1.0000
