data_image0
_chemical_formula_structural       Na4Mg4H8C12O28
_chemical_formula_sum              "Na4 Mg4 H8 C12 O28"
_cell_length_a       5.911965630933113
_cell_length_b       7.048236996074013
_cell_length_c       15.559392079054962
_cell_angle_alpha    90.00028907671818
_cell_angle_beta     89.99985135532268
_cell_angle_gamma    101.13946826502375

_space_group_name_H-M_alt    "P 1"
_space_group_IT_number       1

loop_
  _space_group_symop_operation_xyz
  'x, y, z'

loop_
  _atom_site_type_symbol
  _atom_site_label
  _atom_site_symmetry_multiplicity
  _atom_site_fract_x
  _atom_site_fract_y
  _atom_site_fract_z
  _atom_site_occupancy
  Na  Na1       1.0  0.533021960727652  0.6932110720049424  0.17996707429551156  1.0000
  Na  Na2       1.0  0.46696824433043094  0.8067869990329726  0.6799681335908405  1.0000
  Na  Na3       1.0  0.46697687274157573  0.3067867272246829  0.8200321605055481  1.0000
  Na  Na4       1.0  0.5330312567605731  0.19321369227600368  0.3200317439118337  1.0000
  Mg  Mg1       1.0  0.2736868476830879  0.7104336526474597  0.900233793041693  1.0000
  Mg  Mg2       1.0  0.7263091345120927  0.7895667093281987  0.4002340503868994  1.0000
  Mg  Mg3       1.0  0.726314010934189  0.2895655919863387  0.09976608445866472  1.0000
  Mg  Mg4       1.0  0.2736900327673055  0.21043253594277186  0.5997658271142897  1.0000
  H   H1        1.0  0.8357022679679318  0.6405657928080687  0.026521282474774904  1.0000
  H   H2        1.0  0.16429369953300468  0.8594306785849852  0.5265214725556008  1.0000
  H   H3        1.0  0.16429689931146643  0.359433452462902  0.973478595026414  1.0000
  H   H4        1.0  0.8357017512590303  0.14056712192233078  0.4734784049457518  1.0000
  H   H5        1.0  0.9566967857018226  0.6468433283266534  0.12055960890872093  1.0000
  H   H6        1.0  0.043297736185735375  0.8531570149385744  0.6205599029269209  1.0000
  H   H7        1.0  0.04330440672850238  0.353157362341804  0.8794396258944988  1.0000
  H   H8        1.0  0.9566997397543489  0.14684223097291488  0.3794406172737227  1.0000
  C   C1        1.0  0.49798869084085595  0.9269178055349984  0.037078742447747  1.0000
  C   C2        1.0  0.5020166874224046  0.5730831107055322  0.5370773053346484  1.0000
  C   C3        1.0  0.5020196007468202  0.07308432863616329  0.9629230631481748  1.0000
  C   C4        1.0  0.4979861963472417  0.42691757932240654  0.4629212867691025  1.0000
  C   C5        1.0  0.19933704695779403  0.7856014752319568  0.3515440977830481  1.0000
  C   C6        1.0  0.8006595097707886  0.7143925949858598  0.8515452624488093  1.0000
  C   C7        1.0  0.8006614526998277  0.2143948779596556  0.6484551370165266  1.0000
  C   C8        1.0  0.1993427063713042  0.28560520297610037  0.14845525774786245  1.0000
  C   C9        1.0  0.05262551530112343  0.7534892885818392  0.26771823565893993  1.0000
  C   C10       1.0  0.9473646298813846  0.7465111421786118  0.7677174022042409  1.0000
  C   C11       1.0  0.9473722944534515  0.24651140336096236  0.7322809991459353  1.0000
  C   C12       1.0  0.052635872643016106  0.2534938872477285  0.23228311800153284  1.0000
  O   O1        1.0  0.3900292652516129  0.7555880058869916  0.024572326780493405  1.0000
  O   O2        1.0  0.609967378618016  0.7444113372852567  0.524571818352648  1.0000
  O   O3        1.0  0.6099709257395531  0.24440834667748856  0.9754288361141478  1.0000
  O   O4        1.0  0.39003314618908996  0.2555864613071889  0.4754274164475874  1.0000
  O   O5        1.0  0.6041436471149666  0.9901203554052173  0.1050602105498371  1.0000
  O   O6        1.0  0.3958550168912254  0.5098754864436827  0.605059375474909  1.0000
  O   O7        1.0  0.39585687768636996  0.009877443200615198  0.8949415950449268  1.0000
  O   O8        1.0  0.6041434827663891  0.49012086674792943  0.3949398593246657  1.0000
  O   O9        1.0  0.4161284421867534  0.822159765411733  0.34316002994139444  1.0000
  O   O10       1.0  0.5838590055681718  0.6778385594360612  0.8431593949015835  1.0000
  O   O11       1.0  0.583869367566379  0.17784092653442227  0.6568398475621111  1.0000
  O   O12       1.0  0.4161401617097837  0.3221606858382557  0.15684112529822875  1.0000
  O   O13       1.0  0.08458764739084047  0.7737069845655353  0.4210783479462777  1.0000
  O   O14       1.0  0.9154065499465034  0.7262935950920448  0.9210794276290102  1.0000
  O   O15       1.0  0.9154084710272982  0.22629370801109863  0.5789202441607915  1.0000
  O   O16       1.0  0.08459497629254997  0.2737085416211116  0.07892109257295492  1.0000
  O   O17       1.0  0.8434514283264889  0.7709835583716398  0.27594248350438033  1.0000
  O   O18       1.0  0.15654139501064177  0.7290140646725406  0.7759417404366007  1.0000
  O   O19       1.0  0.15654740514273868  0.22901424085797828  0.7240567512966862  1.0000
  O   O20       1.0  0.8434621563778959  0.2709895174414497  0.2240587797660254  1.0000
  O   O21       1.0  0.14695243873388356  0.7121162531404721  0.19953295904276305  1.0000
  O   O22       1.0  0.8530410612209137  0.7878820203440782  0.6995329550361762  1.0000
  O   O23       1.0  0.8530467285469496  0.2878829921271517  0.8004662757597887  1.0000
  O   O24       1.0  0.14695843986864787  0.21211867096824474  0.30046756516513545  1.0000
  O   O25       1.0  0.8183664487052552  0.5857297623172  0.08549654013940262  1.0000
  O   O26       1.0  0.18162958801591594  0.914268769187835  0.5854974812847971  1.0000
  O   O27       1.0  0.1816330523871983  0.41427092898842927  0.9145026946646413  1.0000
  O   O28       1.0  0.8183675541125551  0.08572903068564841  0.41450303891435425  1.0000
