data_image0
_chemical_formula_structural       Sm4H56C24Cl12O12
_chemical_formula_sum              "Sm4 H56 C24 Cl12 O12"
_cell_length_a       8.253381559058683
_cell_length_b       8.588433607000889
_cell_length_c       16.321776824952025
_cell_angle_alpha    89.99994911322877
_cell_angle_beta     94.96955870290336
_cell_angle_gamma    90.0000137954103

_space_group_name_H-M_alt    "P 1"
_space_group_IT_number       1

loop_
  _space_group_symop_operation_xyz
  'x, y, z'

loop_
  _atom_site_type_symbol
  _atom_site_label
  _atom_site_symmetry_multiplicity
  _atom_site_fract_x
  _atom_site_fract_y
  _atom_site_fract_z
  _atom_site_occupancy
  Sm  Sm1       1.0  0.31282406534243995  0.3711350464353488  0.2243274040135006  1.0000
  Sm  Sm2       1.0  0.18717765072030804  0.8711341963878497  0.27567211679712494  1.0000
  Sm  Sm3       1.0  0.6871780281629257  0.6288661436544133  0.775671929898948  1.0000
  Sm  Sm4       1.0  0.8128220103972624  0.12886582934503824  0.7243271130923999  1.0000
  H   H1        1.0  0.5037131376671624  0.35251288793838853  0.9706688872651767  1.0000
  H   H2        1.0  0.9962893726743971  0.8525113592735638  0.529330768797557  1.0000
  H   H3        1.0  0.4962889583447422  0.647488302150862  0.0293310594341634  1.0000
  H   H4        1.0  0.0037151582314506994  0.14748633774534883  0.47066989471268517  1.0000
  H   H5        1.0  0.3048246039193431  0.33865316839948184  0.008026743594918201  1.0000
  H   H6        1.0  0.19517589059202578  0.8386507937296629  0.4919727402712438  1.0000
  H   H7        1.0  0.6951750571983197  0.6613480216900811  0.9919724862943297  1.0000
  H   H8        1.0  0.8048262054195873  0.16134690328956222  0.508027206428906  1.0000
  H   H9        1.0  0.4444032268755932  0.17858323886138552  0.022547767136010994  1.0000
  H   H10       1.0  0.0555984574285375  0.6785820197725485  0.4774518429902415  1.0000
  H   H11       1.0  0.5555976554489915  0.8214179512272537  0.9774527403386128  1.0000
  H   H12       1.0  0.9444048572834591  0.32141567724626446  0.5225487685084004  1.0000
  H   H13       1.0  0.7279578759275367  0.3955517879594269  0.06565249093105047  1.0000
  H   H14       1.0  0.772043599897934  0.8955518567105117  0.43434723302213024  1.0000
  H   H15       1.0  0.2720430038905093  0.6044494021297169  0.934347403756689  1.0000
  H   H16       1.0  0.22795728242645907  0.10444700466477742  0.5656532744530338  1.0000
  H   H17       1.0  0.6803362008914959  0.21854973109986284  0.11643996764959037  1.0000
  H   H18       1.0  0.8196652482466433  0.7185498961754462  0.38356045119321885  1.0000
  H   H19       1.0  0.3196658951204085  0.7814514589893876  0.8835599790497496  1.0000
  H   H20       1.0  0.18033685528457258  0.28144780084223714  0.6164413338675984  1.0000
  H   H21       1.0  0.8472286524946783  0.38451008603558995  0.2110348068395709  1.0000
  H   H22       1.0  0.6527716078222454  0.8845092055748227  0.28896548301083397  1.0000
  H   H23       1.0  0.1527734410106945  0.615491104054172  0.7889645270728776  1.0000
  H   H24       1.0  0.34722806332118245  0.11548732708598661  0.7110361980270523  1.0000
  H   H25       1.0  0.7104755915586054  0.5455732144698189  0.1937458359523632  1.0000
  H   H26       1.0  0.7895258290494525  0.04557159310718362  0.3062546631263671  1.0000
  H   H27       1.0  0.28952651197290186  0.4544279756178968  0.806255949107644  1.0000
  H   H28       1.0  0.21047505578128073  0.9544249395542367  0.6937464571362282  1.0000
  H   H29       1.0  0.6713979380598402  0.5254774499915129  0.3466280047944678  1.0000
  H   H30       1.0  0.8286022630397981  0.025474929513436006  0.15337245159433616  1.0000
  H   H31       1.0  0.3286017230581136  0.47452723316807544  0.6533712250939772  1.0000
  H   H32       1.0  0.1713925433283237  0.9745227675036434  0.8466290213968788  1.0000
  H   H33       1.0  0.8095598318100556  0.36337456375706273  0.34893348868455115  1.0000
  H   H34       1.0  0.6904379976461641  0.8633727587582246  0.15106793252040518  1.0000
  H   H35       1.0  0.19043983181414598  0.6366266263319889  0.6510663539915881  1.0000
  H   H36       1.0  0.3095592461226317  0.13662377390135563  0.8489348700680565  1.0000
  H   H37       1.0  0.5874453754967205  0.18602202321328326  0.3897374511514826  1.0000
  H   H38       1.0  0.9125536308755285  0.6860203391915577  0.11026165318282467  1.0000
  H   H39       1.0  0.412555509334112  0.8139756738048122  0.6102636691108501  1.0000
  H   H40       1.0  0.08744480903492761  0.31397735782890385  0.889736299121864  1.0000
  H   H41       1.0  0.6168199363250295  0.34476453500960963  0.46021480728438746  1.0000
  H   H42       1.0  0.8831754476479146  0.8447629620274173  0.03978406738205108  1.0000
  H   H43       1.0  0.3831785085989807  0.6552389837932041  0.5397843705927201  1.0000
  H   H44       1.0  0.1168169213198169  0.15523939241718676  0.9602160760111003  1.0000
  H   H45       1.0  0.30965883324253707  0.1949968013743941  0.44965943446363343  1.0000
  H   H46       1.0  0.19034041636835036  0.6949998224315691  0.05033883845119649  1.0000
  H   H47       1.0  0.6903408178486075  0.804999731290515  0.5503373442791427  1.0000
  H   H48       1.0  0.8096555961678575  0.3050025320143704  0.9496602354029873  1.0000
  H   H49       1.0  0.1932557466198475  0.36954202377883416  0.42566250982635967  1.0000
  H   H50       1.0  0.3067423231053681  0.8695438678934977  0.0743374684746527  1.0000
  H   H51       1.0  0.8067451256782193  0.6304545088851582  0.5743355465017927  1.0000
  H   H52       1.0  0.6932512595494914  0.13045615783837416  0.9256621141437548  1.0000
  H   H53       1.0  0.368628676230486  0.3749806925270818  0.49980365662025145  1.0000
  H   H54       1.0  0.1313706105856127  0.8749826192052627  0.00019637116960779909  1.0000
  H   H55       1.0  0.6313685499925654  0.6250158401360935  0.5001948564599913  1.0000
  H   H56       1.0  0.8686278393512763  0.12501857088317087  0.9998040322818225  1.0000
  C   C1        1.0  0.4328636865851081  0.3064109734411602  0.01930453197155659  1.0000
  C   C2        1.0  0.06713437272731683  0.8064097516568655  0.48069547561363624  1.0000
  C   C3        1.0  0.5671347608452423  0.6935902166477919  0.9806952586929822  1.0000
  C   C4        1.0  0.9328677257909278  0.19358910971852342  0.5193050838731352  1.0000
  C   C5        1.0  0.6603767794197141  0.34546227917811484  0.11457849744146388  1.0000
  C   C6        1.0  0.8396246906507798  0.8454624458686483  0.3854218625327092  1.0000
  C   C7        1.0  0.33962410039853114  0.6545412396243793  0.8854213972457357  1.0000
  C   C8        1.0  0.16037862907438694  0.15453641550580952  0.6145799745394385  1.0000
  C   C9        1.0  0.7197961025771208  0.41773150881226684  0.19523871184556896  1.0000
  C   C10       1.0  0.7802053794130259  0.9177306321130487  0.3047616146066119  1.0000
  C   C11       1.0  0.28020477724093235  0.5822696812768839  0.8047611828421706  1.0000
  C   C12       1.0  0.21979550792433863  0.08226706490453489  0.6952401184426051  1.0000
  C   C13       1.0  0.6809877510781988  0.3983821048419429  0.3387473698895249  1.0000
  C   C14       1.0  0.8190112953327785  0.8983803132688525  0.16125286151493162  1.0000
  C   C15       1.0  0.3190106988583992  0.6016155921764652  0.6612530335627155  1.0000
  C   C16       1.0  0.18098593840978341  0.10161505503610613  0.8387474899262484  1.0000
  C   C17       1.0  0.5789481388540025  0.31346551250350524  0.3959872939615252  1.0000
  C   C18       1.0  0.921050888538268  0.8134650053172762  0.10401175125758748  1.0000
  C   C19       1.0  0.42106125432138  0.6865403350130495  0.6040129648063368  1.0000
  C   C20       1.0  0.0789475588920823  0.18653618477167563  0.8959880394069514  1.0000
  C   C21       1.0  0.3143180804260979  0.3220386004587398  0.4424262439851674  1.0000
  C   C22       1.0  0.1856787552434653  0.8220322934474851  0.05757125319313869  1.0000
  C   C23       1.0  0.6856803544718703  0.6779660827027953  0.5575704827441186  1.0000
  C   C24       1.0  0.8143184759930406  0.17796889664136023  0.9424284854597998  1.0000
  Cl  Cl1       1.0  0.42279424865153453  0.6754885896261343  0.21225513401101637  1.0000
  Cl  Cl2       1.0  0.0772086488296537  0.17548927763628805  0.28774391677496414  1.0000
  Cl  Cl3       1.0  0.5772078423471997  0.3245114361074642  0.7877435871148177  1.0000
  Cl  Cl4       1.0  0.9227910097813848  0.8245107480971114  0.7122547003276692  1.0000
  Cl  Cl5       1.0  0.09974213241508778  0.5666362604380383  0.30590356992328077  1.0000
  Cl  Cl6       1.0  0.4002607521255044  0.06663601747393241  0.19409675692806155  1.0000
  Cl  Cl7       1.0  0.9002599635967172  0.43336376529454435  0.6940963767763291  1.0000
  Cl  Cl8       1.0  0.5997413438863006  0.933364008258643  0.8059031897715484  1.0000
  Cl  Cl9       1.0  0.0884199624490449  0.4008052608418354  0.09985188996419227  1.0000
  Cl  Cl10      1.0  0.4115817560009134  0.900805419934507  0.4001470042967199  1.0000
  Cl  Cl11      1.0  0.9115809123558379  0.5991947648916637  0.9001467791500417  1.0000
  Cl  Cl12      1.0  0.5884191213106007  0.09919577015515561  0.5998522776041354  1.0000
  O   O1        1.0  0.488812771376935  0.37436044160354953  0.09733131075365259  1.0000
  O   O2        1.0  0.011190163918158198  0.8743593371999624  0.40266887335940976  1.0000
  O   O3        1.0  0.5111893271415936  0.6256419128418643  0.9026692487323018  1.0000
  O   O4        1.0  0.9888119346000865  0.12563952417542626  0.5973316861273616  1.0000
  O   O5        1.0  0.6195612019910682  0.35805467306153826  0.2563905722641593  1.0000
  O   O6        1.0  0.880440270156278  0.8580539225135839  0.24360978186921756  1.0000
  O   O7        1.0  0.38044210770804904  0.6419453526716552  0.7436088136601666  1.0000
  O   O8        1.0  0.11956061467455471  0.14194377450451162  0.7563913383931149  1.0000
  O   O9        1.0  0.4123141176580488  0.36064291286712097  0.37645916987972317  1.0000
  O   O10       1.0  0.08768638048034208  0.8606422939551452  0.12354030378604358  1.0000
  O   O11       1.0  0.5876879758472171  0.6393571128659661  0.6235401640330025  1.0000
  O   O12       1.0  0.9123108507560643  0.13935773177702523  0.8764594348671648  1.0000
