data_image0
_chemical_formula_structural       Zn2H34C52N2O8
_chemical_formula_sum              "Zn2 H34 C52 N2 O8"
_cell_length_a       13.935234910985827
_cell_length_b       15.322604237283825
_cell_length_c       17.225321971087997
_cell_angle_alpha    89.09614137453431
_cell_angle_beta     83.2257901634747
_cell_angle_gamma    87.33824335123379

_space_group_name_H-M_alt    "P 1"
_space_group_IT_number       1

loop_
  _space_group_symop_operation_xyz
  'x, y, z'

loop_
  _atom_site_type_symbol
  _atom_site_label
  _atom_site_symmetry_multiplicity
  _atom_site_fract_x
  _atom_site_fract_y
  _atom_site_fract_z
  _atom_site_occupancy
  Zn  Zn1       1.0  0.5990086410793652  0.4928258005618104  0.49915708862818053  1.0000
  Zn  Zn2       1.0  0.39702638156578735  0.5025932589447207  0.5092854192757912  1.0000
  H   H1        1.0  0.37496986124731546  0.5965615686632617  0.2755083989087197  1.0000
  H   H2        1.0  0.9413604578388756  0.5742261444982332  0.39217618723133546  1.0000
  H   H3        1.0  0.32455472707520994  0.5537405293132662  0.7558236177287085  1.0000
  H   H4        1.0  0.6784604670200025  0.5273972399319006  0.24776928529611553  1.0000
  H   H5        1.0  0.39303880328978374  0.609409262173841  0.010099387986606714  1.0000
  H   H6        1.0  0.6156090089482547  0.5977144551840536  0.9940498597514846  1.0000
  H   H7        1.0  0.6878090404443782  0.5650963736523168  0.10554395358224872  1.0000
  H   H8        1.0  0.319252111667346  0.600826150497738  0.8946756997859282  1.0000
  H   H9        1.0  0.6299997435306394  0.5643103483654882  0.8778114458986793  1.0000
  H   H10       1.0  0.3823884156272754  0.6354357405914255  0.1343912514037413  1.0000
  H   H11       1.0  0.6356755746519482  0.9332530253244042  0.5455145551176912  1.0000
  H   H12       1.0  0.6328171790788275  0.5180814832044193  0.7403458401382466  1.0000
  H   H13       1.0  0.4117282934133328  0.05835146609867077  0.4089923647363989  1.0000
  H   H14       1.0  0.3475610571653505  0.7807639035414338  0.48834758565942593  1.0000
  H   H15       1.0  0.5873365393532097  0.2194821964224758  0.5909991934207426  1.0000
  H   H16       1.0  0.3456293433217398  0.9432812084052455  0.48183552424043097  1.0000
  H   H17       1.0  0.5795063442768296  0.05805165673404389  0.6036823799383413  1.0000
  H   H18       1.0  0.5882764586007525  0.6937474081636309  0.6585711901258408  1.0000
  H   H19       1.0  0.7376962482509838  0.6295671257416372  0.7042067755139814  1.0000
  H   H20       1.0  0.8990368746309444  0.6608783481439884  0.632890401027467  1.0000
  H   H21       1.0  0.9085071137478523  0.7596907672806167  0.5158515400679704  1.0000
  H   H22       1.0  0.7581586340334923  0.82529262446225  0.4708497796477857  1.0000
  H   H23       1.0  0.06481207454005039  0.6308002598903001  0.4603517587661869  1.0000
  H   H24       1.0  0.2681312077774152  0.1655520938554246  0.4068477066908258  1.0000
  H   H25       1.0  0.19035875014501613  0.23879498999438198  0.2991045845424196  1.0000
  H   H26       1.0  0.2807927526339925  0.34582278500040065  0.21145537160698777  1.0000
  H   H27       1.0  0.4494602339388933  0.3782392096274521  0.2321434896220609  1.0000
  H   H28       1.0  0.5269635136610589  0.30479456484533773  0.33921895683725733  1.0000
  H   H29       1.0  0.9208023582851793  0.41677523252994314  0.6035385852092077  1.0000
  H   H30       1.0  0.2440686741589246  0.6271857659924718  0.46768579117995307  1.0000
  H   H31       1.0  0.740976938531709  0.42077550591745444  0.6003133962853512  1.0000
  H   H32       1.0  0.24892133408418  0.3674871593711444  0.5356479255503572  1.0000
  H   H33       1.0  0.7605818298105622  0.5710301795654329  0.3983924259729505  1.0000
  H   H34       1.0  0.0694978273398945  0.35942858547291934  0.5334254177615989  1.0000
  C   C1        1.0  0.48819999699218647  0.6683665735963018  0.5146016676427294  1.0000
  C   C2        1.0  0.5482966933202463  0.18322568324629873  0.5517274606783787  1.0000
  C   C3        1.0  0.40996217089878684  0.9062137258293674  0.4962851890760334  1.0000
  C   C4        1.0  0.5443664928411707  0.09290480078909978  0.5582786596740945  1.0000
  C   C5        1.0  0.4915518360589459  0.9502942732313854  0.5120845476125453  1.0000
  C   C6        1.0  0.49368863856530254  0.04647585915930818  0.5076929636554013  1.0000
  C   C7        1.0  0.10263230802381432  0.5708296358512824  0.47710864915597995  1.0000
  C   C8        1.0  0.8886026031146771  0.450710229732806  0.556236226205563  1.0000
  C   C9        1.0  0.20163721084269784  0.5696723575269899  0.481180826202305  1.0000
  C   C10       1.0  0.7890705664898193  0.45279791747852016  0.5552091376054662  1.0000
  C   C11       1.0  0.204129874635214  0.42413738765468156  0.5207427248011529  1.0000
  C   C12       1.0  0.5020569334860312  0.3277984201517014  0.49723598595751634  1.0000
  C   C13       1.0  0.7999770220239668  0.5379998672141609  0.44226522723291595  1.0000
  C   C14       1.0  0.1049631857328421  0.42049665984489326  0.5191397584739122  1.0000
  C   C15       1.0  0.899898449535094  0.5395696200975237  0.4396148201163824  1.0000
  C   C16       1.0  0.5185294025529714  0.5269793547907397  0.3531637428017902  1.0000
  C   C17       1.0  0.4836280679265387  0.5040678997449957  0.6567718458168699  1.0000
  C   C18       1.0  0.05198137300094171  0.4952108124668583  0.4975008405282467  1.0000
  C   C19       1.0  0.9462084539466319  0.4948249292433785  0.49733650288656867  1.0000
  C   C20       1.0  0.5256012068755281  0.557099952151404  0.2696876217464138  1.0000
  C   C21       1.0  0.4789652709627461  0.5320997063631195  0.7400503862742769  1.0000
  C   C22       1.0  0.4430076915467395  0.5898761321617482  0.23735551182080883  1.0000
  C   C23       1.0  0.5718417753877817  0.9002151940004094  0.5324652645508081  1.0000
  C   C24       1.0  0.5646822825440978  0.5368101948477316  0.7750133682878015  1.0000
  C   C25       1.0  0.44767587294676753  0.6111568651866147  0.15844255310015853  1.0000
  C   C26       1.0  0.5624372605672362  0.5632325163337198  0.851769384389641  1.0000
  C   C27       1.0  0.5352378309913064  0.5993991926225346  0.10866855898731131  1.0000
  C   C28       1.0  0.473826575093561  0.5857964825307816  0.8970788435111388  1.0000
  C   C29       1.0  0.6190280610368646  0.5725785843618212  0.1429478721555029  1.0000
  C   C30       1.0  0.3884276321427294  0.5829832271779266  0.8607036110027764  1.0000
  C   C31       1.0  0.6142957913543867  0.5512237850524071  0.22200621654312164  1.0000
  C   C32       1.0  0.39070287519110275  0.5564596727473654  0.7835569164319197  1.0000
  C   C33       1.0  0.5418266572402359  0.6038820751457051  0.02379160961357479  1.0000
  C   C34       1.0  0.447202113515921  0.09375320824388919  0.4512851703864271  1.0000
  C   C35       1.0  0.46687474452505034  0.6034831062395937  0.9804050336895784  1.0000
  C   C36       1.0  0.6626709114952618  0.7639287699476539  0.5612264409685253  1.0000
  C   C37       1.0  0.6583200003568807  0.7081938958782383  0.6269255368492921  1.0000
  C   C38       1.0  0.742725264048147  0.6717281101936688  0.6524395320445395  1.0000
  C   C39       1.0  0.8331454319441534  0.6894888236871353  0.6126445394829148  1.0000
  C   C40       1.0  0.8383572997445015  0.7447717361123695  0.5472071527862354  1.0000
  C   C41       1.0  0.7538640068550038  0.7820525527025594  0.5220250659105262  1.0000
  C   C42       1.0  0.40280515088089436  0.23014247182802441  0.3807545885098095  1.0000
  C   C43       1.0  0.3080886798238253  0.21186727141203215  0.3681146903615087  1.0000
  C   C44       1.0  0.26424987294967645  0.2534052721416202  0.30779537096423587  1.0000
  C   C45       1.0  0.5740465554936733  0.808759933649135  0.5365229822847013  1.0000
  C   C46       1.0  0.31479387674325926  0.3134489999151953  0.2587271438037391  1.0000
  C   C47       1.0  0.40941634696806534  0.33160747030788673  0.27032972089381957  1.0000
  C   C48       1.0  0.4529519854337636  0.29041169694261265  0.33076917704841685  1.0000
  C   C49       1.0  0.4493711713779689  0.18494811624962168  0.44431282004661915  1.0000
  C   C50       1.0  0.4915785784063972  0.7657440998568389  0.5192452031355614  1.0000
  C   C51       1.0  0.5004848179435513  0.23002343570200873  0.4961014552856966  1.0000
  C   C52       1.0  0.41045469662214623  0.8156426150151855  0.5004238357972142  1.0000
  N   N1        1.0  0.2511247836590442  0.49788384885143694  0.5031203165894738  1.0000
  N   N2        1.0  0.7458597319971432  0.49511855511209985  0.49889553766994515  1.0000
  O   O1        1.0  0.5682750811651688  0.6257418961326946  0.4978714626938014  1.0000
  O   O2        1.0  0.42126447131066413  0.370201208450716  0.4976334324613063  1.0000
  O   O3        1.0  0.40497194662115993  0.635896160369576  0.5256176704916413  1.0000
  O   O4        1.0  0.5839274433012775  0.3603244579020026  0.4999340063199753  1.0000
  O   O5        1.0  0.5966712376136343  0.4999619142916385  0.37944393529447507  1.0000
  O   O6        1.0  0.4043580975039305  0.4934101588359354  0.6289564860175005  1.0000
  O   O7        1.0  0.43460335391925753  0.5297063234161639  0.39165513790946704  1.0000
  O   O8        1.0  0.5681664061719686  0.4948448949332087  0.6192342179919449  1.0000
