data_image0
_chemical_formula_structural       Cd4H24C20N32
_chemical_formula_sum              "Cd4 H24 C20 N32"
_cell_length_a       8.201839613000692
_cell_length_b       8.927160629722604
_cell_length_c       12.757098342178962
_cell_angle_alpha    109.03526925393602
_cell_angle_beta     90.00003536108447
_cell_angle_gamma    90.00001872774814

_space_group_name_H-M_alt    "P 1"
_space_group_IT_number       1

loop_
  _space_group_symop_operation_xyz
  'x, y, z'

loop_
  _atom_site_type_symbol
  _atom_site_label
  _atom_site_symmetry_multiplicity
  _atom_site_fract_x
  _atom_site_fract_y
  _atom_site_fract_z
  _atom_site_occupancy
  Cd  Cd1       1.0  0.8098494300320382  0.9603577205955608  0.930066306672572  1.0000
  Cd  Cd2       1.0  0.30984915520234324  0.5396416557051111  0.5699327618615088  1.0000
  Cd  Cd3       1.0  0.1901512845631856  0.03964114161863821  0.06993295668421952  1.0000
  Cd  Cd4       1.0  0.6901515593939536  0.4603595756341719  0.43006782717293385  1.0000
  H   H1        1.0  0.0385064931511963  0.7100782202697219  0.7585453627264798  1.0000
  H   H2        1.0  0.5385065227454504  0.7899210096651714  0.7414543503731396  1.0000
  H   H3        1.0  0.9614942214444044  0.2899206411226416  0.2414546843198622  1.0000
  H   H4        1.0  0.46149297261290206  0.21008140582539878  0.25854729334459847  1.0000
  H   H5        1.0  0.26873402559161264  0.8680935682698064  0.5243080221582233  1.0000
  H   H6        1.0  0.768734226958138  0.6319046010038816  0.9756907543010626  1.0000
  H   H7        1.0  0.7312654697652904  0.13190647891752863  0.4756915121922987  1.0000
  H   H8        1.0  0.23126526839806874  0.3680930762365264  0.024308238061358584  1.0000
  H   H9        1.0  0.10558393902887533  0.12027985588586891  0.5889656047014782  1.0000
  H   H10       1.0  0.6055817278485022  0.3797187161998181  0.9110350260468323  1.0000
  H   H11       1.0  0.8944179948057781  0.8797190046849721  0.4110352260347341  1.0000
  H   H12       1.0  0.3944177675080525  0.6202801460140607  0.08896423730964641  1.0000
  H   H13       1.0  0.8521311646859502  0.24630437420187692  0.6946230168746793  1.0000
  H   H14       1.0  0.35212875797157756  0.2536955159230558  0.8053772275888137  1.0000
  H   H15       1.0  0.1478683306708746  0.7536980445760691  0.3053754920848348  1.0000
  H   H16       1.0  0.647870737385773  0.7463021588518262  0.1946241158422808  1.0000
  H   H17       1.0  0.960171629790537  0.2874804170668881  0.821053771279793  1.0000
  H   H18       1.0  0.4601690849353446  0.21251716106225868  0.6789459865905273  1.0000
  H   H19       1.0  0.039827865566017806  0.7125184451469835  0.17894549207668584  1.0000
  H   H20       1.0  0.5398304104215867  0.7874817003297708  0.3210540604555022  1.0000
  H   H21       1.0  0.7740865179948885  0.1773977922265004  0.8012678679054659  1.0000
  H   H22       1.0  0.2740840319848417  0.32260205521466645  0.698733120232177  1.0000
  H   H23       1.0  0.2259154158404542  0.8226034382912673  0.19873350481883983  1.0000
  H   H24       1.0  0.725917901849428  0.6773968061780168  0.3012669268144776  1.0000
  C   C1        1.0  0.0537299055489413  0.8028141050711639  0.7211169395595007  1.0000
  C   C2        1.0  0.5537287191103389  0.6971827639039178  0.778881455667559  1.0000
  C   C3        1.0  0.9462708090459346  0.19718357216957122  0.2788820528032332  1.0000
  C   C4        1.0  0.44626955700789495  0.3028172832830903  0.22111807868265032  1.0000
  C   C5        1.0  0.18076355420846107  0.8903446655578405  0.5918560143267939  1.0000
  C   C6        1.0  0.6807612432031291  0.609653456529216  0.9081427170272603  1.0000
  C   C7        1.0  0.8192383796258086  0.1096541958348425  0.4081440327198607  1.0000
  C   C8        1.0  0.3192370329150975  0.39034659065778493  0.09185681732295588  1.0000
  C   C9        1.0  0.0907775068837537  0.0285149064903649  0.6273246984549914  1.0000
  C   C10       1.0  0.5907789489568246  0.47148602677944507  0.8726772503802921  1.0000
  C   C11       1.0  0.9092219884738668  0.9714863248485911  0.3726758905791385  1.0000
  C   C12       1.0  0.40922298487851805  0.5285152037383228  0.1273241223440209  1.0000
  C   C13       1.0  0.9803645660165544  0.04925068680820741  0.7148687453819492  1.0000
  C   C14       1.0  0.4803622103283658  0.45074690215216145  0.7851310228418242  1.0000
  C   C15       1.0  0.019636148579046202  0.9507481745841487  0.2851313016643928  1.0000
  C   C16       1.0  0.5196360657899035  0.5492519592395411  0.21486902420389245  1.0000
  C   C17       1.0  0.8850213703214322  0.19783074832993464  0.7603222096457856  1.0000
  C   C18       1.0  0.38501891691978335  0.3021691594367653  0.7396780516812953  1.0000
  C   C19       1.0  0.1149805635131074  0.8021716696268157  0.2396770830039046  1.0000
  C   C20       1.0  0.6149817976762364  0.6978285153384506  0.26032329175010455  1.0000
  N   N1        1.0  0.9683852290877439  0.1775853995475174  0.017743721731271495  1.0000
  N   N2        1.0  0.4683854581030928  0.32241428279390766  0.4822561500995377  1.0000
  N   N3        1.0  0.0316154855081692  0.8224158326136078  0.9822560836136134  1.0000
  N   N4        1.0  0.5316140372538385  0.6775845785981217  0.5177438969464916  1.0000
  N   N5        1.0  0.913465882952302  0.3102476461748652  0.05171892445182641  1.0000
  N   N6        1.0  0.413466031169591  0.18975200670867304  0.448280919220494  1.0000
  N   N7        1.0  0.08653483164292201  0.6897512160393334  0.948280338904965  1.0000
  N   N8        1.0  0.5865346834263506  0.8102480396571466  0.5517193988198983  1.0000
  N   N9        1.0  0.8623334906374325  0.4391531738517429  0.08404249586756407  1.0000
  N   N10       1.0  0.3623335610181542  0.06084763575680091  0.41595837627152576  1.0000
  N   N11       1.0  0.13766722395920541  0.5608492424610034  0.9159583641609287  1.0000
  N   N12       1.0  0.6376671535777946  0.9391524106090186  0.5840419417688663  1.0000
  N   N13       1.0  0.587347962039928  0.10780271258459351  0.9054937571727565  1.0000
  N   N14       1.0  0.0873466185790193  0.39219703633698805  0.5945055678406845  1.0000
  N   N15       1.0  0.4126551910333518  0.892197333781887  0.09450656086826106  1.0000
  N   N16       1.0  0.9126528767782247  0.6078041958238102  0.4054942375038877  1.0000
  N   N17       1.0  0.4498434326423677  0.06349043752570077  0.8977687193809132  1.0000
  N   N18       1.0  0.9498433790580235  0.4365095058330084  0.6022307914930707  1.0000
  N   N19       1.0  0.5501536242372326  0.936508423865682  0.10223132766449079  1.0000
  N   N20       1.0  0.050156116298872205  0.5634905413543265  0.3977687428574512  1.0000
  N   N21       1.0  0.311291577778313  0.0246170443323166  0.8891663380895025  1.0000
  N   N22       1.0  0.8112915465499311  0.4753828238875498  0.6108338854351558  1.0000
  N   N23       1.0  0.6887103560566458  0.9753841870072932  0.11083425094525273  1.0000
  N   N24       1.0  0.18870794880661632  0.5246160383263218  0.38916537792132294  1.0000
  N   N25       1.0  0.9620981132305246  0.9329120342876962  0.7604367082495428  1.0000
  N   N26       1.0  0.46209801375633935  0.5670874220330974  0.7395640057252848  1.0000
  N   N27       1.0  0.0379026013657651  0.06708919705157972  0.2395638807848997  1.0000
  N   N28       1.0  0.5379014816005921  0.4329114393589322  0.2604360413207445  1.0000
  N   N29       1.0  0.16278466357270097  0.7766570859557975  0.6393560515533778  1.0000
  N   N30       1.0  0.6627860047758602  0.7233410264886544  0.8606426705834025  1.0000
  N   N31       1.0  0.8372136125451846  0.22334177625774737  0.36064321180278813  1.0000
  N   N32       1.0  0.3372122713427501  0.2766590198765114  0.1393576474563645  1.0000
