data_image0
_chemical_formula_structural       Ca2H20C12O10
_chemical_formula_sum              "Ca2 H20 C12 O10"
_cell_length_a       5.89177140964597
_cell_length_b       6.770399111530176
_cell_length_c       10.811446229860032
_cell_angle_alpha    76.42497718196134
_cell_angle_beta     81.93796323901483
_cell_angle_gamma    78.6164386105379

_space_group_name_H-M_alt    "P 1"
_space_group_IT_number       1

loop_
  _space_group_symop_operation_xyz
  'x, y, z'

loop_
  _atom_site_type_symbol
  _atom_site_label
  _atom_site_symmetry_multiplicity
  _atom_site_fract_x
  _atom_site_fract_y
  _atom_site_fract_z
  _atom_site_occupancy
  Ca  Ca1       1.0  0.6001546999805782  0.2602577153279668  0.4274899384038165  1.0000
  Ca  Ca2       1.0  0.3998429741612526  0.7397439043501848  0.5725081652781016  1.0000
  H   H1        1.0  0.2749316050964907  0.48101371054974623  0.1046797193161026  1.0000
  H   H2        1.0  0.7250628729642088  0.5189864079682209  0.8953206801856483  1.0000
  H   H3        1.0  0.4551140506235072  0.2421474270115596  0.14812909003345007  1.0000
  H   H4        1.0  0.5448866159390704  0.7578570926566499  0.8518702478314355  1.0000
  H   H5        1.0  0.1762171897212994  0.06766862904917302  0.07200512505973221  1.0000
  H   H6        1.0  0.8237856796553374  0.9323327183715477  0.9279953915673503  1.0000
  H   H7        1.0  0.9948729961884979  0.3060865874261438  0.0286699128240855  1.0000
  H   H8        1.0  0.005124677953325823  0.6939150322520148  0.9713281908578255  1.0000
  H   H9        1.0  0.3116778060498716  0.43706547954935376  0.867665182445009  1.0000
  H   H10       1.0  0.6883287464141004  0.5629342165777376  0.1323352714225692  1.0000
  H   H11       1.0  0.5004392680522898  0.20057927896549196  0.9135702101630799  1.0000
  H   H12       1.0  0.4995623565856134  0.7994190067538797  0.08643173520928123  1.0000
  H   H13       1.0  0.21602877839537624  0.015168424504445008  0.8464364142604383  1.0000
  H   H14       1.0  0.7839811897471874  0.9848313029941523  0.15356007239768843  1.0000
  H   H15       1.0  0.03699924204050829  0.2558236092173445  0.7986374146434657  1.0000
  H   H16       1.0  0.9629999203431439  0.7441794959352492  0.20136037682333818  1.0000
  H   H17       1.0  0.9662711314550376  0.0667781789737347  0.6143430528465503  1.0000
  H   H18       1.0  0.03372359010877093  0.9332203633173178  0.38565846318536523  1.0000
  H   H19       1.0  0.037069306375158824  0.24438061255889204  0.498972107622315  1.0000
  H   H20       1.0  0.9629291142130824  0.7556162074796972  0.5010312042632848  1.0000
  C   C1        1.0  0.1362360002862104  0.2805822676655225  0.2679084779714955  1.0000
  C   C2        1.0  0.8637634056005509  0.719419261260157  0.7320904300254797  1.0000
  C   C3        1.0  0.2725055774900085  0.3141944486652903  0.13626559059677854  1.0000
  C   C4        1.0  0.7274901612465  0.6858086605951996  0.8637352387728898  1.0000
  C   C5        1.0  0.17825720616041  0.2337606354804507  0.03689777457988441  1.0000
  C   C6        1.0  0.8217458828136868  0.766239242151592  0.9631010706575795  1.0000
  C   C7        1.0  0.3159211163990179  0.27072632284706805  0.9054557090921379  1.0000
  C   C8        1.0  0.6840822240467331  0.7292719430786435  0.09454518198209166  1.0000
  C   C9        1.0  0.2187495814283551  0.1804126928842962  0.8109743435856844  1.0000
  C   C10       1.0  0.7812530364766204  0.8195902662427557  0.1890241272046396  1.0000
  C   C11       1.0  0.3475460376894119  0.21241428880323812  0.6787413457744479  1.0000
  C   C12       1.0  0.6524552524738354  0.7875749141424109  0.3212590600111014  1.0000
  O   O1        1.0  0.9420278252898981  0.2185724115924756  0.2801673979670838  1.0000
  O   O2        1.0  0.057968141012629815  0.7814291923999191  0.71983268931956  1.0000
  O   O3        1.0  0.2241260247350992  0.315718905258045  0.3602806624508119  1.0000
  O   O4        1.0  0.7758701691334478  0.6842811934662621  0.6397186827528075  1.0000
  O   O5        1.0  0.38704179943167105  0.39129371773275073  0.6225542199270964  1.0000
  O   O6        1.0  0.6129517444593376  0.6087125282958183  0.377446359986955  1.0000
  O   O7        1.0  0.4137705638475139  0.060067535894575017  0.6237054459491064  1.0000
  O   O8        1.0  0.5862303382496208  0.9399354430261299  0.3762940791393489  1.0000
  O   O9        1.0  0.905610582287089  0.20126472927591274  0.5621832022730615  1.0000
  O   O10       1.0  0.0943841392767197  0.7987338130151329  0.4378183137588608  1.0000
