data_image0
_chemical_formula_structural       Zn2H2C16N2Cl4O8F4
_chemical_formula_sum              "Zn2 H2 C16 N2 Cl4 O8 F4"
_cell_length_a       8.883792249868272
_cell_length_b       9.94823422197042
_cell_length_c       11.05388114815892
_cell_angle_alpha    89.72053935745895
_cell_angle_beta     88.08646075713152
_cell_angle_gamma    78.99080028245947

_space_group_name_H-M_alt    "P 1"
_space_group_IT_number       1

loop_
  _space_group_symop_operation_xyz
  'x, y, z'

loop_
  _atom_site_type_symbol
  _atom_site_label
  _atom_site_symmetry_multiplicity
  _atom_site_fract_x
  _atom_site_fract_y
  _atom_site_fract_z
  _atom_site_occupancy
  Zn  Zn1       1.0  0.48441655053572663  0.6438635343932477  0.4999659994370163  1.0000
  Zn  Zn2       1.0  0.5155842743619202  0.3561325353248889  0.5000361410121172  1.0000
  H   H1        1.0  0.03264302481569809  0.3420262106060434  0.4951625222288811  1.0000
  H   H2        1.0  0.9673581704403273  0.6579626730894289  0.5048306074894809  1.0000
  C   C1        1.0  0.499208291874531  0.4984972530888001  0.2641855448181332  1.0000
  C   C2        1.0  0.6211512010567333  0.5317034278107826  0.060617476223612195  1.0000
  C   C3        1.0  0.5027352323747607  0.5003997601622745  0.872363451171715  1.0000
  C   C4        1.0  0.49725716255262137  0.49960464500462365  0.12764422444334395  1.0000
  C   C5        1.0  0.40660266938167666  0.0847368036428193  0.5799530463126601  1.0000
  C   C6        1.0  0.5934057737748689  0.9152550338633533  0.42004535879824806  1.0000
  C   C7        1.0  0.4066515606871802  0.9436886432576872  0.5712500556809204  1.0000
  C   C8        1.0  0.5933592772713536  0.05630825684195171  0.42874917899951726  1.0000
  C   C9        1.0  0.5007905909987755  0.5015029400520348  0.7358184164039084  1.0000
  C   C10       1.0  0.7962096646958371  0.45946620383870146  0.49877631921462035  1.0000
  C   C11       1.0  0.2037848828583719  0.5405279039374662  0.5012178076350082  1.0000
  C   C12       1.0  0.9654665998597306  0.44578089821347083  0.4984056424172678  1.0000
  C   C13       1.0  0.03452915292668023  0.5542070586373881  0.5015866896104413  1.0000
  C   C14       1.0  0.37344126841122705  0.4676261565117558  0.065833983519525  1.0000
  C   C15       1.0  0.6265577979774832  0.5323791238748468  0.9341672294840109  1.0000
  C   C16       1.0  0.37884083735433893  0.46830301325500306  0.9393874796268092  1.0000
  N   N1        1.0  0.49720963422493014  0.8612214804920837  0.4939239574484374  1.0000
  N   N2        1.0  0.502798365161226  0.1387785275822679  0.5060744066941538  1.0000
  Cl  Cl1       1.0  0.2146352776282683  0.43119505898798133  0.14273213426463366  1.0000
  Cl  Cl2       1.0  0.7853622658368025  0.5688061821128941  0.8572727503193603  1.0000
  Cl  Cl3       1.0  0.2884433452199175  0.1813951240986285  0.6819190923465185  1.0000
  Cl  Cl4       1.0  0.7115650230173995  0.8186028441469588  0.3180810866410866  1.0000
  O   O1        1.0  0.48187888371396065  0.6146333145577642  0.3149964258935469  1.0000
  O   O2        1.0  0.5181133893722318  0.3853659837139816  0.6850094733419211  1.0000
  O   O3        1.0  0.5186884287993861  0.38169391038701406  0.3135374186470159  1.0000
  O   O4        1.0  0.4813140911126295  0.6183051826323478  0.6864628625637863  1.0000
  O   O5        1.0  0.7151614260044282  0.5799849144318687  0.5017418695936158  1.0000
  O   O6        1.0  0.284836328063129  0.42001015270097514  0.4982512869978563  1.0000
  O   O7        1.0  0.7456318416572001  0.3477765973101512  0.49580970875021524  1.0000
  O   O8        1.0  0.2543670189638263  0.6522123503363844  0.504188892376291  1.0000
  F   F1        1.0  0.25833580863830724  0.4385683370134643  0.8792571523570769  1.0000
  F   F2        1.0  0.7416663030006275  0.5614440609783458  0.1207511987023366  1.0000
  F   F3        1.0  0.31216380759711615  0.8884940189314889  0.6428555975839032  1.0000
  F   F4        1.0  0.6878492909873584  0.11150284079634078  0.3571435952061037  1.0000
