data_image0
_chemical_formula_structural       Co4H16C36N8O16
_chemical_formula_sum              "Co4 H16 C36 N8 O16"
_cell_length_a       5.906016327142733
_cell_length_b       10.048417623664658
_cell_length_c       13.365903393511159
_cell_angle_alpha    96.02774739614331
_cell_angle_beta     89.99935532413329
_cell_angle_gamma    90.00050886482771

_space_group_name_H-M_alt    "P 1"
_space_group_IT_number       1

loop_
  _space_group_symop_operation_xyz
  'x, y, z'

loop_
  _atom_site_type_symbol
  _atom_site_label
  _atom_site_symmetry_multiplicity
  _atom_site_fract_x
  _atom_site_fract_y
  _atom_site_fract_z
  _atom_site_occupancy
  Co  Co1       1.0  0.2272007614603666  0.7542197884170321  0.1715410814747642  1.0000
  Co  Co2       1.0  0.7271973818799324  0.7457833340013879  0.32846048520158894  1.0000
  Co  Co3       1.0  0.7727985350043625  0.2457801707128553  0.8284601411920463  1.0000
  Co  Co4       1.0  0.2728086874004987  0.25422161425458967  0.6715388688806527  1.0000
  H   H1        1.0  0.13117994592764148  0.36141479761785417  0.0733421935899017  1.0000
  H   H2        1.0  0.6311742088816317  0.13858082134118627  0.42666527384356095  1.0000
  H   H3        1.0  0.8688227369520547  0.6385921712407168  0.9266603054957304  1.0000
  H   H4        1.0  0.3688301670447416  0.8614131671910955  0.573340736138782  1.0000
  H   H5        1.0  0.3491527219046446  0.41416360659152923  0.9199219295604096  1.0000
  H   H6        1.0  0.8491648807905462  0.08582653882567828  0.5800795535883624  1.0000
  H   H7        1.0  0.6508635065070577  0.5858453589021763  0.08007997177407593  1.0000
  H   H8        1.0  0.15086489301112488  0.9141603968326706  0.41991844302105363  1.0000
  H   H9        1.0  0.18941388567442627  0.17394237192866058  0.22422038574305964  1.0000
  H   H10       1.0  0.6893825480075293  0.3260585183167207  0.2757879292127328  1.0000
  H   H11       1.0  0.8106091154619506  0.826067613487737  0.7757845851585403  1.0000
  H   H12       1.0  0.3105947369408568  0.6739374571566401  0.7242159860298758  1.0000
  H   H13       1.0  0.9116503090381515  0.08223888511882649  0.0286614910034757  1.0000
  H   H14       1.0  0.4116403244514686  0.41776993226421416  0.4713335650937795  1.0000
  H   H15       1.0  0.08835745346269869  0.9177680549443817  0.9713365168131177  1.0000
  H   H16       1.0  0.5883555857452976  0.582233986459144  0.5286612223437999  1.0000
  C   C1        1.0  0.4037873739502587  0.34116464817316927  0.9690303897705308  1.0000
  C   C2        1.0  0.9037832285490949  0.15883372559594727  0.5309676930487086  1.0000
  C   C3        1.0  0.5962271612970014  0.6588493256320688  0.030972637170876303  1.0000
  C   C4        1.0  0.09623130659954171  0.8411572032370811  0.4690291081595178  1.0000
  C   C5        1.0  0.5951652561968644  0.19032155952315571  0.0389089484029981  1.0000
  C   C6        1.0  0.09515726580050199  0.3096828838820612  0.4610963755889729  1.0000
  C   C7        1.0  0.4048340403347055  0.8096884066351606  0.9610930283839354  1.0000
  C   C8        1.0  0.9048284851723166  0.6903210828297405  0.5389058973010563  1.0000
  C   C9        1.0  0.3954700839915687  0.21809896280974062  0.09657238602130752  1.0000
  C   C10       1.0  0.8954738727120742  0.2819038637256312  0.4034357686230265  1.0000
  C   C11       1.0  0.6045275193078936  0.7819100218464569  0.9034325095289333  1.0000
  C   C12       1.0  0.1045220373185032  0.718093112492639  0.5965682219871129  1.0000
  C   C13       1.0  0.3449387168040161  0.153540281269116  0.1814958893776719  1.0000
  C   C14       1.0  0.8449218754575938  0.3464473208423228  0.3185136211162387  1.0000
  C   C15       1.0  0.655065659220071  0.8464586771694014  0.8185052578649988  1.0000
  C   C16       1.0  0.15506387530474797  0.6535416929405214  0.6814965031074323  1.0000
  C   C17       1.0  0.5000879328083058  0.05871352919746189  0.20811110689799517  1.0000
  C   C18       1.0  6.24091019361e-05  0.44128651072203706  0.29189886086076916  1.0000
  C   C19       1.0  0.4999130568768422  0.9412884217396565  0.7918887695031673  1.0000
  C   C20       1.0  0.9999335008317375  0.5587014783752053  0.7081074452125407  1.0000
  C   C21       1.0  0.7050184318476056  0.034503589710503504  0.15367106336191233  1.0000
  C   C22       1.0  0.20499362846054936  0.46550736845779256  0.346336434081053  1.0000
  C   C23       1.0  0.2949859442658819  0.9655073723609814  0.8463302402820858  1.0000
  C   C24       1.0  0.7950005884356344  0.5344935961646013  0.6536656125527216  1.0000
  C   C25       1.0  0.7534096103562219  0.09986668333689148  0.0690969830781398  1.0000
  C   C26       1.0  0.2533986605500615  0.4001374501050917  0.430903766975213  1.0000
  C   C27       1.0  0.2465964589801857  0.9001452650378421  0.930902150345368  1.0000
  C   C28       1.0  0.746595556365314  0.5998594877002433  0.5690942352964186  1.0000
  C   C29       1.0  0.4486802046347691  0.980986545735952  0.294981127375685  1.0000
  C   C30       1.0  0.9486628706144629  0.5190125831088179  0.205020501511413  1.0000
  C   C31       1.0  0.5513190918441495  0.019011397584833396  0.7050176988386454  1.0000
  C   C32       1.0  0.0513279599677503  0.4809702728319962  0.7949652168578611  1.0000
  C   C33       1.0  0.8782499436461393  0.9446262653457961  0.1915452630096866  1.0000
  C   C34       1.0  0.37823507204901563  0.5553775200952272  0.3084525880694358  1.0000
  C   C35       1.0  0.1217510460448281  0.05536965736857271  0.8084504182053109  1.0000
  C   C36       1.0  0.6217506789588683  0.4446234157012158  0.6915449673276514  1.0000
  N   N1        1.0  0.5937271663856194  0.2686640851498438  0.9584091188542914  1.0000
  N   N2        1.0  0.09372324051822288  0.23133587585690651  0.5415884255068164  1.0000
  N   N3        1.0  0.40627720965351705  0.7313398864051592  0.041593902534074814  1.0000
  N   N4        1.0  0.906279442411538  0.768662029062419  0.4584044123568774  1.0000
  N   N5        1.0  0.2808018802947103  0.31362278903882407  0.049501954313655006  1.0000
  N   N6        1.0  0.7808047490934484  0.18637545433938388  0.45049671531580066  1.0000
  N   N7        1.0  0.7192109617880577  0.6863851469375603  0.9504953803599963  1.0000
  N   N8        1.0  0.21920470646158918  0.8136154888855882  0.5495023315330059  1.0000
  O   O1        1.0  0.43936349722636686  0.8486250924456655  0.2768244107977652  1.0000
  O   O2        1.0  0.9393392639131617  0.6513819807203589  0.223174871729853  1.0000
  O   O3        1.0  0.560644265227701  0.15137484269764903  0.7231730691347382  1.0000
  O   O4        1.0  0.06064310070981091  0.34861092544000627  0.7768183376651265  1.0000
  O   O5        1.0  0.41149973362765724  0.0398130014119502  0.3799320614147561  1.0000
  O   O6        1.0  0.9114641143185693  0.4601918652342362  0.12007092778586781  1.0000
  O   O7        1.0  0.5884995629423314  0.9601999572526122  0.6200686445225757  1.0000
  O   O8        1.0  0.0885131706481914  0.5398041006368501  0.8799314903711064  1.0000
  O   O9        1.0  0.8786753378095895  0.9252956371525797  0.2842702978578231  1.0000
  O   O10       1.0  0.3786478062973373  0.5747061343721569  0.21572515476724877  1.0000
  O   O11       1.0  0.121340890554464  0.0746992944956446  0.7157268049944039  1.0000
  O   O12       1.0  0.6213430243083309  0.4252967932391697  0.78427105435609  1.0000
  O   O13       1.0  0.023687844016684792  0.8925209940613567  0.1279339575026412  1.0000
  O   O14       1.0  0.5236711265671515  0.607479193298559  0.3720661847880606  1.0000
  O   O15       1.0  0.9763063728752711  0.107466918213845  0.87206037188961  1.0000
  O   O16       1.0  0.47631123793891567  0.39251276977262956  0.6279359317087341  1.0000
