data_image0
_chemical_formula_structural       Zn8H44C64N8Cl4O20
_chemical_formula_sum              "Zn8 H44 C64 N8 Cl4 O20"
_cell_length_a       10.182293488115256
_cell_length_b       12.77035775303224
_cell_length_c       13.046808378034646
_cell_angle_alpha    89.99984103021775
_cell_angle_beta     106.0586260713552
_cell_angle_gamma    89.99984913759526

_space_group_name_H-M_alt    "P 1"
_space_group_IT_number       1

loop_
  _space_group_symop_operation_xyz
  'x, y, z'

loop_
  _atom_site_type_symbol
  _atom_site_label
  _atom_site_symmetry_multiplicity
  _atom_site_fract_x
  _atom_site_fract_y
  _atom_site_fract_z
  _atom_site_occupancy
  Zn  Zn1       1.0  0.9049101447157284  0.1613684935921711  0.2465902155049804  1.0000
  Zn  Zn2       1.0  0.5950883847975277  0.6613696805247357  0.253409610487644  1.0000
  Zn  Zn3       1.0  0.0950898816421741  0.8386323463215886  0.7534098098157358  1.0000
  Zn  Zn4       1.0  0.4049106196611305  0.3386303763270034  0.7465901849773573  1.0000
  Zn  Zn5       1.0  0.6581395135143994  0.3146521093638198  0.06430857442030911  1.0000
  Zn  Zn6       1.0  0.8418603524863285  0.814652260916567  0.4356911423650871  1.0000
  Zn  Zn7       1.0  0.3418605128416985  0.6853495136133599  0.9356914508989504  1.0000
  Zn  Zn8       1.0  0.1581386519723296  0.1853477959351721  0.5643086530999142  1.0000
  H   H1        1.0  0.9001935492727215  0.402353855797024  0.2893865771885729  1.0000
  H   H2        1.0  0.5998048654824614  0.9023559372073817  0.21061411173428718  1.0000
  H   H3        1.0  0.0998054675108335  0.5976454179923677  0.7106124545230159  1.0000
  H   H4        1.0  0.4001972046793583  0.09764411964015808  0.7893863733022144  1.0000
  H   H5        1.0  0.9414408834050008  0.06564365101876747  0.7987560513082244  1.0000
  H   H6        1.0  0.5585591412875957  0.5656434964859185  0.7012436115971283  1.0000
  H   H7        1.0  0.0585560895764417  0.9343556227734235  0.2012425206890285  1.0000
  H   H8        1.0  0.4414429165547489  0.4343549942337147  0.2987576371971343  1.0000
  H   H9        1.0  0.9293833824367397  0.6021180291088584  0.8224148139292211  1.0000
  H   H10       1.0  0.5706174958468324  0.10211852341684137  0.6775849434547396  1.0000
  H   H11       1.0  0.0706176781471157  0.39788202774114717  0.177584677495247  1.0000
  H   H12       1.0  0.4293815086100211  0.8978823164983178  0.322414852008805  1.0000
  H   H13       1.0  0.007597017216397699  0.2426851817103496  0.7350714092835204  1.0000
  H   H14       1.0  0.4924039145003363  0.7426855009951652  0.764929705375181  1.0000
  H   H15       1.0  0.992404031044366  0.75731487513859  0.2649288458958097  1.0000
  H   H16       1.0  0.5075950653121453  0.2573145558544354  0.2350716175995444  1.0000
  H   H17       1.0  0.6773636559496978  0.5619921063345144  0.036360807327781686  1.0000
  H   H18       1.0  0.8226363910006642  0.06199282616756819  0.4636373261011002  1.0000
  H   H19       1.0  0.3226384265352067  0.4380079505140982  0.9636389139538508  1.0000
  H   H20       1.0  0.1773616038782251  0.9380080137500566  0.536361475750418  1.0000
  H   H21       1.0  0.7960675540110316  0.6806647527088143  0.9344614203069312  1.0000
  H   H22       1.0  0.7039329618238312  0.18066528449540434  0.5655380455449901  1.0000
  H   H23       1.0  0.20393350657282383  0.3193353041411908  0.0655380711175368  1.0000
  H   H24       1.0  0.2960650084106859  0.8193347723566614  0.43446228381770885  1.0000
  H   H25       1.0  0.813391771353757  0.9690505893813395  0.9047586221451382  1.0000
  H   H26       1.0  0.6866074014209218  0.4690510733705863  0.595240537096366  1.0000
  H   H27       1.0  0.18660619887895538  0.030950250534146986  0.09524170721610399  1.0000
  H   H28       1.0  0.3133936591611288  0.5309497665428395  0.4047589543266454  1.0000
  H   H29       1.0  0.005380185355846799  0.4345404064810835  0.7446086529092355  1.0000
  H   H30       1.0  0.4946198733825896  0.9345399650847455  0.7553909859111557  1.0000
  H   H31       1.0  0.994620887552898  0.5654588673065813  0.25539007476182  1.0000
  H   H32       1.0  0.5053780968537397  0.06545930870390748  0.24460934345299276  1.0000
  H   H33       1.0  0.6887922205381898  0.0717035886075266  0.015379800942156364  1.0000
  H   H34       1.0  0.8112087911786289  0.5717036658660318  0.4846192900550577  1.0000
  H   H35       1.0  0.3112098372969285  0.9282980343657811  0.984621447846301  1.0000
  H   H36       1.0  0.1887912475005535  0.42829795711221397  0.5153799715093328  1.0000
  H   H37       1.0  0.706103242731487  0.2825334695346696  0.3889982626576511  1.0000
  H   H38       1.0  0.7938926592294281  0.7825330762597743  0.11100218142052395  1.0000
  H   H39       1.0  0.2938957370791897  0.7174673703783512  0.6110030603156247  1.0000
  H   H40       1.0  0.20610737945517593  0.2174661975282177  0.8889970801482292  1.0000
  H   H41       1.0  0.7931858080130425  0.39899832004116564  0.4456119764885925  1.0000
  H   H42       1.0  0.7068126222255344  0.8990006194650063  0.054388724888177385  1.0000
  H   H43       1.0  0.20681522792462909  0.6010017368067081  0.5543890424455995  1.0000
  H   H44       1.0  0.2931884260334243  0.10100022044735366  0.9456115302897032  1.0000
  C   C1        1.0  0.8914071626556535  0.21878812601561745  0.8505623338082272  1.0000
  C   C2        1.0  0.608593164936231  0.7187895793295025  0.6494377542991289  1.0000
  C   C3        1.0  0.10859286370767758  0.7812103647078814  0.14943769151684447  1.0000
  C   C4        1.0  0.39140583952242747  0.28121047752223655  0.3505620411658725  1.0000
  C   C5        1.0  0.6930846651872358  0.4512627158090296  0.24185312186170896  1.0000
  C   C6        1.0  0.8069145704334348  0.951262661079255  0.258146087883695  1.0000
  C   C7        1.0  0.3069163830735278  0.54873734103991  0.7581471333176211  1.0000
  C   C8        1.0  0.19308748740890994  0.048735829640378384  0.7418551609105748  1.0000
  C   C9        1.0  0.8208009771702721  0.2689621121690421  0.9165435036953724  1.0000
  C   C10       1.0  0.6792001407998711  0.7689628210904683  0.5834566280460649  1.0000
  C   C11       1.0  0.1791990368663505  0.7310379446802314  0.08345728538165528  1.0000
  C   C12       1.0  0.3207998855598433  0.23103723575987084  0.4165433972760937  1.0000
  C   C13       1.0  0.8865091756044307  0.44145924821719257  0.8601717715049801  1.0000
  C   C14       1.0  0.613492155967201  0.9414599354152811  0.6398287136126511  1.0000
  C   C15       1.0  0.11349189730250939  0.5585408086338859  0.1398269561646259  1.0000
  C   C16       1.0  0.3865068361665678  0.05854090449881259  0.3601718456057554  1.0000
  C   C17       1.0  0.8183453545222363  0.38158150553002895  0.9215046342344807  1.0000
  C   C18       1.0  0.6816552314501224  0.8815822233556431  0.5784958432666016  1.0000
  C   C19       1.0  0.18165570606342377  0.6184177682565631  0.07849485719144411  1.0000
  C   C20       1.0  0.3183427387843949  0.11841783349643006  0.42150448609609725  1.0000
  C   C21       1.0  0.7998327718818957  0.3645186950803705  0.28301905773867014  1.0000
  C   C22       1.0  0.70016377365954  0.8645205475244422  0.21698131189827313  1.0000
  C   C23       1.0  0.20016622025367786  0.6354813617703027  0.7169815014811931  1.0000
  C   C24       1.0  0.2998372746012237  0.13547950932449737  0.783018943281057  1.0000
  C   C25       1.0  0.8886307058996579  0.10822819148112468  0.848043883079363  1.0000
  C   C26       1.0  0.6113691222875416  0.6082288487581663  0.6519556217688205  1.0000
  C   C27       1.0  0.111368310883897  0.8917710823082599  0.1519551486322257  1.0000
  C   C28       1.0  0.3886308917490808  0.39177120809110716  0.3480451673082073  1.0000
  C   C29       1.0  0.9215185452339156  0.26584137398808133  0.4520365555620032  1.0000
  C   C30       1.0  0.5784784679670238  0.765844744393803  0.04796341656544462  1.0000
  C   C31       1.0  0.07848044690527442  0.7341571167357513  0.5479640036607663  1.0000
  C   C32       1.0  0.4215225802937397  0.23415531245514384  0.9520368386138928  1.0000
  C   C33       1.0  0.8787088350717909  0.5515047149200852  0.8671202306858987  1.0000
  C   C34       1.0  0.6212912548624417  0.05150522947203479  0.6328794846959269  1.0000
  C   C35       1.0  0.1212922378351564  0.4484953419310002  0.13287849698370738  1.0000
  C   C36       1.0  0.37870671537027084  0.9484956104434585  0.3671208446653154  1.0000
  C   C37       1.0  0.957736052469677  0.28143321764404305  0.7886005740289973  1.0000
  C   C38       1.0  0.5422660175315173  0.7814338516253443  0.711400505037183  1.0000
  C   C39       1.0  0.04226603001522731  0.7185668392045697  0.21139914725264217  1.0000
  C   C40       1.0  0.45773297460404894  0.21856620522532913  0.28860005418268025  1.0000
  C   C41       1.0  0.7388296136077415  0.5304222752376617  0.987222419678254  1.0000
  C   C42       1.0  0.7611705982542675  0.030423619376840294  0.5127758464413361  1.0000
  C   C43       1.0  0.26117246887717016  0.46957778161095115  0.012777301603378498  1.0000
  C   C44       1.0  0.2388263624004807  0.9695772205411188  0.4872234893078797  1.0000
  C   C45       1.0  0.8043001757696472  0.5958151304663913  0.9300845090787533  1.0000
  C   C46       1.0  0.6956997220183538  0.09581645021101785  0.5699142780853279  1.0000
  C   C47       1.0  0.1957008971372929  0.40418492638469417  0.0699142185908528  1.0000
  C   C48       1.0  0.304298260539248  0.9041836066421283  0.4300852875225019  1.0000
  C   C49       1.0  0.8163791190564494  0.05430487104820968  0.9067502178677528  1.0000
  C   C50       1.0  0.6836209702811828  0.5543047598520798  0.5932487233673809  1.0000
  C   C51       1.0  0.18361988540220864  0.9456951858035295  0.09324957759724131  1.0000
  C   C52       1.0  0.31637906840162344  0.4456952969993323  0.4067505381999226  1.0000
  C   C53       1.0  0.955681030059182  0.3883338984899891  0.7935245761683875  1.0000
  C   C54       1.0  0.5443205589790168  0.8883345421142007  0.7064753423731247  1.0000
  C   C55       1.0  0.0443200182033863  0.6116653752955299  0.20647567901239938  1.0000
  C   C56       1.0  0.4556784454796415  0.11166551473753829  0.2935244530918695  1.0000
  C   C57       1.0  0.7471922516023711  0.11082245912293587  0.9680344770428136  1.0000
  C   C58       1.0  0.7528075646136543  0.6108231593286461  0.5319650181764644  1.0000
  C   C59       1.0  0.25280777475733635  0.8891775977274107  0.0319655482793522  1.0000
  C   C60       1.0  0.24719145216809585  0.389176897524166  0.4680340135336678  1.0000
  C   C61       1.0  0.7981910248833941  0.3304732877321611  0.3964713743445357  1.0000
  C   C62       1.0  0.7018046681796052  0.8304754583657256  0.10352812804183746  1.0000
  C   C63       1.0  0.2018090014763203  0.6695267691181783  0.6035286509776299  1.0000
  C   C64       1.0  0.2981953581801092  0.1695245984846138  0.8964718972803283  1.0000
  N   N1        1.0  0.747058350994088  0.4263124238167889  0.9837882548589648  1.0000
  N   N2        1.0  0.7529420408952562  0.9263123853390097  0.5162112928665437  1.0000
  N   N3        1.0  0.25294373149081656  0.5736876330318166  0.01621146642266782  1.0000
  N   N4        1.0  0.24705592934106588  0.07368688844964308  0.48378903649760463  1.0000
  N   N5        1.0  0.7507196806091727  0.21499024187509966  0.9735909626787559  1.0000
  N   N6        1.0  0.7492806891556539  0.7149909652473806  0.5264076120163566  1.0000
  N   N7        1.0  0.2492813922959627  0.7850105980393989  0.026407764989393488  1.0000
  N   N8        1.0  0.25071729340014315  0.28500987466917843  0.4735919535900237  1.0000
  Cl  Cl1       1.0  0.07953123134282691  0.1785005356320184  0.17863481240932091  1.0000
  Cl  Cl2       1.0  0.42046693625831455  0.6785000630371483  0.32136430787758025  1.0000
  Cl  Cl3       1.0  0.9204687950132708  0.8215010873451546  0.8213652129099388  1.0000
  Cl  Cl4       1.0  0.5795320805216236  0.3215007768790769  0.6786347238311023  1.0000
  O   O1        1.0  0.5999745486903478  0.436929742277101  0.15617814741057148  1.0000
  O   O2        1.0  0.9000247530716905  0.9369284659160966  0.3438211155349933  1.0000
  O   O3        1.0  0.4000254899888418  0.5630718807011446  0.8438211141538261  1.0000
  O   O4        1.0  0.09997524864545682  0.06307002480527049  0.6561804372998026  1.0000
  O   O5        1.0  0.776815194483426  0.2804178096444758  0.2113824062073064  1.0000
  O   O6        1.0  0.7231817514614106  0.7804186275618361  0.28861751182335377  1.0000
  O   O7        1.0  0.2231827757529032  0.7195814641441768  0.788617923156849  1.0000
  O   O8        1.0  0.2768182872231931  0.2195806462261557  0.7113817497453994  1.0000
  O   O9        1.0  0.7088363423414635  0.5347230846758959  0.2982005416955857  1.0000
  O   O10       1.0  0.7911617743147233  0.034723829905914286  0.2017979969847659  1.0000
  O   O11       1.0  0.29116264979591483  0.4652761891113568  0.7018000175257272  1.0000
  O   O12       1.0  0.20884439577800865  0.9652746608102657  0.7982026437284375  1.0000
  O   O13       1.0  0.9915573639544635  0.28993368032185873  0.5453506591993786  1.0000
  O   O14       1.0  0.5084385354079899  0.7899376110929308  0.954649009167582  1.0000
  O   O15       1.0  0.0084416281829149  0.7100655934653869  0.4546499000219341  1.0000
  O   O16       1.0  0.4915604690488565  0.21006322882222853  0.045350786295962606  1.0000
  O   O17       1.0  0.9561863012319094  0.18559149850259615  0.4053222005293052  1.0000
  O   O18       1.0  0.5438100727007011  0.6855940262684822  0.09467707584101959  1.0000
  O   O19       1.0  0.04381271554983359  0.8144085583502088  0.594676831180827  1.0000
  O   O20       1.0  0.4561899536572015  0.31440681364527706  0.9053229494796895  1.0000
