data_image0
_chemical_formula_structural       Cu4H36C40Br4N4
_chemical_formula_sum              "Cu4 H36 C40 Br4 N4"
_cell_length_a       3.8419825140100192
_cell_length_b       9.591631961035024
_cell_length_c       24.70341079110435
_cell_angle_alpha    89.99972011289078
_cell_angle_beta     89.99980715699716
_cell_angle_gamma    90.00014754704601

_space_group_name_H-M_alt    "P 1"
_space_group_IT_number       1

loop_
  _space_group_symop_operation_xyz
  'x, y, z'

loop_
  _atom_site_type_symbol
  _atom_site_label
  _atom_site_symmetry_multiplicity
  _atom_site_fract_x
  _atom_site_fract_y
  _atom_site_fract_z
  _atom_site_occupancy
  Cu  Cu1       1.0  0.9206673308431944  0.9949853112900229  0.8611742142918575  1.0000
  Cu  Cu2       1.0  0.4206476199962382  0.494991224691603  0.6388233452975598  1.0000
  Cu  Cu3       1.0  0.5793199584617597  0.994993483448944  0.36117371854398783  1.0000
  Cu  Cu4       1.0  0.0793366870874053  0.4949900136792778  0.1388248735603739  1.0000
  H   H1        1.0  0.670958449288797  0.06026781744079562  0.7757914126983538  1.0000
  H   H2        1.0  0.17094773913943578  0.5602682796542242  0.7242062997672677  1.0000
  H   H3        1.0  0.8290433343240624  0.06027418613592062  0.2757923965018066  1.0000
  H   H4        1.0  0.32905865239450083  0.5602673503435511  0.22420606916314514  1.0000
  H   H5        1.0  0.36710546680441064  0.19330663710161392  0.7586143914809969  1.0000
  H   H6        1.0  0.8670937559956684  0.6933053616367034  0.7413841738810731  1.0000
  H   H7        1.0  0.13290069552725473  0.19331278453671533  0.2586146753787517  1.0000
  H   H8        1.0  0.632909807293501  0.6933073387843081  0.24138405297454577  1.0000
  H   H9        1.0  0.780918177758913  0.19530776439449227  0.7282188759890147  1.0000
  H   H10       1.0  0.2809039056689286  0.6953034565324503  0.7717809481985543  1.0000
  H   H11       1.0  0.7190827490164509  0.19531088132560373  0.22821911168870912  1.0000
  H   H12       1.0  0.21910231361994187  0.6953024031859558  0.2717803742879212  1.0000
  H   H13       1.0  0.6433749219168944  0.4520124292890273  0.7710151909430466  1.0000
  H   H14       1.0  0.14336932108793118  0.9520138738423257  0.728986248288969  1.0000
  H   H15       1.0  0.8566240351234241  0.45201882910381397  0.2710153497156825  1.0000
  H   H16       1.0  0.35663144840088995  0.9520119330710699  0.22898478785624832  1.0000
  H   H17       1.0  0.8549164236610592  0.6035962839285817  0.8470878843331066  1.0000
  H   H18       1.0  0.3549172513697627  0.1036020197266936  0.6529136912541774  1.0000
  H   H19       1.0  0.6450818830330435  0.6036024451119034  0.3470877566136182  1.0000
  H   H20       1.0  0.14508531353728668  0.10359879773244533  0.1529135635428389  1.0000
  H   H21       1.0  0.1251542791017783  0.6177075946807024  0.9389268101592947  1.0000
  H   H22       1.0  0.6251641124625777  0.11771400978920353  0.5610728432035046  1.0000
  H   H23       1.0  0.3748429126474662  0.617711929895215  0.4389273635464265  1.0000
  H   H24       1.0  0.874839731878673  0.1177131321191283  0.0610733965992054  1.0000
  H   H25       1.0  0.36485714465954533  0.4961805007424119  0.0202529069202555  1.0000
  H   H26       1.0  0.8648562453289869  0.9961876885239036  0.4797471424479909  1.0000
  H   H27       1.0  0.13514257392718323  0.4961845173924643  0.5202531575445236  1.0000
  H   H28       1.0  0.6351390717503949  0.9961864922901357  0.9797482026827283  1.0000
  H   H29       1.0  0.3964077901750329  0.23894065009966434  0.022630546046912104  1.0000
  H   H30       1.0  0.8964069387791653  0.7389468252833425  0.4773691629691613  1.0000
  H   H31       1.0  0.10359558711862599  0.23894463115023257  0.5226324335252883  1.0000
  H   H32       1.0  0.6035869272664414  0.7389466360430178  0.9773686216392579  1.0000
  H   H33       1.0  0.1824981064726572  0.0982318655383949  0.94416704802714  1.0000
  H   H34       1.0  0.6824901364861019  0.598239184820507  0.5558338245391923  1.0000
  H   H35       1.0  0.31751156947800746  0.09823717864497893  0.44416803828322327  1.0000
  H   H36       1.0  0.817503599484418  0.5982392850549517  0.05583400519540049  1.0000
  C   C1        1.0  0.7749310337867216  0.2601189384137116  0.8115680354860118  1.0000
  C   C2        1.0  0.2749210448884156  0.7601219368052343  0.6884324789737378  1.0000
  C   C3        1.0  0.7250711931298  0.2601251898232704  0.31156867263631244  1.0000
  C   C4        1.0  0.22507421833992677  0.7601219327770963  0.18843190171911323  1.0000
  C   C5        1.0  0.6434548406988654  0.1715763449511343  0.7662185478705866  1.0000
  C   C6        1.0  0.14344393754585383  0.6715766864706368  0.7337801837024858  1.0000
  C   C7        1.0  0.8565503873512698  0.17158274467675486  0.26621911148856015  1.0000
  C   C8        1.0  0.35656030677229467  0.6715757881875175  0.23377953291434045  1.0000
  C   C9        1.0  0.7553999195866438  0.40710123952246147  0.8075542860399454  1.0000
  C   C10       1.0  0.2553976582376052  0.9071031447422798  0.6924459611375013  1.0000
  C   C11       1.0  0.7446110532128429  0.40710751296941794  0.30755491226451437  1.0000
  C   C12       1.0  0.24459838056220917  0.9071031627357727  0.19244577776610333  1.0000
  C   C13       1.0  0.8718734635084431  0.4901307093042959  0.8491350727153205  1.0000
  C   C14       1.0  0.3718668347751759  0.9901331387241189  0.6508677857828077  1.0000
  C   C15       1.0  0.628131949190262  0.4901378939332375  0.3491357640813249  1.0000
  C   C16       1.0  0.1281305261049326  0.9901340679160672  0.1508664531412691  1.0000
  C   C17       1.0  0.014622680237714302  0.42671527955383964  0.8958600943831104  1.0000
  C   C18       1.0  0.5146215448376736  0.926723032401256  0.604140250324214  1.0000
  C   C19       1.0  0.48538207527197835  0.42672182460581354  0.3958613955532755  1.0000
  C   C20       1.0  0.985380939879242  0.9267222794429486  0.10413871788447443  1.0000
  C   C21       1.0  0.13803009487976678  0.5042357636950072  0.9407529775777734  1.0000
  C   C22       1.0  0.6380295537531636  0.0042401166658337  0.5592472881678107  1.0000
  C   C23       1.0  0.36197160448698185  0.5042411269677913  0.4407527285589908  1.0000
  C   C24       1.0  0.8619684605131042  0.0042413096276945  0.0592482535609022  1.0000
  C   C25       1.0  0.27136685833664836  0.43705095210238193  0.98553345987564  1.0000
  C   C26       1.0  0.771372736440469  0.9370598354883626  0.5144667216749426  1.0000
  C   C27       1.0  0.2286283410657859  0.4370561649429591  0.4855357142451454  1.0000
  C   C28       1.0  0.728629013535219  0.9370577503182744  0.0144657376335999  1.0000
  C   C29       1.0  0.2889849239447244  0.2900717940357538  0.986946354427552  1.0000
  C   C30       1.0  0.7889908305254067  0.7900775675089663  0.5130536906687126  1.0000
  C   C31       1.0  0.2110224046196834  0.29007594444097157  0.4869474042408015  1.0000
  C   C32       1.0  0.7110126942550038  0.7900775476061243  0.0130543356878832  1.0000
  C   C33       1.0  0.1716186430881237  0.21205190923807052  0.9437070878240876  1.0000
  C   C34       1.0  0.6716106638459464  0.7120602653057732  0.5562923609829298  1.0000
  C   C35       1.0  0.3283838969088819  0.2120593197541183  0.44370969120517867  1.0000
  C   C36       1.0  0.8283733148592844  0.7120603778151774  0.05629132115004151  1.0000
  C   C37       1.0  0.030762334545904893  0.2780012733248115  0.8975555430661404  1.0000
  C   C38       1.0  0.5307612333201561  0.778004877248769  0.6024442644959507  1.0000
  C   C39       1.0  0.46924152020868354  0.2780078001772708  0.3975556388558773  1.0000
  C   C40       1.0  0.9692456246216707  0.7780061912320164  0.10244355068436309  1.0000
  Br  Br1       1.0  0.418813971172355  0.8469069661460297  0.8656892559462434  1.0000
  Br  Br2       1.0  0.9188041082995396  0.3469135005120235  0.634307775350571  1.0000
  Br  Br3       1.0  0.08118082705685478  0.8469182681288033  0.36568835435436853  1.0000
  Br  Br4       1.0  0.5811839782416043  0.34691229158399045  0.1343088977789009  1.0000
  N   N1        1.0  0.9093011408627375  0.19712528741552404  0.8552846928187422  1.0000
  N   N2        1.0  0.4092972389811891  0.6971298795447752  0.6447138417087572  1.0000
  N   N3        1.0  0.5906972348056813  0.19713242981690374  0.3552858099215186  1.0000
  N   N4        1.0  0.0907011413766412  0.6971286813520691  0.14471414921244732  1.0000
