data_image0
_chemical_formula_structural       Cd2H28C38S4N2O4
_chemical_formula_sum              "Cd2 H28 C38 S4 N2 O4"
_cell_length_a       8.831537863476585
_cell_length_b       9.764696830514671
_cell_length_c       11.50472016088844
_cell_angle_alpha    107.14475129963928
_cell_angle_beta     103.6424435153902
_cell_angle_gamma    100.56043061056556

_space_group_name_H-M_alt    "P 1"
_space_group_IT_number       1

loop_
  _space_group_symop_operation_xyz
  'x, y, z'

loop_
  _atom_site_type_symbol
  _atom_site_label
  _atom_site_symmetry_multiplicity
  _atom_site_fract_x
  _atom_site_fract_y
  _atom_site_fract_z
  _atom_site_occupancy
  Cd  Cd1       1.0  0.3900479394813984  0.5940779374544503  0.5994701935940726  1.0000
  Cd  Cd2       1.0  0.6099517742705132  0.4059239660968429  0.4005278678249198  1.0000
  H   H1        1.0  0.04019264853681649  0.5811518874748671  0.4078065095593432  1.0000
  H   H2        1.0  0.959805593431284  0.4188489272163877  0.5921892591711498  1.0000
  H   H3        1.0  0.8769564164028766  0.7460343314024627  0.3619547169473876  1.0000
  H   H4        1.0  0.1230403273696581  0.2539653466123965  0.6380413496910863  1.0000
  H   H5        1.0  0.2499167071244557  0.1131892544288604  0.6668424802122602  1.0000
  H   H6        1.0  0.7500769874334378  0.8868080546004575  0.3331593634351435  1.0000
  H   H7        1.0  0.4003891675079601  0.9293634304921451  0.69876174414663  1.0000
  H   H8        1.0  0.5996069143638535  0.070633988339587  0.301235350787401  1.0000
  H   H9        1.0  0.5172416503089252  0.829143048446731  0.08701075626914448  1.0000
  H   H10       1.0  0.4827670616503355  0.1708577662529365  0.9129904127481867  1.0000
  H   H11       1.0  0.4783403058355092  0.8238986032162074  0.29496049180048095  1.0000
  H   H12       1.0  0.5216612194544936  0.1761055347254867  0.7050384846270745  1.0000
  H   H13       1.0  0.27533500172634007  0.6131504386723988  0.29747076273397977  1.0000
  H   H14       1.0  0.7246604777278591  0.386856981779779  0.7025288279400927  1.0000
  H   H15       1.0  0.1053993635270629  0.411521878964315  0.0950942938168566  1.0000
  H   H16       1.0  0.8945939910465199  0.5884822093834926  0.9049031689321084  1.0000
  H   H17       1.0  0.1407180149671632  0.41966937945715443  0.8869047602840968  1.0000
  H   H18       1.0  0.8592846863719643  0.5803347815081635  0.1130935688510988  1.0000
  H   H19       1.0  0.939231124195672  0.27435686413286936  0.2179183055705353  1.0000
  H   H20       1.0  0.06076137670526551  0.7256403899952416  0.7820859124335585  1.0000
  H   H21       1.0  0.7492961790225506  0.04059914748980731  0.048076173234846906  1.0000
  H   H22       1.0  0.2507043624503211  0.9593936927671365  0.9519292406822758  1.0000
  H   H23       1.0  0.8210968895351132  0.8021552246185734  0.01595584171907651  1.0000
  H   H24       1.0  0.1789055251032821  0.19783996160028747  0.9840444424814765  1.0000
  H   H25       1.0  0.08677507549982268  0.7948823260107785  0.14916612946258567  1.0000
  H   H26       1.0  0.9132286101165122  0.20511728294160037  0.850837279339814  1.0000
  H   H27       1.0  0.2729334848660514  0.0270091207959453  0.319725015343657  1.0000
  H   H28       1.0  0.7270693644554386  0.9729916106631576  0.6802776630711592  1.0000
  C   C1        1.0  0.08336156087242587  0.699864197361556  0.4630344694947581  1.0000
  C   C2        1.0  0.9166363413413945  0.30013547179935063  0.5369626769156781  1.0000
  C   C3        1.0  0.9918242681195296  0.7951329451055997  0.43805089317030627  1.0000
  C   C4        1.0  0.00816859894744229  0.20486550236922338  0.5619493565573636  1.0000
  C   C5        1.0  0.04776627777702204  0.9477819657336184  0.5108426765667887  1.0000
  C   C6        1.0  0.9522259538009761  0.05221427037444929  0.4891560108599507  1.0000
  C   C7        1.0  0.19859000911562663  0.996719294327377  0.6059963695793585  1.0000
  C   C8        1.0  0.8014025446088199  0.0032780554334621995  0.3940026672317672  1.0000
  C   C9        1.0  0.28383977342984673  0.894824477332399  0.6243888331997951  1.0000
  C   C10       1.0  0.7161572572734586  0.10517625058007952  0.3756110369517103  1.0000
  C   C11       1.0  0.3485705814422674  0.6196693594866715  0.8478517133417826  1.0000
  C   C12       1.0  0.6514341058290682  0.3803336541791821  0.15214928948511638  1.0000
  C   C13       1.0  0.21994540775835253  0.3056717083392044  0.38143307791353465  1.0000
  C   C14       1.0  0.7800532955346425  0.6943267745598262  0.6185682530131232  1.0000
  C   C15       1.0  0.33134756776877333  0.6237372764206127  0.974524276603326  1.0000
  C   C16       1.0  0.6686603078956495  0.37626466078578596  0.025476162026429012  1.0000
  C   C17       1.0  0.42702175458367003  0.7383342261984394  0.0897404513871649  1.0000
  C   C18       1.0  0.5729846228851869  0.26166657433154944  0.910260285150564  1.0000
  C   C19       1.0  0.4054002182993558  0.7351343477333927  0.2051667763268981  1.0000
  C   C20       1.0  0.5946026574338887  0.2648664315420745  0.7948333114914377  1.0000
  C   C21       1.0  0.29054290574381975  0.6172685517547335  0.20726563373469992  1.0000
  C   C22       1.0  0.7094536372228434  0.38273446013361223  0.7927312648171211  1.0000
  C   C23       1.0  0.19503010851038746  0.5030875394000844  0.09306125873894898  1.0000
  C   C24       1.0  0.80497162638941  0.4969132806069112  0.9069360222431087  1.0000
  C   C25       1.0  0.2143847861740227  0.5069444920565046  0.9773253566067058  1.0000
  C   C26       1.0  0.7856217214393267  0.4930607719385305  0.022675697696591487  1.0000
  C   C27       1.0  0.1174012553428057  0.16483795673876495  0.27872825633581755  1.0000
  C   C28       1.0  0.8825970993919866  0.8351593646911294  0.7212753158029486  1.0000
  C   C29       1.0  0.9698955648893844  0.1685361982939  0.2010716690111637  1.0000
  C   C30       1.0  0.030103617336337186  0.8314599846904756  0.7989334970473366  1.0000
  C   C31       1.0  0.8643106965421411  0.0381352806209705  0.10745023395096351  1.0000
  C   C32       1.0  0.13569001029090094  0.9618620868561791  0.8925520436030825  1.0000
  C   C33       1.0  0.9054779503707665  0.9034202927095265  0.08949169253400416  1.0000
  C   C34       1.0  0.09452275646226842  0.09657707476762309  0.9105105850200347  1.0000
  C   C35       1.0  0.05315042013489801  0.8993559454461462  0.16442083256490037  1.0000
  C   C36       1.0  0.946850600040662  0.10064251974499427  0.8355826579056825  1.0000
  C   C37       1.0  0.1586253763236911  0.029366650709988604  0.25932811524744187  1.0000
  C   C38       1.0  0.8413759924100715  0.9706329759502877  0.7406731340110327  1.0000
  S   S1        1.0  0.5162134610752531  0.737507144921075  0.8409861670218605  1.0000
  S   S2        1.0  0.483790085362628  0.2624959094763142  0.15901202896875333  1.0000
  S   S3        1.0  0.3862372379624261  0.3067411814141252  0.5022873492522211  1.0000
  S   S4        1.0  0.6137644969373711  0.6932596385928633  0.4977099317298298  1.0000
  N   N1        1.0  0.22795666752239194  0.7484604283158162  0.5545107527779792  1.0000
  N   N2        1.0  0.772041225887506  0.25153922490630254  0.44548725716461507  1.0000
  O   O1        1.0  0.2415003273933607  0.5282789221022028  0.7475745338550227  1.0000
  O   O2        1.0  0.7585072173206981  0.471721885512629  0.2524264189225036  1.0000
  O   O3        1.0  0.18489502141910918  0.42517371560992245  0.38645949202261687  1.0000
  O   O4        1.0  0.8151033949431081  0.5748237173914886  0.6135380353910166  1.0000
