data_image0
_chemical_formula_structural       Zn2H40C52N4O8
_chemical_formula_sum              "Zn2 H40 C52 N4 O8"
_cell_length_a       10.709541523578142
_cell_length_b       10.729221460309407
_cell_length_c       12.175
_cell_angle_alpha    96.68292774877926
_cell_angle_beta     106.48608947068122
_cell_angle_gamma    105.00785251078544

_space_group_name_H-M_alt    "P 1"
_space_group_IT_number       1

loop_
  _space_group_symop_operation_xyz
  'x, y, z'

loop_
  _atom_site_type_symbol
  _atom_site_label
  _atom_site_symmetry_multiplicity
  _atom_site_fract_x
  _atom_site_fract_y
  _atom_site_fract_z
  _atom_site_occupancy
  Zn  Zn1       1.0  0.8905193184751425  0.8870401069906961  0.5687119037266797  1.0000
  Zn  Zn2       1.0  0.1094771266191472  0.1129567799790507  0.4312886966046747  1.0000
  H   H1        1.0  0.9983373211190382  0.0025997785606222  0.8283641831658528  1.0000
  H   H2        1.0  0.0016658418803316836  0.9974059813734968  0.1716357186694424  1.0000
  H   H3        1.0  0.1804734659232707  0.0038991748984714  0.010757296205937886  1.0000
  H   H4        1.0  0.8195309844989964  0.9961075709205789  0.9892422067544472  1.0000
  H   H5        1.0  0.3136447147641093  0.7514523384416449  0.7944956643626641  1.0000
  H   H6        1.0  0.6863578209498585  0.24855144972261206  0.2055055213816672  1.0000
  H   H7        1.0  0.1246360194086193  0.7597140541557152  0.6233855233655632  1.0000
  H   H8        1.0  0.8753626868887567  0.24028381869895551  0.3766165638809653  1.0000
  H   H9        1.0  0.43853055559251436  0.8140925092441691  0.9938380775799657  1.0000
  H   H10       1.0  0.5614735811870446  0.18591325068994283  0.006161245979697616  1.0000
  H   H11       1.0  0.7841224346839439  0.7932085087702775  0.3005584291178137  1.0000
  H   H12       1.0  0.2158759579707308  0.2067883781994695  0.6994385505965894  1.0000
  H   H13       1.0  0.5969840727111659  0.7952433752659616  0.1276166141372173  1.0000
  H   H14       1.0  0.40301714272781197  0.2047623846681574  0.8723795161179098  1.0000
  H   H15       1.0  0.4781802237153129  0.0455054907177299  0.3574008136970761  1.0000
  H   H16       1.0  0.5218213710705584  0.9544953397917342  0.6425990124898817  1.0000
  H   H17       1.0  0.6721980422927699  0.031311705379359  0.5223086372187922  1.0000
  H   H18       1.0  0.32779878214841324  0.9686802521657328  0.4776915522682118  1.0000
  H   H19       1.0  0.34470060874359376  0.9886463937697272  0.1549118934828044  1.0000
  H   H20       1.0  0.6553057892390655  0.0113603520493157  0.8450864529263242  1.0000
  H   H21       1.0  0.7963132048816773  0.15804622725628553  0.7219308599742291  1.0000
  H   H22       1.0  0.20367667168974182  0.8419575609079715  0.2780688084456315  1.0000
  H   H23       1.0  0.6769475539243218  0.3148857313581531  0.7781622941930308  1.0000
  H   H24       1.0  0.32304549192619453  0.6851249580006142  0.22183148091431806  1.0000
  H   H25       1.0  0.7250906117235232  0.5364821012074331  0.7280344199835085  1.0000
  H   H26       1.0  0.2749128320664482  0.463527602266403  0.27196020688838013  1.0000
  H   H27       1.0  0.8921426583123875  0.6038653644085841  0.6247257456223423  1.0000
  H   H28       1.0  0.10786380537446412  0.3961354661008869  0.37526790376553976  1.0000
  H   H29       1.0  0.01231046322787678  0.4465910850525461  0.5694835537775732  1.0000
  H   H30       1.0  0.9876895961965886  0.5534018583774767  0.43051343757280597  1.0000
  H   H31       1.0  0.4931875285196128  0.6133318315072175  0.5350668614031875  1.0000
  H   H32       1.0  0.5068183735860288  0.38666111192281255  0.4649389806219801  1.0000
  H   H33       1.0  0.3064746549393433  0.44254698506935614  0.5669528527184937  1.0000
  H   H34       1.0  0.6935266590559266  0.5574499019003909  0.43305060572139803  1.0000
  H   H35       1.0  0.30041661565551453  0.4359563443117694  0.7693232326416394  1.0000
  H   H36       1.0  0.6995797965866756  0.5640435003127635  0.23067766281224775  1.0000
  H   H37       1.0  0.4823724075072064  0.5964988322110187  0.9390120787848844  1.0000
  H   H38       1.0  0.5176214298891892  0.4034990406436593  0.0609904357740589  1.0000
  H   H39       1.0  0.6669265831455959  0.7702196439706555  0.9050115252376898  1.0000
  H   H40       1.0  0.3330705549382884  0.22977329945936734  0.0949929504262172  1.0000
  C   C1        1.0  0.07184909317586369  0.949481129037345  0.825984803355709  1.0000
  C   C2        1.0  0.9281563310265992  0.050525616781698104  0.1740149426842804  1.0000
  C   C3        1.0  0.1733343738238204  0.9492602908130082  0.9266120227141315  1.0000
  C   C4        1.0  0.826672651444234  0.05074842677589691  0.07338750385166289  1.0000
  C   C5        1.0  0.26480486707311  0.8776574401111148  0.9184601769750032  1.0000
  C   C6        1.0  0.7352008707720472  0.12235029159285922  0.08153974846570124  1.0000
  C   C7        1.0  0.24638805790805662  0.8087815471258254  0.8066350259186379  1.0000
  C   C8        1.0  0.7536160788715093  0.1912242128082866  0.1933651189962688  1.0000
  C   C9        1.0  0.14148191010498584  0.8131500032510176  0.7106691722171661  1.0000
  C   C10       1.0  0.8585203119662882  0.18685279902830845  0.2893310127712142  1.0000
  C   C11       1.0  0.3760486901304816  0.8717411446457035  0.017427155357424316  1.0000
  C   C12       1.0  0.6239564204292803  0.1282646152884155  0.9825715899266142  1.0000
  C   C13       1.0  0.7134021819627776  0.8472813395304045  0.30933249752872166  1.0000
  C   C14       1.0  0.28659749811480134  0.1527165333242735  0.6906665473764733  1.0000
  C   C15       1.0  0.6081532085079928  0.8493753591218934  0.21299688648173296  1.0000
  C   C16       1.0  0.3918477261403838  0.1506264572725016  0.7870012333158557  1.0000
  C   C17       1.0  0.5190582169978626  0.921405097998509  0.2266544896764486  1.0000
  C   C18       1.0  0.48094497885360704  0.0785977042808099  0.7733451170363068  1.0000
  C   C19       1.0  0.5433232582402923  0.9875895251246833  0.34119612877679373  1.0000
  C   C20       1.0  0.45667770926017676  0.0124093336149258  0.6588033386087346  1.0000
  C   C21       1.0  0.6510795499332929  0.9798996226700539  0.43317552734352927  1.0000
  C   C22       1.0  0.3489182154359867  0.020095292529831003  0.5668243789903826  1.0000
  C   C23       1.0  0.4062784789599263  0.9301213066653561  0.1303427949733589  1.0000
  C   C24       1.0  0.5937256578196397  0.06988445326876301  0.8696565285863116  1.0000
  C   C25       1.0  0.9720309369694391  0.19532845177221256  0.5990831382788855  1.0000
  C   C26       1.0  0.027960011938468185  0.8046664634276723  0.4009175305634542  1.0000
  C   C27       1.0  0.9092963305656028  0.29291429980637673  0.6405406281741436  1.0000
  C   C28       1.0  0.0906975068308  0.7070835730482941  0.359459422319091  1.0000
  C   C29       1.0  0.816049047390507  0.255892348911992  0.700839487602849  1.0000
  C   C30       1.0  0.18394375052150022  0.744111439252265  0.29915926734537374  1.0000
  C   C31       1.0  0.7504546425559868  0.3437879339683931  0.7324587176212064  1.0000
  C   C32       1.0  0.24953972356952647  0.6562207836205118  0.2675368275544088  1.0000
  C   C33       1.0  0.7778174149806887  0.4686689921767737  0.7047271595950092  1.0000
  C   C34       1.0  0.2221834539634955  0.5313387395272002  0.2952666223162268  1.0000
  C   C35       1.0  0.8721430508824497  0.5065920418972497  0.6463693622627816  1.0000
  C   C36       1.0  0.12786115160130862  0.49340780272728324  0.35362772834135114  1.0000
  C   C37       1.0  0.9380563993869373  0.4191174297059916  0.6146914019686065  1.0000
  C   C38       1.0  0.061941333130249625  0.5808804431486793  0.3853063354221291  1.0000
  C   C39       1.0  0.7067081041939715  0.8029490518794731  0.6996776066881836  1.0000
  C   C40       1.0  0.29329453007628814  0.1970458633204117  0.3003292645304398  1.0000
  C   C41       1.0  0.5908703908406778  0.7023404806496814  0.7180552045330657  1.0000
  C   C42       1.0  0.4091338773472728  0.2976534486652724  0.28195115208883686  1.0000
  C   C43       1.0  0.4889499354682414  0.6099443308874584  0.6230899839638652  1.0000
  C   C44       1.0  0.5110543327197022  0.39004959842749554  0.37691226588185606  1.0000
  C   C45       1.0  0.38448059295500764  0.5145836251404816  0.6412649599792886  1.0000
  C   C46       1.0  0.6155194664694578  0.48540931828954115  0.35873695950250106  1.0000
  C   C47       1.0  0.38210661009589586  0.5101333405660995  0.7550077412628725  1.0000
  C   C48       1.0  0.617891122421291  0.4898645322885713  0.24499492425928784  1.0000
  C   C49       1.0  0.48389909185659963  0.6013681178806891  0.8502826918211851  1.0000
  C   C50       1.0  0.5160986735126798  0.39862679731919576  0.14972049993367156  1.0000
  C   C51       1.0  0.5869215369967193  0.698118921379077  0.8317987472914368  1.0000
  C   C52       1.0  0.413079496207942  0.3018740220509528  0.16820587933567316  1.0000
  N   N1        1.0  0.05509414176866301  0.8823640547673222  0.7190439863377166  1.0000
  N   N2        1.0  0.9449071065224073  0.11763874751200382  0.28095595557105196  1.0000
  N   N3        1.0  0.7360214288256798  0.9111666829996281  0.4183995963290953  1.0000
  N   N4        1.0  0.2639760229008985  0.0888272463153328  0.5815993092488725  1.0000
  O   O1        1.0  0.9473758800239053  0.0849458173456057  0.6298185672582051  1.0000
  O   O2        1.0  0.05260793877992852  0.9150481119693553  0.3701818633366186  1.0000
  O   O3        1.0  0.04638136122292741  0.22973189229230684  0.5351192705995729  1.0000
  O   O4        1.0  0.9536128555203688  0.7702610511377231  0.46488365447025615  1.0000
  O   O5        1.0  0.738452420365597  0.7670874875477907  0.608742048484082  1.0000
  O   O6        1.0  0.2615453121515828  0.23291038530688724  0.3912606170380784  1.0000
  O   O7        1.0  0.7637961912882928  0.9113461140568972  0.7711393556677137  1.0000
  O   O8        1.0  0.2362058156965645  0.08864682937312551  0.228869620815189  1.0000
