data_image0
_chemical_formula_structural       Co2H40C44N4O16
_chemical_formula_sum              "Co2 H40 C44 N4 O16"
_cell_length_a       9.13146002180557
_cell_length_b       9.767245254088872
_cell_length_c       11.348069573160272
_cell_angle_alpha    90.00510677873483
_cell_angle_beta     89.99427685350084
_cell_angle_gamma    98.47983150739766

_space_group_name_H-M_alt    "P 1"
_space_group_IT_number       1

loop_
  _space_group_symop_operation_xyz
  'x, y, z'

loop_
  _atom_site_type_symbol
  _atom_site_label
  _atom_site_symmetry_multiplicity
  _atom_site_fract_x
  _atom_site_fract_y
  _atom_site_fract_z
  _atom_site_occupancy
  Co  Co1       1.0  0.9999996393974869  0.9999998417950381  0.9999999440517798  1.0000
  Co  Co2       1.0  0.5000013891609286  0.999998039846247  0.4999984433486944  1.0000
  H   H1        1.0  0.3226856267952769  0.11710750231378601  0.9229211770006387  1.0000
  H   H2        1.0  0.8226815131794893  0.11710361848960099  0.5770880660758453  1.0000
  H   H3        1.0  0.6773127615823996  0.8828912962119658  0.0770796482685796  1.0000
  H   H4        1.0  0.17731781702194374  0.882894153077238  0.4229118779089519  1.0000
  H   H5        1.0  0.4607968657563788  0.1861965959163712  0.7526655269848916  1.0000
  H   H6        1.0  0.9607980147881181  0.18618518919598875  0.7473308573992199  1.0000
  H   H7        1.0  0.5392040247094202  0.8138042891090151  0.24733265464229257  1.0000
  H   H8        1.0  0.0392055464053769  0.8138115799553702  0.25266732396267605  1.0000
  H   H9        1.0  0.6411657558542103  0.36344354098505954  0.6550290825723979  1.0000
  H   H10       1.0  0.14116731938632654  0.36344665727979486  0.8449687182924706  1.0000
  H   H11       1.0  0.35883607628980496  0.6365563171982205  0.344970861391822  1.0000
  H   H12       1.0  0.8588360871606326  0.6365490767963992  0.1550303442430874  1.0000
  H   H13       1.0  0.7860938791324584  0.5536440576523347  0.773300004841481  1.0000
  H   H14       1.0  0.2860852579312906  0.5536499907236703  0.7267033748943134  1.0000
  H   H15       1.0  0.21390670199174616  0.4463547572616661  0.22670082034018443  1.0000
  H   H16       1.0  0.7139167288592675  0.44635090253477466  0.27329568789624403  1.0000
  H   H17       1.0  0.7512490511379042  0.5581888136494226  0.9903737432600367  1.0000
  H   H18       1.0  0.2512511316864732  0.558197178940155  0.5096371935948769  1.0000
  H   H19       1.0  0.24874918264174542  0.4418089497622263  0.009627081975693803  1.0000
  H   H20       1.0  0.7487507004575422  0.44180267924312494  0.49036275036935006  1.0000
  H   H21       1.0  0.5785952757830941  0.374977709474976  0.09003462306517213  1.0000
  H   H22       1.0  0.07859815822666151  0.3749773275983373  0.4099769866717012  1.0000
  H   H23       1.0  0.42140295809358713  0.6250200538588047  0.9099644397562586  1.0000
  H   H24       1.0  0.9214050795351767  0.6250246089683245  0.5900220761085677  1.0000
  H   H25       1.0  0.08820466909821081  0.2160787097887322  0.1248902994924634  1.0000
  H   H26       1.0  0.5882055676844473  0.21606111961963143  0.3750880783457405  1.0000
  H   H27       1.0  0.9117948156527335  0.7839200969311407  0.8751105257329784  1.0000
  H   H28       1.0  0.4117951680863001  0.7839387303695275  0.6249118656622558  1.0000
  H   H29       1.0  0.9817836284759025  0.4040246054241337  0.05526911816414781  1.0000
  H   H30       1.0  0.48178677438575335  0.404018019974167  0.44472638856905894  1.0000
  H   H31       1.0  0.018217107294844888  0.5959752445650253  0.9447308258438555  1.0000
  H   H32       1.0  0.5182117687354975  0.5959818135488747  0.5552717931121977  1.0000
  H   H33       1.0  0.845572296813117  0.25737184360141896  0.08753613283091252  1.0000
  H   H34       1.0  0.3455724165764878  0.25736235815248426  0.41247229710489114  1.0000
  H   H35       1.0  0.1544262462111021  0.7426279899994911  0.9124638112646437  1.0000
  H   H36       1.0  0.6544270682229724  0.742636448528458  0.5875276469134009  1.0000
  H   H37       1.0  0.9013087662489456  0.29352793979983727  0.9390043281864565  1.0000
  H   H38       1.0  0.40130063693934664  0.2935470138525105  0.5609971461976287  1.0000
  H   H39       1.0  0.09869102769805238  0.7064729371482343  0.06099649710596111  1.0000
  H   H40       1.0  0.5986990025066491  0.7064528279035898  0.4390019166470013  1.0000
  C   C1        1.0  0.2805278415931057  0.0226955211881759  0.14752217030003587  1.0000
  C   C2        1.0  0.7805360377705598  0.022700782836111003  0.3524752499491441  1.0000
  C   C3        1.0  0.7194738214747218  0.977310539719184  0.8524830611518085  1.0000
  C   C4        1.0  0.2194626599487108  0.9773000858010332  0.6475229317656003  1.0000
  C   C5        1.0  0.36502434217435115  0.0367848112459868  0.2582993878703164  1.0000
  C   C6        1.0  0.8650252966245588  0.03678944339162629  0.2416852674182053  1.0000
  C   C7        1.0  0.6349737228201918  0.9632191546561372  0.7417014376101322  1.0000
  C   C8        1.0  0.1349768448610433  0.963212484903039  0.7583120329915404  1.0000
  C   C9        1.0  0.4798595320818538  0.1394099348450908  0.20032673151955294  1.0000
  C   C10       1.0  0.9798614688153653  0.13941767708831074  0.29965744159499513  1.0000
  C   C11       1.0  0.5201383783146624  0.860592995942923  0.7996740939274078  1.0000
  C   C12       1.0  0.020140039994025496  0.8605873484323965  0.7003416213733049  1.0000
  C   C13       1.0  0.39498143507733363  0.12022865646317633  0.0897326250559658  1.0000
  C   C14       1.0  0.8949882858899161  0.12023596089844088  0.41027276518336464  1.0000
  C   C15       1.0  0.6050164751251331  0.8797742744805817  0.9102717252196015  1.0000
  C   C16       1.0  0.10501166270361752  0.8797659511247888  0.589727178935398  1.0000
  C   C17       1.0  0.5264831463563694  0.2666955115027533  0.8049955784055456  1.0000
  C   C18       1.0  0.0264875874047235  0.2666894095697856  0.695007548893237  1.0000
  C   C19       1.0  0.4735174348648671  0.733303303333372  0.1950034843618198  1.0000
  C   C20       1.0  0.9735151865145327  0.7333094216935195  0.304992394993711  1.0000
  C   C21       1.0  0.6271717781481173  0.3679546521637748  0.7502037151923632  1.0000
  C   C22       1.0  0.12716783898422082  0.3679523405795067  0.7497982010044453  1.0000
  C   C23       1.0  0.37282864837806784  0.6320431276361234  0.2497971099558072  1.0000
  C   C24       1.0  0.8728349348865195  0.6320464907227362  0.2502026240896599  1.0000
  C   C25       1.0  0.7093888883558536  0.4729471029775993  0.8163205271708663  1.0000
  C   C26       1.0  0.2093831205854286  0.47295128808870873  0.6836801875270879  1.0000
  C   C27       1.0  0.29061169276835125  0.5270517119363944  0.18368029801079902  1.0000
  C   C28       1.0  0.7906194987358007  0.5270465080605008  0.31631975632637227  1.0000
  C   C29       1.0  0.6907411588722923  0.4744892274711248  0.9384786771314069  1.0000
  C   C30       1.0  0.1907423890506479  0.4744980790858405  0.5615298241583204  1.0000
  C   C31       1.0  0.30925582398458573  0.5255074925933698  0.06152126690746941  1.0000
  C   C32       1.0  0.8092594430448515  0.5255017791363772  0.4384710010130561  1.0000
  C   C33       1.0  0.5929077952451465  0.37240365890063026  0.9950275208634454  1.0000
  C   C34       1.0  0.09290586228686952  0.3724033074571764  0.5049836611321867  1.0000
  C   C35       1.0  0.40708824583649067  0.6275940880838391  0.004972423252695501  1.0000
  C   C36       1.0  0.9070950280819048  0.6275975776460854  0.4950162829093048  1.0000
  C   C37       1.0  0.5104672940505779  0.2680195293046382  0.9279061650558946  1.0000
  C   C38       1.0  0.010465181690605603  0.2680220611111964  0.5721001150675991  1.0000
  C   C39       1.0  0.4895320361508554  0.7319782422622013  0.07209377892890251  1.0000
  C   C40       1.0  0.9895355540316332  0.7319777889169005  0.4279007101475545  1.0000
  C   C41       1.0  0.9395154231064994  0.2967983293577277  0.030310037299152312  1.0000
  C   C42       1.0  0.4395223845495337  0.29680123658008034  0.46969209886300695  1.0000
  C   C43       1.0  0.06048311991771977  0.7032015042431893  0.9696899067964112  1.0000
  C   C44       1.0  0.5604760039736832  0.7031975618288655  0.5303060827847617  1.0000
  N   N1        1.0  0.40501291477656315  0.1642606743518016  0.9788331494983283  1.0000
  N   N2        1.0  0.9050216764363487  0.1642601712349574  0.5211695639098792  1.0000
  N   N3        1.0  0.5949845318258796  0.8357391510939254  0.021167675848161604  1.0000
  N   N4        1.0  0.0949781176561899  0.835740705596301  0.4788286177610886  1.0000
  O   O1        1.0  0.1571006979485006  0.9572117018849013  0.11801434388387123  1.0000
  O   O2        1.0  0.6571110005436509  0.9572041019387783  0.3819871528737195  1.0000
  O   O3        1.0  0.8428939230371456  0.04279120455436921  0.8819917689373329  1.0000
  O   O4        1.0  0.3428911411360076  0.04279782620015031  0.6180066227074194  1.0000
  O   O5        1.0  0.3435339770084411  0.9844162293786809  0.3598225865421583  1.0000
  O   O6        1.0  0.8435255593736033  0.9844282799001717  0.1401651218332916  1.0000
  O   O7        1.0  0.6564686422157635  0.0155815668483967  0.6401791197256088  1.0000
  O   O8        1.0  0.15647485306251951  0.015576737426414399  0.859833941178785  1.0000
  O   O9        1.0  0.5961791899422552  0.213765255829756  0.23374468674096258  1.0000
  O   O10       1.0  0.09617436756020234  0.2137706082446301  0.2662311108745143  1.0000
  O   O11       1.0  0.4038262405661186  0.7862366971251545  0.7662543759517533  1.0000
  O   O12       1.0  0.9038273099372774  0.7862282148634918  0.7337697142633671  1.0000
  O   O13       1.0  0.057183262788228696  0.21321884293750057  0.0389948894739902  1.0000
  O   O14       1.0  0.5571792293253921  0.21321714901511513  0.4609892898062924  1.0000
  O   O15       1.0  0.9428154348340173  0.7867820257775122  0.9610050546550543  1.0000
  O   O16       1.0  0.44281915914931597  0.7867816494327685  0.5390097730486261  1.0000
