data_image0
_chemical_formula_structural       Zn16H32C96S16O60
_chemical_formula_sum              "Zn16 H32 C96 S16 O60"
_cell_length_a       19.65156148344693
_cell_length_b       19.6908787189074
_cell_length_c       33.32901242993566
_cell_angle_alpha    79.20894271301034
_cell_angle_beta     79.32385011725522
_cell_angle_gamma    64.03915389554483

_space_group_name_H-M_alt    "P 1"
_space_group_IT_number       1

loop_
  _space_group_symop_operation_xyz
  'x, y, z'

loop_
  _atom_site_type_symbol
  _atom_site_label
  _atom_site_symmetry_multiplicity
  _atom_site_fract_x
  _atom_site_fract_y
  _atom_site_fract_z
  _atom_site_occupancy
  Zn  Zn1       1.0  0.05683248119603229  0.40054821742658214  0.47861933785429767  1.0000
  Zn  Zn2       1.0  0.9839397107731853  0.48348111484909895  0.5601651265629783  1.0000
  Zn  Zn3       1.0  0.0585542318329217  0.5620587066583128  0.4829192535223967  1.0000
  Zn  Zn4       1.0  0.9001691591938865  0.5545104010088409  0.4792109667357067  1.0000
  Zn  Zn5       1.0  0.6947874906648864  0.3496819454059975  0.27101577549083794  1.0000
  Zn  Zn6       1.0  0.6896022820399421  0.1900790085047533  0.2668772429145889  1.0000
  Zn  Zn7       1.0  0.7689725874114685  0.2652994206994919  0.1895953880439478  1.0000
  Zn  Zn8       1.0  0.848244757405851  0.19506382243880444  0.2723340210928811  1.0000
  Zn  Zn9       1.0  0.26640769090727895  0.766882132479772  0.6897585376643462  1.0000
  Zn  Zn10      1.0  0.348760498961262  0.6954889290731785  0.7715846481413067  1.0000
  Zn  Zn11      1.0  0.193142064985409  0.8483867855952807  0.7721607519242397  1.0000
  Zn  Zn12      1.0  0.1913338064310324  0.6877787894980829  0.7670048616158525  1.0000
  Zn  Zn13      1.0  0.5604298299823399  0.06011669043638792  0.9832780803911092  1.0000
  Zn  Zn14      1.0  0.40120103090244186  0.05507632120836808  0.9781760817527925  1.0000
  Zn  Zn15      1.0  0.5551136610844055  0.9013597936751127  0.9782715335977342  1.0000
  Zn  Zn16      1.0  0.48351162922922697  0.9830658591012378  0.06034422886477132  1.0000
  H   H1        1.0  0.7965315252490227  0.5019546463612561  0.39923657864129314  1.0000
  H   H2        1.0  0.9536919264831168  0.2481946840664477  0.3509051340929971  1.0000
  H   H3        1.0  0.7478055514097689  0.45431209382196885  0.35099319389817646  1.0000
  H   H4        1.0  0.0023927368391554  0.29592582366453973  0.3991097747365515  1.0000
  H   H5        1.0  0.15259167288287756  0.6526593562736805  0.549213069561212  1.0000
  H   H6        1.0  0.09770735025760759  0.5976254808654319  0.7006708403440668  1.0000
  H   H7        1.0  0.20087280783835126  0.7008113958051968  0.5975112511594814  1.0000
  H   H8        1.0  0.049474723788343083  0.5495243903210606  0.6523142098287025  1.0000
  H   H9        1.0  0.4623812105173002  0.24069782011442703  0.341262504257223  1.0000
  H   H10       1.0  0.47991339883074596  0.7023610955011604  0.6012378018054036  1.0000
  H   H11       1.0  0.20216666115408088  0.9801126309222282  0.6015422596701612  1.0000
  H   H12       1.0  0.948695355411516  0.9695174297243767  0.348214037949873  1.0000
  H   H13       1.0  0.7006811839842727  0.20064783138681724  0.0976630202254896  1.0000
  H   H14       1.0  0.5492921654072234  0.04934394841593103  0.1524932352038846  1.0000
  H   H15       1.0  0.6524706497209323  0.1525697721208204  0.04935192296659353  1.0000
  H   H16       1.0  0.597490211855053  0.09749105185402143  0.20076039094730191  1.0000
  H   H17       1.0  0.5479938214284417  0.7693981055658202  0.14862242497393646  1.0000
  H   H18       1.0  0.1621676724008623  0.14153212597925346  0.04068893243762519  1.0000
  H   H19       1.0  0.24751945931883768  0.9542180352839368  0.8508514564628271  1.0000
  H   H20       1.0  0.5020378427833379  0.79612156916037  0.8991118187731857  1.0000
  H   H21       1.0  0.2960004011710424  0.002146908869150394  0.8990777351011514  1.0000
  H   H22       1.0  0.4535045493191703  0.748304704271341  0.8508644767527543  1.0000
  H   H23       1.0  0.3009292464165654  0.28054256391708793  0.9018022935150967  1.0000
  H   H24       1.0  0.7876809664959055  0.009357686162097518  0.9087478500919274  1.0000
  H   H25       1.0  0.32585679604547824  0.5427534333495887  0.3981925338148287  1.0000
  H   H26       1.0  0.7564943832334946  0.5396699697223969  0.6844548027194435  1.0000
  H   H27       1.0  0.03986966549506829  0.2564621725548831  0.6842156277590589  1.0000
  H   H28       1.0  0.7428420208990332  0.815798032560693  0.38807193176122456  1.0000
  H   H29       1.0  0.7105239856796073  0.4933276906039554  0.0655545043018648  1.0000
  H   H30       1.0  0.148389950083029  0.07577251477421494  0.2207292434297514  1.0000
  H   H31       1.0  0.5071351542469529  0.433996519911915  0.8620468182473289  1.0000
  H   H32       1.0  0.924182739522621  0.7071075310918932  0.8517826893817356  1.0000
  C   C1        1.0  0.061249923648524905  0.31652800944221576  0.562228300212837  1.0000
  C   C2        1.0  0.0693311497510862  0.5700294596813721  0.5693290609915351  1.0000
  C   C3        1.0  0.1839649957494984  0.44080751192012  0.4387560803911938  1.0000
  C   C4        1.0  0.93608804711657  0.684215693678844  0.4387291040985631  1.0000
  C   C5        1.0  0.9309652466372356  0.4300872141867347  0.43091362505890624  1.0000
  C   C6        1.0  0.8165877274048441  0.5606429979283336  0.5625062589642695  1.0000
  C   C7        1.0  0.5658846267642729  0.31114424626770204  0.31125904403671  1.0000
  C   C8        1.0  0.6809357070158341  0.18011156786999297  0.18071431488375106  1.0000
  C   C9        1.0  0.6896419317149591  0.43290509639238933  0.18751034852972737  1.0000
  C   C10       1.0  0.9355935675251034  0.18714980948855953  0.1896923795673828  1.0000
  C   C11       1.0  0.8189294103913554  0.31990950249107186  0.3195893620198049  1.0000
  C   C12       1.0  0.8112591319793977  0.06596161123413692  0.311536198742516  1.0000
  C   C13       1.0  0.43370098574892063  0.6893574774925784  0.6883055446437325  1.0000
  C   C14       1.0  0.3189721667553087  0.8199887766505044  0.8193052301448347  1.0000
  C   C15       1.0  0.1888111076589425  0.933777858295251  0.6886012794786041  1.0000
  C   C16       1.0  0.06582611702962989  0.8091938500192627  0.8113992479636423  1.0000
  C   C17       1.0  0.18108480729323867  0.6802515375154882  0.6804844683587774  1.0000
  C   C18       1.0  0.3139624982646366  0.5655437340896088  0.8114503617816026  1.0000
  C   C19       1.0  0.4382189722634989  0.18391885949462525  0.9386340094129507  1.0000
  C   C20       1.0  0.4305556885322446  0.9304925916335025  0.9305312397988813  1.0000
  C   C21       1.0  0.6840459905282401  0.9390373693131268  0.9386547581406646  1.0000
  C   C22       1.0  0.5612920983053016  0.8160412194199937  0.06159107125179731  1.0000
  C   C23       1.0  0.5695597214230472  0.06945999432683453  0.06945466816202382  1.0000
  C   C24       1.0  0.3158449459761883  0.061500843077276136  0.061141244366901  1.0000
  C   C25       1.0  0.9022469962611552  0.4016689544793552  0.40195186515477843  1.0000
  C   C26       1.0  0.8479485573537247  0.3485272856648864  0.3481673656536585  1.0000
  C   C27       1.0  0.8304501242134917  0.4465176918848145  0.38843163057975966  1.0000
  C   C28       1.0  0.9197996297449861  0.3036903381106415  0.3616450829968443  1.0000
  C   C29       1.0  0.8034653005103393  0.4201340435154395  0.3616944784672853  1.0000
  C   C30       1.0  0.9467764871500602  0.3301255008026875  0.388360108937448  1.0000
  C   C31       1.0  0.0983107627260509  0.5984813091718948  0.5980679180987281  1.0000
  C   C32       1.0  0.1520947213662822  0.6518748781687764  0.6518151027056971  1.0000
  C   C33       1.0  0.1409652244082125  0.6410492583963007  0.5824198663140193  1.0000
  C   C34       1.0  0.10939695436640308  0.609301158208197  0.6674717422351364  1.0000
  C   C35       1.0  0.16770152841115046  0.6676424105809888  0.6091559732506296  1.0000
  C   C36       1.0  0.08266919987978841  0.582714288860231  0.6407310337608435  1.0000
  C   C37       1.0  0.3044640012828026  0.4560992575348309  0.4010312205353443  1.0000
  C   C38       1.0  0.44572075215449297  0.29747391166206705  0.34906379161432705  1.0000
  C   C39       1.0  0.2584524993708897  0.4166636664499279  0.4139454161964196  1.0000
  C   C40       1.0  0.4911693053569053  0.3366755513333004  0.3363093583760631  1.0000
  C   C41       1.0  0.37772032234780545  0.3406802103997394  0.3726271504354415  1.0000
  C   C42       1.0  0.3726901080069851  0.4123283841531349  0.3773721176425155  1.0000
  C   C43       1.0  0.726627381131351  0.5754390983644697  0.6303729232160507  1.0000
  C   C44       1.0  0.5244974060685054  0.6734304856373753  0.621395527905463  1.0000
  C   C45       1.0  0.7425799628276976  0.5851473413578603  0.5876318740165374  1.0000
  C   C46       1.0  0.5087490236204744  0.6638279306015349  0.663726591096264  1.0000
  C   C47       1.0  0.6037293606910906  0.6413119854223979  0.609126103911791  1.0000
  C   C48       1.0  0.6469318483247406  0.6077437872158314  0.6425379625525309  1.0000
  C   C49       1.0  0.07553542793307598  0.22652368895526828  0.6301934672963228  1.0000
  C   C50       1.0  0.1733214618663439  0.024639835665034648  0.6216123888611804  1.0000
  C   C51       1.0  0.0853277274733273  0.24249370829004147  0.5874239637142865  1.0000
  C   C52       1.0  0.16367293410525718  0.008858610142183906  0.6639634067392278  1.0000
  C   C53       1.0  0.1413178294634463  0.10375788897025728  0.6091972997431157  1.0000
  C   C54       1.0  0.10774987456566981  0.1469258301415266  0.6425055280115259  1.0000
  C   C55       1.0  0.8418948767546297  0.8006229122901947  0.39714832142514206  1.0000
  C   C56       1.0  0.9041006489343743  0.9493718764075824  0.3526253400984488  1.0000
  C   C57       1.0  0.9108204666597358  0.7583683479350685  0.4136787075017878  1.0000
  C   C58       1.0  0.835692730195767  0.9910954797989578  0.3363319840312541  1.0000
  C   C59       1.0  0.9066600200251641  0.8799479497349838  0.37476328956754656  1.0000
  C   C60       1.0  0.8398021769110073  0.8702086043674554  0.37488229727155453  1.0000
  C   C61       1.0  0.651860411525888  0.15172769945679246  0.15194568850625956  1.0000
  C   C62       1.0  0.5981205113242468  0.09820703897268869  0.09815712370586029  1.0000
  C   C63       1.0  0.6674734832490757  0.1674889860728541  0.10928926170615938  1.0000
  C   C64       1.0  0.5824372584179401  0.08254360074471381  0.1408306071537737  1.0000
  C   C65       1.0  0.6407480332076999  0.14088155200077093  0.08254453242939519  1.0000
  C   C66       1.0  0.6091433491447447  0.10918348564540285  0.1675604027754858  1.0000
  C   C67       1.0  0.6746976269911612  0.5231733600861688  0.11959500864195857  1.0000
  C   C68       1.0  0.5768374666345012  0.7249588790899748  0.1284950627844665  1.0000
  C   C69       1.0  0.6650052406340236  0.5069722212946034  0.1623460924525304  1.0000
  C   C70       1.0  0.5864601631468174  0.7409486511876157  0.08615633496249592  1.0000
  C   C71       1.0  0.6088522498812523  0.6457858694730162  0.14078588796393635  1.0000
  C   C72       1.0  0.6424037258504143  0.6028175765221492  0.1073884930339447  1.0000
  C   C73       1.0  0.08237490929029428  0.12335634080396575  0.17861650824071518  1.0000
  C   C74       1.0  0.17010433162919716  0.12482518756985432  0.0730634782486703  1.0000
  C   C75       1.0  0.0102715036724774  0.16237389634181912  0.1652275869630344  1.0000
  C   C76       1.0  0.24147967016041597  0.08608565072261605  0.08639804343041389  1.0000
  C   C77       1.0  0.1120184497196632  0.13852962233085012  0.1065203712478677  1.0000
  C   C78       1.0  0.1404949862236862  0.10981646679847054  0.1448425636353932  1.0000
  C   C79       1.0  0.34782003406624534  0.8486339728553743  0.8480472233520686  1.0000
  C   C80       1.0  0.4018113343653695  0.9019388430528114  0.9018249026564007  1.0000
  C   C81       1.0  0.3031693426228372  0.9201849439544106  0.8615807032500413  1.0000
  C   C82       1.0  0.4464392136495619  0.8302937494271131  0.8883373810325709  1.0000
  C   C83       1.0  0.33001111469302913  0.9467078821459437  0.8883025619557756  1.0000
  C   C84       1.0  0.4195940468964707  0.8038152802860384  0.8615894667453645  1.0000
  C   C85       1.0  0.4081440951588036  0.4490347853909996  0.8528972923164914  1.0000
  C   C86       1.0  0.3456179631996861  0.3005386031551964  0.8974339750368613  1.0000
  C   C87       1.0  0.33921282565253813  0.49130109332757155  0.8363554438157124  1.0000
  C   C88       1.0  0.41397350129803107  0.25868781222924764  0.9137626526546043  1.0000
  C   C89       1.0  0.34325137007790113  0.36983766245019467  0.8752314929869414  1.0000
  C   C90       1.0  0.410186732092953  0.3794360190366178  0.8751404184635446  1.0000
  C   C91       1.0  0.9453400409580864  0.7939028853381275  0.8490002650072128  1.0000
  C   C92       1.0  0.8042148645780074  0.9526115058043846  0.9009403061504173  1.0000
  C   C93       1.0  0.9912888654107306  0.8333899813074976  0.8360764350598373  1.0000
  C   C94       1.0  0.7587520061190174  0.9134539730378037  0.9137074028016982  1.0000
  C   C95       1.0  0.8721350339256163  0.9093503510123784  0.8773726286430942  1.0000
  C   C96       1.0  0.877118474874969  0.8376909742539739  0.8726603142916715  1.0000
  S   S1        1.0  0.2988187010822614  0.3267812376290706  0.39719364840475174  1.0000
  S   S2        1.0  0.4516096693585752  0.4264831197789862  0.352839886188292  1.0000
  S   S3        1.0  0.6606364540542701  0.6333516025997028  0.5627256495194999  1.0000
  S   S4        1.0  0.5900558984243248  0.6156191439219331  0.6890501910614474  1.0000
  S   S5        1.0  0.1334721721114391  0.16060720907486112  0.562715033862915  1.0000
  S   S6        1.0  0.1155012754504909  0.09009904004821581  0.6890984142672067  1.0000
  S   S7        1.0  0.9723019228806749  0.8037266482194667  0.4019396645975704  1.0000
  S   S8        1.0  0.7738434741443071  0.9464019754535828  0.3477580556924024  1.0000
  S   S9        1.0  0.6167506572111704  0.5887228864622287  0.1871932118553303  1.0000
  S   S10       1.0  0.6345824541358525  0.6598728550972268  0.060879486823836294  1.0000
  S   S11       1.0  0.0139456997143554  0.1822260439397638  0.11177670939255079  1.0000
  S   S12       1.0  0.23867014981745877  0.06591792382821644  0.1397099147805321  1.0000
  S   S13       1.0  0.2776550224201699  0.4460642279254969  0.8480592446880094  1.0000
  S   S14       1.0  0.4760166574906535  0.3031766969010761  0.9023081722788929  1.0000
  S   S15       1.0  0.9510075842606437  0.9232551951538361  0.8528131247963344  1.0000
  S   S16       1.0  0.798205054000327  0.8236120172740017  0.8972202794062554  1.0000
  O   O1        1.0  0.0002527658022160003  0.49973230585160877  0.4998187896414236  1.0000
  O   O2        1.0  0.07796016302998508  0.3152266821714989  0.5231587844191452  1.0000
  O   O3        1.0  0.031468518152834704  0.5312273169428892  0.5857601707461129  1.0000
  O   O4        1.0  0.15534421001427032  0.5069626526809116  0.4502723516118152  1.0000
  O   O5        1.0  0.026145262595761703  0.37530662532527265  0.5811370281890547  1.0000
  O   O6        1.0  0.1543321711594103  0.39241728629203726  0.4466085353325581  1.0000
  O   O7        1.0  0.0847245781384061  0.586964050812796  0.5308999543751439  1.0000
  O   O8        1.0  0.0029445022480701004  0.6583600614301802  0.4499528118681226  1.0000
  O   O9        1.0  0.8868418869479627  0.4952557258759643  0.4422974664315332  1.0000
  O   O10       1.0  0.8902498017799303  0.6521593995648728  0.44720212839828116  1.0000
  O   O11       1.0  0.9969248103056004  0.3868569780905348  0.44182289603035224  1.0000
  O   O12       1.0  0.8756897689493002  0.5258927715062217  0.5813526217790965  1.0000
  O   O13       1.0  0.814857411544267  0.5766982883175943  0.5234310282577681  1.0000
  O   O14       1.0  0.7497532898131138  0.25021045725176116  0.25001040771289235  1.0000
  O   O15       1.0  0.5968405066666663  0.3581603898293793  0.302967170211204  1.0000
  O   O16       1.0  0.6640187819919136  0.16432350643093238  0.2191376056164884  1.0000
  O   O17       1.0  0.7255301032088253  0.37389563978314305  0.16880511842347093  1.0000
  O   O18       1.0  0.5928329909504056  0.24470423898539234  0.3001136043308321  1.0000
  O   O19       1.0  0.6725469884857347  0.43454260351830964  0.22655395166774636  1.0000
  O   O20       1.0  0.7201808560832886  0.2175989385205527  0.16447454761146932  1.0000
  O   O21       1.0  0.8778806370204607  0.22233593601454527  0.16926515230127137  1.0000
  O   O22       1.0  0.8621056573520463  0.2538666028188319  0.3089530951554948  1.0000
  O   O23       1.0  0.934112562315967  0.171863901712115  0.22867621777918148  1.0000
  O   O24       1.0  0.7534475939680619  0.36355461771905345  0.30810004162321997  1.0000
  O   O25       1.0  0.7446634449802046  0.09336048565698743  0.3000070475013601  1.0000
  O   O26       1.0  0.8583163652246952  0.09660481383135543  0.3038120473424684  1.0000
  O   O27       1.0  0.24973153682669388  0.7502840226720477  0.7500410815333609  1.0000
  O   O28       1.0  0.3755377319716758  0.7248355212334944  0.6686680756135529  1.0000
  O   O29       1.0  0.36298425735726886  0.7546838938787774  0.8080558576543452  1.0000
  O   O30       1.0  0.1722969377968582  0.9336716424271074  0.7276224646047709  1.0000
  O   O31       1.0  0.4340146561757122  0.6734357515187669  0.727342389334467  1.0000
  O   O32       1.0  0.22456104081381056  0.875934142373467  0.6688998057084206  1.0000
  O   O33       1.0  0.25296473814199066  0.8630856735370714  0.8084515638699656  1.0000
  O   O34       1.0  0.09535260645549928  0.8577185043468349  0.803668492949491  1.0000
  O   O35       1.0  0.1657300399900876  0.6633155955396433  0.7189458642690241  1.0000
  O   O36       1.0  0.09479380004384548  0.7430335946596504  0.7998830906163761  1.0000
  O   O37       1.0  0.21902909478420443  0.7191955801975993  0.66416391216287  1.0000
  O   O38       1.0  0.35986524278782633  0.5975754107670072  0.803177689239206  1.0000
  O   O39       1.0  0.24715084400514803  0.5916987177440732  0.8001551420056002  1.0000
  O   O40       1.0  0.5000358750036611  0.9999452929968132  0.9999955352267024  1.0000
  O   O41       1.0  0.5050216842350396  0.15626399401725177  0.9498928709302277  1.0000
  O   O42       1.0  0.3870979105504446  0.9961310847302588  0.9416253839023341  1.0000
  O   O43       1.0  0.6532305282770707  0.8918676163406689  0.9468731479064871  1.0000
  O   O44       1.0  0.39085769214077704  0.1535592030316409  0.9467010189626706  1.0000
  O   O45       1.0  0.6568596549833714  0.005471929080258233  0.9497890402313728  1.0000
  O   O46       1.0  0.4963303591251459  0.8869792123856544  0.9416909205917037  1.0000
  O   O47       1.0  0.577656546276593  0.8160740521813568  0.022558550398244417  1.0000
  O   O48       1.0  0.5311932588672192  0.030932885849466636  0.0856662854415831  1.0000
  O   O49       1.0  0.5256430777395521  0.8740040951873527  0.08120966255343381  1.0000
  O   O50       1.0  0.5857985871775641  0.08566899216281602  0.030977456058003807  1.0000
  O   O51       1.0  0.31535096264418877  0.07811620869950528  0.02224368496400329  1.0000
  O   O52       1.0  0.374357965161721  0.025525744351163834  0.08069679978542148  1.0000
  O   O53       1.0  0.2852720742964721  0.5268934972588398  0.4103460006496391  1.0000
  O   O54       1.0  0.7811163253667032  0.5396429506616801  0.6562609200452274  1.0000
  O   O55       1.0  0.0397938272749769  0.2809382332859514  0.6559675688260711  1.0000
  O   O56       1.0  0.7851808796155452  0.7770693169517673  0.40213842829822244  1.0000
  O   O57       1.0  0.7104517623627586  0.4688338565178969  0.09379252468621499  1.0000
  O   O58       1.0  0.09382535067373249  0.10181819750632573  0.2187899756288942  1.0000
  O   O59       1.0  0.46484438565833136  0.4726250732735764  0.8479097862400805  1.0000
  O   O60       1.0  0.9647347157403131  0.7230611144572238  0.8397174145284011  1.0000
