data_image0
_chemical_formula_structural       Ag6H58C36N16O14
_chemical_formula_sum              "Ag6 H58 C36 N16 O14"
_cell_length_a       11.29739041700031
_cell_length_b       11.664059567454728
_cell_length_c       11.819418441378707
_cell_angle_alpha    119.56584653823148
_cell_angle_beta     89.99998076801323
_cell_angle_gamma    90.0000258119783

_space_group_name_H-M_alt    "P 1"
_space_group_IT_number       1

loop_
  _space_group_symop_operation_xyz
  'x, y, z'

loop_
  _atom_site_type_symbol
  _atom_site_label
  _atom_site_symmetry_multiplicity
  _atom_site_fract_x
  _atom_site_fract_y
  _atom_site_fract_z
  _atom_site_occupancy
  Ag  Ag1       1.0  0.5329973744213418  0.1645922096302144  0.5029105754126846  1.0000
  Ag  Ag2       1.0  0.03299799264822669  0.8354077290412287  0.49709028911851033  1.0000
  Ag  Ag3       1.0  0.5329983763296297  0.661680825891409  0.4970901036523329  1.0000
  Ag  Ag4       1.0  0.0329978759002572  0.3383191105654005  0.5029099137371559  1.0000
  Ag  Ag5       1.0  0.69189079969086  0.18632682109155493  7.705617832863029e-07  1.0000
  Ag  Ag6       1.0  0.19189123027000224  0.8136721899370227  0.9999995934531042  1.0000
  H   H1        1.0  0.8458890738024961  0.09989404790481161  0.5749749236746808  1.0000
  H   H2        1.0  0.3458888624313373  0.9001060028345118  0.42502504949970876  1.0000
  H   H3        1.0  0.8458891992138432  0.5249217462856066  0.4250260196701205  1.0000
  H   H4        1.0  0.34588785185982107  0.4750783044535538  0.5749739535043261  1.0000
  H   H5        1.0  0.797939284156193  0.94677596307951  0.43522906074259277  1.0000
  H   H6        1.0  0.29793951431129523  0.0532240701463635  0.5647709192076178  1.0000
  H   H7        1.0  0.7979391599720954  0.5115484105962551  0.5647715988885125  1.0000
  H   H8        1.0  0.29793875333508874  0.48845063695124197  0.4352279029989246  1.0000
  H   H9        1.0  0.5972734556038829  0.867767627615059  0.43558730986855926  1.0000
  H   H10       1.0  0.09727283751137607  0.1322333157814484  0.5644123293593138  1.0000
  H   H11       1.0  0.5972733314629223  0.4321808498263521  0.5644115991247814  1.0000
  H   H12       1.0  0.09727384681221447  0.567818122213879  0.43558708397734597  1.0000
  H   H13       1.0  0.5067074042679564  0.9589169971618003  0.5761042960084594  1.0000
  H   H14       1.0  0.006706793339432699  0.041082927477489796  0.42389487795460207  1.0000
  H   H15       1.0  0.5067081821775046  0.38281354793502936  0.4238976987223423  1.0000
  H   H16       1.0  0.006707785749774999  0.6171853954559553  0.5761026914610525  1.0000
  H   H17       1.0  0.5743236861032341  0.15850994622108056  0.7568918417481356  1.0000
  H   H18       1.0  0.07432351165798677  0.8414900031149557  0.24310732265993099  1.0000
  H   H19       1.0  0.5743238333814132  0.4016179741518827  0.24310801213035665  1.0000
  H   H20       1.0  0.07432424953952929  0.5983809939356843  0.7568923684981073  1.0000
  H   H21       1.0  0.7216108110096752  0.21610627079385125  0.7558952794684116  1.0000
  H   H22       1.0  0.22161060939598798  0.7838937345531817  0.24410471126792996  1.0000
  H   H23       1.0  0.7216109581684192  0.4602118113454736  0.2441037907492429  1.0000
  H   H24       1.0  0.22161046223709494  0.5397872083233465  0.7558957219242542  1.0000
  H   H25       1.0  0.6741681443214346  0.8754721951354938  0.7870552670246693  1.0000
  H   H26       1.0  0.17416853187046394  0.12452779288334166  0.2129447304158276  1.0000
  H   H27       1.0  0.6741698327484329  0.08842005013470809  0.2129498959946758  1.0000
  H   H28       1.0  0.17416949892352554  0.911578956635992  0.7870513176660905  1.0000
  H   H29       1.0  0.5484001844493632  0.9630672984024142  0.7745173987892002  1.0000
  H   H30       1.0  0.04840052678871128  0.03693264368001789  0.22548261642377546  1.0000
  H   H31       1.0  0.5484027565292848  0.1885514471848069  0.2254864577825302  1.0000
  H   H32       1.0  0.048400610188849696  0.811447513649476  0.7745147736507078  1.0000
  H   H33       1.0  0.8730760457510768  0.9598349782721697  0.7882575410384118  1.0000
  H   H34       1.0  0.37307639444555457  0.04016409671901041  0.21174195023126427  1.0000
  H   H35       1.0  0.873077734323196  0.17158045692661258  0.21174403912608847  1.0000
  H   H36       1.0  0.3730764761939155  0.8284186158500972  0.7882546050018107  1.0000
  H   H37       1.0  0.8887201704013348  0.10641254440282207  0.7740112144785413  1.0000
  H   H38       1.0  0.38872091141555387  0.8935875219806207  0.22598875264324664  1.0000
  H   H39       1.0  0.8887212048977773  0.3324024160195406  0.2259887266777127  1.0000
  H   H40       1.0  0.38872076207913864  0.6675966646858383  0.7740107623811737  1.0000
  H   H41       1.0  0.8031474929679376  0.7592510557755714  0.6049833184485961  1.0000
  H   H42       1.0  0.30314787035713653  0.24074799145960668  0.3950153355611405  1.0000
  H   H43       1.0  0.8031491595091679  0.15427197706119958  0.39502247814978375  1.0000
  H   H44       1.0  0.3031488592959589  0.8457270768188463  0.6049787172847089  1.0000
  H   H45       1.0  0.7739629025336041  0.7541625274726939  0.45398735364307896  1.0000
  H   H46       1.0  0.2739632289902757  0.2458374947810995  0.5460117825536202  1.0000
  H   H47       1.0  0.7739636657648317  0.30018001091301727  0.5460158512191028  1.0000
  H   H48       1.0  0.2739633509192102  0.6998209992339497  0.45398461018202607  1.0000
  H   H49       1.0  0.29142651218320736  0.3208678863063525  0.8815868776517276  1.0000
  H   H50       1.0  0.7914262692516018  0.6791341158971064  0.11841405934453064  1.0000
  H   H51       1.0  0.29142755961003525  0.4392780497882782  0.11841182455401625  1.0000
  H   H52       1.0  0.79142610698495  0.560721976629317  0.881586462033205  1.0000
  H   H53       1.0  0.27798007905225564  0.47761318445229517  0.8901308095949361  1.0000
  H   H54       1.0  0.7779779958364728  0.5223888150543485  0.10987097644323995  1.0000
  H   H55       1.0  0.27797935718630373  0.5874820728915253  0.109868328932258  1.0000
  H   H56       1.0  0.7779769473825339  0.41251893207740414  0.8901295904766116  1.0000
  H   H57       1.0  0.573177449081406  0.5378285395588306  0.9999981324860981  1.0000
  H   H58       1.0  0.07317452836407058  0.4621714093580352  1.0320841427045952e-06  1.0000
  C   C1        1.0  0.7930317193718323  0.009944415011410999  0.5412966087114626  1.0000
  C   C2        1.0  0.29303153799219217  0.9900556164219199  0.45870337193228045  1.0000
  C   C3        1.0  0.7930318407344713  0.46864830849647615  0.4587039072922394  1.0000
  C   C4        1.0  0.2930314166291126  0.5313497537952117  0.541295964367464  1.0000
  C   C5        1.0  0.597793925365792  0.929414896709183  0.5419222179097005  1.0000
  C   C6        1.0  0.09779420126696438  0.0705860513071812  0.45807911552785185  1.0000
  C   C7        1.0  0.5977955843266756  0.3874933196853192  0.45807938794368397  1.0000
  C   C8        1.0  0.09779431262641217  0.6125076283313644  0.5419219454937404  1.0000
  C   C9        1.0  0.6658527868176448  0.12890613206986498  0.7252240158957619  1.0000
  C   C10       1.0  0.16585350013684058  0.8710938551266663  0.27477682986141627  1.0000
  C   C11       1.0  0.6658547006096355  0.4036834264220275  0.27477716749589115  1.0000
  C   C12       1.0  0.16585424182549957  0.596316558560197  0.7252228311194528  1.0000
  C   C13       1.0  0.640093924752591  0.9327009213975684  0.7429907477792524  1.0000
  C   C14       1.0  0.14009427010124398  0.06729806849753567  0.25700877641349246  1.0000
  C   C15       1.0  0.6400956078830687  0.18971281984327248  0.2570124038846799  1.0000
  C   C16       1.0  0.14009435729095537  0.8102861722669414  0.7429879674495864  1.0000
  C   C17       1.0  0.8373569656243872  0.0157809921388221  0.7434558095617376  1.0000
  C   C18       1.0  0.33735773804986735  0.98421905769915  0.2565450119599149  1.0000
  C   C19       1.0  0.8373588816082175  0.2723288038837737  0.2565467793911722  1.0000
  C   C20       1.0  0.33735759238667373  0.7276712415249378  0.7434523478470539  1.0000
  C   C21       1.0  0.7690387520943812  0.8154779941933867  0.5599269747186568  1.0000
  C   C22       1.0  0.269039087399662  0.18452202847667107  0.4400730093155332  1.0000
  C   C23       1.0  0.7690404132198337  0.25555552986648417  0.4400780292898006  1.0000
  C   C24       1.0  0.26904008175456795  0.7444444950188538  0.5599228018858469  1.0000
  C   C25       1.0  0.4036267888628443  0.34578776708813297  0.7486851860284318  1.0000
  C   C26       1.0  0.90362648741371  0.6542123069545125  0.25131562612860137  1.0000
  C   C27       1.0  0.4036260499942514  0.5971025730880938  0.251315525181333  1.0000
  C   C28       1.0  0.9036245708022436  0.40289848220269403  0.7486840707554306  1.0000
  C   C29       1.0  0.34054760959977404  0.40080085616536104  0.879077989477473  1.0000
  C   C30       1.0  0.8405455582458643  0.5992001760861  0.12092161537304234  1.0000
  C   C31       1.0  0.34054777156502775  0.5217216363540516  0.12092198922309905  1.0000
  C   C32       1.0  0.8405462814407798  0.4782793958975729  0.8790776156273522  1.0000
  C   C33       1.0  0.42274800205233015  0.46433109443606896  0.9999994376637317  1.0000
  C   C34       1.0  0.9227459638043172  0.535669972268444  1.8498542147780891e-06  1.0000
  C   C35       1.0  0.5078632090141538  0.35918727100754205  0.9999995895701943  1.0000
  C   C36       1.0  0.007861965291020599  0.6408124436249663  0.9999996002807234  1.0000
  N   N1        1.0  0.6692934108354791  0.048218832356503996  0.5822876225811626  1.0000
  N   N2        1.0  0.1692932261053812  0.9517811538817467  0.417712375548227  1.0000
  N   N3        1.0  0.669293537125739  0.46593238030524015  0.417712036263886  1.0000
  N   N4        1.0  0.16929309981482987  0.5340666224695879  0.5822883309443155  1.0000
  N   N5        1.0  0.7128441412447585  0.0535599866432364  0.7877380245463286  1.0000
  N   N6        1.0  0.21284402655223286  0.946440015501814  0.21226196742883724  1.0000
  N   N7        1.0  0.7128434070708067  0.2658240661776929  0.21226375776458184  1.0000
  N   N8        1.0  0.21284387556587342  0.7341749502889738  0.7877357561478033  1.0000
  N   N9        1.0  0.6435292373746078  0.8498468482832204  0.5996599981360118  1.0000
  N   N10       1.0  0.14352868554359327  0.1501531285446731  0.4003400036341844  1.0000
  N   N11       1.0  0.6435309032760725  0.2501898540087239  0.4003434396828567  1.0000
  N   N12       1.0  0.14352967512247258  0.7498101250344503  0.5996574092287972  1.0000
  N   N13       1.0  0.8423486226951978  0.9338751386701316  0.6009437075848538  1.0000
  N   N14       1.0  0.3423489173544424  0.06612392288313629  0.39905494088531407  1.0000
  N   N15       1.0  0.8423494035911927  0.33293363561352146  0.3990565034949611  1.0000
  N   N16       1.0  0.3423490216184604  0.6670654281547  0.6009429921167921  1.0000
  O   O1        1.0  0.4673122279305559  0.2583896702671352  0.999997626524994  1.0000
  O   O2        1.0  0.967312764546868  0.7416092220703803  0.9999993260542013  1.0000
  O   O3        1.0  0.6182595060453053  0.3850994102519749  0.9999980155266143  1.0000
  O   O4        1.0  0.1182575415976146  0.6148995716677489  1.5117517478817467e-06  1.0000
  O   O5        1.0  0.4243997533033477  0.419125162033815  0.7002772107230584  1.0000
  O   O6        1.0  0.9243994006206434  0.5808739317030742  0.2997222732940301  1.0000
  O   O7        1.0  0.4243998937762114  0.7188483677372445  0.2997231877478582  1.0000
  O   O8        1.0  0.9243974898278893  0.2811526951409675  0.7002764052533834  1.0000
  O   O9        1.0  0.4296841150682694  0.22189868203732033  0.691917825205138  1.0000
  O   O10       1.0  0.9296873919028741  0.7781004136303337  0.30808165806495674  1.0000
  O   O11       1.0  0.42968691001669856  0.5299800770017883  0.30808153714276193  1.0000
  O   O12       1.0  0.9296845969548856  0.47001999991449833  0.6919167299068718  1.0000
  O   O13       1.0  0.49111337151588685  0.5669292156203907  0.9999998312143459  1.0000
  O   O14       1.0  0.9911102238379212  0.4330706755175626  0.9999992903478656  1.0000
