data_image0
_chemical_formula_structural       Cd2H40C44N12O12
_chemical_formula_sum              "Cd2 H40 C44 N12 O12"
_cell_length_a       7.3304460432138665
_cell_length_b       9.517799206716044
_cell_length_c       16.760565392010548
_cell_angle_alpha    89.99990479411305
_cell_angle_beta     90.00011164335201
_cell_angle_gamma    108.7356857767836

_space_group_name_H-M_alt    "P 1"
_space_group_IT_number       1

loop_
  _space_group_symop_operation_xyz
  'x, y, z'

loop_
  _atom_site_type_symbol
  _atom_site_label
  _atom_site_symmetry_multiplicity
  _atom_site_fract_x
  _atom_site_fract_y
  _atom_site_fract_z
  _atom_site_occupancy
  Cd  Cd1       1.0  0.9999994344915563  0.5000004743523192  0.5000006249187905  1.0000
  Cd  Cd2       1.0  0.9999997750564521  0.9999984350426134  0.9999999541191329  1.0000
  H   H1        1.0  0.07669212106067393  0.4622206020710919  0.3127130130307023  1.0000
  H   H2        1.0  0.07669415728290123  0.9622237379302729  0.1872886081944714  1.0000
  H   H3        1.0  0.9233067467295302  0.5377768333470669  0.6872878126581625  1.0000
  H   H4        1.0  0.9233074962968788  0.03777701541692122  0.8127122174940098  1.0000
  H   H5        1.0  0.964603190150882  0.5201611762073811  0.17913552969802995  1.0000
  H   H6        1.0  0.9646040354079376  0.0201646801428907  0.3208648737517947  1.0000
  H   H7        1.0  0.03539703746356795  0.4798362489259704  0.820864699352832  1.0000
  H   H8        1.0  0.03539714284934789  0.979834963800094  0.6791353552984278  1.0000
  H   H9        1.0  0.49658945610720917  0.6142891915356117  0.2993949531845388  1.0000
  H   H10       1.0  0.4965865381990825  0.1142851750150982  0.200603771487323  1.0000
  H   H11       1.0  0.5034140326182454  0.38571266093159556  0.7006052758656269  1.0000
  H   H12       1.0  0.5034155245599621  0.8857133492388771  0.7993952642866305  1.0000
  H   H13       1.0  0.6256830244888151  0.5535934983658989  0.42701125644526894  1.0000
  H   H14       1.0  0.6256823636524731  0.053589721661261115  0.07298763479542461  1.0000
  H   H15       1.0  0.374315909435964  0.44640727555455595  0.5729871826877115  1.0000
  H   H16       1.0  0.3743196991087388  0.9464088025914991  0.9270125942557002  1.0000
  H   H17       1.0  0.774391294745513  0.649937775945844  0.10826725366938211  1.0000
  H   H18       1.0  0.7743900864136962  0.1499389267591908  0.391732269786921  1.0000
  H   H19       1.0  0.22560716386001195  0.3500618885685682  0.8917323787410893  1.0000
  H   H20       1.0  0.22561020734074333  0.8500618368734083  0.6082685559009847  1.0000
  H   H21       1.0  0.5824732706105706  0.6942465312632964  0.1567368767155202  1.0000
  H   H22       1.0  0.5824718865851963  0.19424778097494064  0.3432612490062398  1.0000
  H   H23       1.0  0.4175265478202875  0.3057531229657116  0.8432627556955339  1.0000
  H   H24       1.0  0.41752935780882444  0.8057552014691184  0.6567377867652766  1.0000
  H   H25       1.0  0.2587736669109759  0.5206761886347876  0.15964066098940324  1.0000
  H   H26       1.0  0.2587727476834303  0.0206785536749976  0.3403585465817686  1.0000
  H   H27       1.0  0.7412270360238156  0.47932234590398803  0.8403589714225534  1.0000
  H   H28       1.0  0.7412280213902562  0.9793233193636436  0.6596410858286461  1.0000
  H   H29       1.0  0.9767200164909015  0.20210502978056877  0.5964587182775389  1.0000
  H   H30       1.0  0.9767205261119473  0.7021055158750329  0.9035406060673383  1.0000
  H   H31       1.0  0.023278442114630583  0.7978946347338508  0.40354091413293264  1.0000
  H   H32       1.0  0.023279292318918  0.2978941383539677  0.09645902634371592  1.0000
  H   H33       1.0  0.5384254730501539  0.32578791005308017  0.4930574278272247  1.0000
  H   H34       1.0  0.5384271986074368  0.8257858462913746  0.006942923428681501  1.0000
  H   H35       1.0  0.46157393619819953  0.6742139732709732  0.5069422045826073  1.0000
  H   H36       1.0  0.4615735043284275  0.1742126882467971  0.9930573056218607  1.0000
  H   H37       1.0  0.7137381096488725  0.3913847968815531  0.050354028691515416  1.0000
  H   H38       1.0  0.7137365420592092  0.8913863188802512  0.4496452163367267  1.0000
  H   H39       1.0  0.2862612334616585  0.608613747942023  0.949646200358444  1.0000
  H   H40       1.0  0.2862596722181364  0.10861447560919402  0.5503550127108454  1.0000
  C   C1        1.0  0.9468248730984998  0.4939240958370235  0.30689852755797636  1.0000
  C   C2        1.0  0.9468273395763448  0.9939249907390676  0.19310141544504947  1.0000
  C   C3        1.0  0.053175829836284466  0.5060744387017522  0.6931011048539801  1.0000
  C   C4        1.0  0.05317519850628119  0.006074642918505901  0.8068988136057555  1.0000
  C   C5        1.0  0.8839876944746906  0.525636915583675  0.2329737721834064  1.0000
  C   C6        1.0  0.88398922908452  0.025639409679975203  0.26702655773345196  1.0000
  C   C7        1.0  0.11601300845901358  0.47436161895571155  0.7670252635899646  1.0000
  C   C8        1.0  0.1160124244952599  0.9743613436672195  0.7329742679550365  1.0000
  C   C9        1.0  0.721042310180309  0.5716409421286672  0.2281313627001822  1.0000
  C   C10       1.0  0.721042911698497  0.071641207535734  0.2718681891053407  1.0000
  C   C11       1.0  0.27895886807588977  0.4283587018149221  0.7718682697114545  1.0000
  C   C12       1.0  0.2789601017055361  0.9283595355266598  0.7281320399451446  1.0000
  C   C13       1.0  0.6252631884771844  0.5804913356218151  0.29909909091002623  1.0000
  C   C14       1.0  0.6252603377828124  0.08049065699612609  0.2009009679636193  1.0000
  C   C15       1.0  0.37473982492576857  0.4195094074411827  0.7009005415018734  1.0000
  C   C16       1.0  0.3747404312930415  0.9195112160412933  0.7990998577239596  1.0000
  C   C17       1.0  0.6960864332757312  0.5459856982572973  0.37075841428173123  1.0000
  C   C18       1.0  0.6960850918400397  0.0459829264645393  0.12924114047186924  1.0000
  C   C19       1.0  0.30391474498046744  0.454013945686299  0.6292412181299056  1.0000
  C   C20       1.0  0.3039156110947517  0.9540156080742364  0.8707584919400875  1.0000
  C   C21       1.0  0.6509023658525167  0.608098073084449  0.1486715858557872  1.0000
  C   C22       1.0  0.6509010110621815  0.10809930633962492  0.3513266788994828  1.0000
  C   C23       1.0  0.34909704339475683  0.39190381024020843  0.8513274499154593  1.0000
  C   C24       1.0  0.3490965630383371  0.8919014778656306  0.6486723568715079  1.0000
  C   C25       1.0  0.5060595201280549  0.4725985123510553  0.11226470172325523  1.0000
  C   C26       1.0  0.5060572528048369  0.9725990512670393  0.3877342907851756  1.0000
  C   C27       1.0  0.4939402983038904  0.5274011418773414  0.8877355273263774  1.0000
  C   C28       1.0  0.4939407966181833  0.0274028423424184  0.6122653416240739  1.0000
  C   C29       1.0  0.3089029568215195  0.443446630079208  0.12503210085733943  1.0000
  C   C30       1.0  0.30890111854171226  0.9434483044500016  0.3749673484458995  1.0000
  C   C31       1.0  0.6910959109675971  0.5565508053395546  0.87496812819294  1.0000
  C   C32       1.0  0.6910964555588066  0.0565524797552541  0.6250316873250911  1.0000
  C   C33       1.0  0.17779159969376931  0.3205191641399523  0.08940681318458132  1.0000
  C   C34       1.0  0.17779125037262847  0.8205207555358883  0.4105926404571179  1.0000
  C   C35       1.0  0.8222095785635162  0.6794804798030329  0.9105934158656412  1.0000
  C   C36       1.0  0.822208158874645  0.17948112778876896  0.5894063953141286  1.0000
  C   C37       1.0  0.5780707142275362  0.24777166302912684  0.5313879304937218  1.0000
  C   C38       1.0  0.5780718689000042  0.7477697872574111  0.9686128026642465  1.0000
  C   C39       1.0  0.4219300548472377  0.7522302100089037  0.46861229855527853  1.0000
  C   C40       1.0  0.421927474209447  0.2522287575667832  0.031386829747127414  1.0000
  C   C41       1.0  0.5626234586562334  0.37341979515881724  0.0643618537119224  1.0000
  C   C42       1.0  0.5626240846205519  0.8734202157633959  0.4356372800153423  1.0000
  C   C43       1.0  0.4373735739850489  0.6265765411411479  0.9356377786995083  1.0000
  C   C44       1.0  0.4373730141607197  0.12657945903582402  0.5643629490331321  1.0000
  N   N1        1.0  0.8545409676103405  0.5039845979951353  0.37523746708109235  1.0000
  N   N2        1.0  0.8545383162551731  0.003985184125269799  0.1247634548483489  1.0000
  N   N3        1.0  0.14545885082160484  0.49601505623326153  0.6247627619685475  1.0000
  N   N4        1.0  0.14546061767392618  0.9960155897927478  0.8752373708389671  1.0000
  N   N5        1.0  0.2321961146775919  0.2251999675712426  0.04339828994694982  1.0000
  N   N6        1.0  0.23219545680431963  0.725200355687555  0.4566007028141144  1.0000
  N   N7        1.0  0.7678032284329391  0.7747985772523407  0.9566019391030097  1.0000
  N   N8        1.0  0.767801641974785  0.27479931911287997  0.5433983329571959  1.0000
  N   N9        1.0  0.7980458144874093  0.7162768145343393  0.5964691403101909  1.0000
  N   N10       1.0  0.798045533426418  0.21627682158387532  0.9035312124199067  1.0000
  N   N11       1.0  0.20195400394344892  0.2837228396946685  0.4035304921008632  1.0000
  N   N12       1.0  0.2019570046572809  0.7837228120730942  0.0964696132694769  1.0000
  O   O1        1.0  0.7572138100316509  0.5843412504683556  0.5660185416012739  1.0000
  O   O2        1.0  0.7572158836785264  0.0843400654098829  0.9339830937975722  1.0000
  O   O3        1.0  0.242783288749621  0.4156584243308643  0.43398168744720084  1.0000
  O   O4        1.0  0.2427888987355189  0.9156584382708316  0.0660183285318823  1.0000
  O   O5        1.0  0.9112391401637085  0.8252927075417562  0.5599280070123741  1.0000
  O   O6        1.0  0.9112389915546687  0.32529264003378705  0.9400717426193239  1.0000
  O   O7        1.0  0.08876067826715679  0.1747069466872517  0.4400716253986802  1.0000
  O   O8        1.0  0.08876130219977095  0.6747081235988192  0.059929083068574605  1.0000
  O   O9        1.0  0.7224296730963573  0.7305330275033057  0.6619710684646167  1.0000
  O   O10       1.0  0.7224277286429271  0.23052983998726265  0.8380298033578768  1.0000
  O   O11       1.0  0.27756973615415614  0.2694688558195254  0.33802975722237966  1.0000
  O   O12       1.0  0.27757249897261  0.7694675851454775  0.16197102233156363  1.0000
