data_image0
_chemical_formula_structural       Zn4H32C48N24
_chemical_formula_sum              "Zn4 H32 C48 N24"
_cell_length_a       9.562852658000294
_cell_length_b       10.173555726000663
_cell_length_c       12.43134071100095
_cell_angle_alpha    90.00003810140089
_cell_angle_beta     90.00002345704586
_cell_angle_gamma    90.00001605923477

_space_group_name_H-M_alt    "P 1"
_space_group_IT_number       1

loop_
  _space_group_symop_operation_xyz
  'x, y, z'

loop_
  _atom_site_type_symbol
  _atom_site_label
  _atom_site_symmetry_multiplicity
  _atom_site_fract_x
  _atom_site_fract_y
  _atom_site_fract_z
  _atom_site_occupancy
  Zn  Zn1       1.0  0.4480149739357914  0.17303312311161534  0.36789929321086134  1.0000
  Zn  Zn2       1.0  0.051985888444434594  0.8269668819069905  0.8678993802908581  1.0000
  Zn  Zn3       1.0  0.5519850075901827  0.6730332510568998  0.13210026128147942  1.0000
  Zn  Zn4       1.0  0.9480144054701753  0.32696669399080486  0.6321002007887558  1.0000
  H   H1        1.0  0.24519793621993102  0.20130942746003913  0.5686217862355676  1.0000
  H   H2        1.0  0.25480276667646967  0.7986903343957011  0.0686211744927832  1.0000
  H   H3        1.0  0.7548023201927309  0.7013098519557347  0.9313777264526737  1.0000
  H   H4        1.0  0.7451972523515238  0.2986893533146571  0.4313792528091157  1.0000
  H   H5        1.0  0.8602507673976306  0.5220585856227514  0.23256569947891853  1.0000
  H   H6        1.0  0.6397497449133738  0.47794144105311887  0.7325656241992036  1.0000
  H   H7        1.0  0.1397502147838594  0.0220592778451234  0.26743457726136205  1.0000
  H   H8        1.0  0.360249548346296  0.9779416284864765  0.7674348434696656  1.0000
  H   H9        1.0  0.05310454454237859  0.4621236315572048  0.10811558450765803  1.0000
  H   H10       1.0  0.4468961794002695  0.5378761623874695  0.608115638454656  1.0000
  H   H11       1.0  0.9468955232617376  0.9621240745293207  0.3918841273279342  1.0000
  H   H12       1.0  0.5531040282364117  0.03787608159264269  0.8918845897001619  1.0000
  H   H13       1.0  0.2531044858501446  0.3248393329141308  0.1733587425404366  1.0000
  H   H14       1.0  0.2468952271472205  0.6751605140403854  0.673358808301444  1.0000
  H   H15       1.0  0.7468955409819102  0.8248396702299559  0.326640894575462  1.0000
  H   H16       1.0  0.7531050214613728  0.1751594499416527  0.8266414945727973  1.0000
  H   H17       1.0  0.5687258900318284  0.9711886231299185  0.197518872217664  1.0000
  H   H18       1.0  0.9312756493159142  0.028811375070524996  0.6975186441829282  1.0000
  H   H19       1.0  0.43127522619067804  0.4711884376255924  0.302480844551731  1.0000
  H   H20       1.0  0.06872560132816119  0.5288105313000387  0.8024807746196886  1.0000
  H   H21       1.0  0.232063880983759  0.9813149590479281  0.5105003491584696  1.0000
  H   H22       1.0  0.2679357452271702  0.018685738524745  0.010500121432016804  1.0000
  H   H23       1.0  0.7679354132826361  0.48131599705617134  0.9894993159282706  1.0000
  H   H24       1.0  0.7320631445212413  0.5186842383780219  0.489500153471596  1.0000
  H   H25       1.0  0.1059498186726557  0.7699886484133953  0.5519366713143157  1.0000
  H   H26       1.0  0.3940508753328942  0.2300110998865889  0.05193820710952932  1.0000
  H   H27       1.0  0.8940504582370324  0.2699887030114496  0.9480628787538381  1.0000
  H   H28       1.0  0.605949123198073  0.7300105158147048  0.4480621828124641  1.0000
  H   H29       1.0  0.1654278297709482  0.5667184853455608  0.45248234855655783  1.0000
  H   H30       1.0  0.3345720319704668  0.43328257133730824  0.952483114665654  1.0000
  H   H31       1.0  0.8345731657391439  0.06671918178523129  0.047517952490743205  1.0000
  H   H32       1.0  0.6654293393866766  0.9332816774798189  0.547516524278315  1.0000
  C   C1        1.0  0.19635789563307074  0.2472933154130175  0.49893501953371105  1.0000
  C   C2        1.0  0.30364199086265836  0.7527067960721466  0.9989359497675779  1.0000
  C   C3        1.0  0.8036421080557475  0.7472943860765467  0.0010645753764535  1.0000
  C   C4        1.0  0.6963582808893207  0.25270545250492654  0.5010643953126674  1.0000
  C   C5        1.0  0.049012730574070004  0.35347442046813177  0.3989160467008831  1.0000
  C   C6        1.0  0.4509871026217808  0.6465256097514211  0.8989161610692451  1.0000
  C   C7        1.0  0.9509873048040162  0.853474628242338  0.10108360600018781  1.0000
  C   C8        1.0  0.54901313744093  0.14652529160474606  0.6010841262200942  1.0000
  C   C9        1.0  0.946884956799458  0.46200094400139585  0.2616462286510384  1.0000
  C   C10       1.0  0.5531155710082841  0.5379981233618594  0.7616461588097607  1.0000
  C   C11       1.0  0.053115110968199986  0.9620010269592714  0.23835428753614718  1.0000
  C   C12       1.0  0.44688359095185604  0.037998872803783015  0.738354069411493  1.0000
  C   C13       1.0  0.0567269118052067  0.4287017228098622  0.19135760305355382  1.0000
  C   C14       1.0  0.4432728107836752  0.5712981387687108  0.6913576740516023  1.0000
  C   C15       1.0  0.9432731460242394  0.9287020971944173  0.3086420905914978  1.0000
  C   C16       1.0  0.5567263611147552  0.07129897423401131  0.808642572293863  1.0000
  C   C17       1.0  0.1687395111527366  0.3530340091286207  0.22722018403858618  1.0000
  C   C18       1.0  0.3312602305467891  0.6469648986474184  0.7272194565704879  1.0000
  C   C19       1.0  0.8312605240939276  0.8530343248896273  0.27277946842281153  1.0000
  C   C20       1.0  0.6687400096468396  0.14696475151963284  0.7727800265395289  1.0000
  C   C21       1.0  0.16599453767581457  0.31635071304688717  0.3353195356511521  1.0000
  C   C22       1.0  0.3340063073424488  0.6836482825598864  0.8353188290122233  1.0000
  C   C23       1.0  0.8340054866230419  0.8163509417001933  0.16468090126308252  1.0000
  C   C24       1.0  0.6659939437995632  0.1836490298194917  0.6646814784821518  1.0000
  C   C25       1.0  0.4953827189162183  0.919922389927052  0.2502299754215684  1.0000
  C   C26       1.0  0.0046170350457331  0.0800785024259127  0.750230445512557  1.0000
  C   C27       1.0  0.5046173362931937  0.4199221809014305  0.24977051786346047  1.0000
  C   C28       1.0  0.9953831851860144  0.5800778597530752  0.7497698056115568  1.0000
  C   C29       1.0  0.346623790394311  0.8883061416446264  0.3797823414663243  1.0000
  C   C30       1.0  0.15337603260538657  0.1116938730289831  0.8797828755536302  1.0000
  C   C31       1.0  0.6533762553792571  0.3883068494560931  0.12021733019273033  1.0000
  C   C32       1.0  0.8466241970619918  0.6116940688774335  0.6202173927779954  1.0000
  C   C33       1.0  0.25191148957650705  0.8919440266150431  0.46502092126059597  1.0000
  C   C34       1.0  0.2480894245593106  0.10805605731462718  0.9650206787392792  1.0000
  C   C35       1.0  0.7480885572821949  0.3919437071603795  0.03497714354124071  1.0000
  C   C36       1.0  0.7519108040223584  0.6080561589759342  0.5349795876123694  1.0000
  C   C37       1.0  0.1850778646553053  0.7738397941118504  0.4888879744362172  1.0000
  C   C38       1.0  0.314923062199469  0.2261622750908144  0.9888878172169983  1.0000
  C   C39       1.0  0.8149231926695111  0.2738394728593647  0.011113243759098201  1.0000
  C   C40       1.0  0.6850772016304488  0.726161356826914  0.511112513415995  1.0000
  C   C41       1.0  0.21764865714542478  0.6585742738988287  0.43159646076728836  1.0000
  C   C42       1.0  0.28235119346611975  0.3414277487547607  0.93159716045745  1.0000
  C   C43       1.0  0.7823513200655012  0.15857399062146976  0.06840389027389192  1.0000
  C   C44       1.0  0.7176491047644048  0.8414268856134156  0.5684032329110523  1.0000
  C   C45       1.0  0.37080796409718886  0.7670977634265057  0.3259128210070088  1.0000
  C   C46       1.0  0.12919287590883502  0.23290122453817466  0.8259142178761042  1.0000
  C   C47       1.0  0.6291920455023002  0.2670994915813195  0.174086784682288  1.0000
  C   C48       1.0  0.8708084356454789  0.7329024534609516  0.6740853120069802  1.0000
  N   N1        1.0  0.0707604459216142  0.3072654492687689  0.5023135736510085  1.0000
  N   N2        1.0  0.42923917592636945  0.6927342587114963  0.0023129591048132  1.0000
  N   N3        1.0  0.9292398421131338  0.8072649906167514  0.9976859967056344  1.0000
  N   N4        1.0  0.5707608114791753  0.19273328558828237  0.4976866061099515  1.0000
  N   N5        1.0  0.2583163691625359  0.24875000172711745  0.4012890855863631  1.0000
  N   N6        1.0  0.24168346529775417  0.7512490474800159  0.901289191120995  1.0000
  N   N7        1.0  0.7416836349608927  0.7487501524779034  0.0987105101163763  1.0000
  N   N8        1.0  0.7583157603062602  0.2512487825004541  0.5987111531659721  1.0000
  N   N9        1.0  0.427451137203299  0.9835678109416222  0.3296775672354002  1.0000
  N   N10       1.0  0.0725497048089139  0.0164341289027092  0.8296772196344763  1.0000
  N   N11       1.0  0.5725489370007182  0.4835665723061879  0.1703229606896173  1.0000
  N   N12       1.0  0.9274515421412275  0.5164334037972581  0.6703221924316197  1.0000
  N   N13       1.0  0.4669142053787922  0.7899402973481743  0.24439548845258238  1.0000
  N   N14       1.0  0.0330855454738028  0.21006059026397844  0.7443952338245271  1.0000
  N   N15       1.0  0.5330858110378999  0.2899401005568407  0.2556049340871525  1.0000
  N   N16       1.0  0.9669147135502384  0.7100599448378163  0.7556034792079488  1.0000
  N   N17       1.0  0.9394081301493032  0.42379015575714607  0.36483379996268905  1.0000
  N   N18       1.0  0.5605924526467874  0.5762099783863875  0.8648337532703466  1.0000
  N   N19       1.0  0.0605919262144639  0.9237901568433953  0.1351666954275075  1.0000
  N   N20       1.0  0.43940776643046325  0.0762096590800283  0.6351664957483367  1.0000
  N   N21       1.0  0.31072755495319637  0.6523148882089272  0.35084170852098145  1.0000
  N   N22       1.0  0.1892722526241357  0.3476860858906932  0.8508415779232906  1.0000
  N   N23       1.0  0.6892724203900045  0.1523156289842262  0.14915944353215593  1.0000
  N   N24       1.0  0.8107280474741145  0.847686295804628  0.6491580144332544  1.0000
