data_image0
_chemical_formula_structural       Mg6H42C66O18
_chemical_formula_sum              "Mg6 H42 C66 O18"
_cell_length_a       6.7720271273176325
_cell_length_b       28.000556425102413
_cell_length_c       28.006508289841594
_cell_angle_alpha    119.37982501975168
_cell_angle_beta     94.6132587258849
_cell_angle_gamma    94.62695376329245

_space_group_name_H-M_alt    "P 1"
_space_group_IT_number       1

loop_
  _space_group_symop_operation_xyz
  'x, y, z'

loop_
  _atom_site_type_symbol
  _atom_site_label
  _atom_site_symmetry_multiplicity
  _atom_site_fract_x
  _atom_site_fract_y
  _atom_site_fract_z
  _atom_site_occupancy
  Mg  Mg1       1.0  0.27970262522374867  0.6239654504498874  0.32146158830404664  1.0000
  Mg  Mg2       1.0  0.43273749886537877  0.3742027046070719  0.6726977044955762  1.0000
  Mg  Mg3       1.0  0.9581465363140893  0.6783946596587641  0.30252014932741395  1.0000
  Mg  Mg4       1.0  0.7601118785746193  0.3274067018901974  0.701483438484644  1.0000
  Mg  Mg5       1.0  0.6556501342436079  0.6973856062106593  0.37592288845066707  1.0000
  Mg  Mg6       1.0  0.0586689756150136  0.29854333557364754  0.6258638054139071  1.0000
  H   H1        1.0  0.9274257088026729  0.560708097704776  0.15923582689276847  1.0000
  H   H2        1.0  0.05744263689877017  0.4462935986698896  0.8733071251159716  1.0000
  H   H3        1.0  0.17260260565516464  0.35813028274702685  0.8466869464974566  1.0000
  H   H4        1.0  0.42790778423733405  0.40479652021352325  0.9287968356001032  1.0000
  H   H5        1.0  0.6763151910140978  0.5087914577488492  0.11094725608447226  1.0000
  H   H6        1.0  0.5114013715805327  0.4786918827610977  0.9903446591750581  1.0000
  H   H7        1.0  0.21667680180234328  0.5480692867487065  0.010994965618742525  1.0000
  H   H8        1.0  0.03902672650654187  0.514716978879598  0.8878301528840993  1.0000
  H   H9        1.0  0.23996852571949726  0.5014428647342156  0.9221529956231934  1.0000
  H   H10       1.0  0.7985059634386074  0.45471418561928095  0.8375015329814844  1.0000
  H   H11       1.0  0.6760506121120355  0.5787888707346626  0.1287423232240102  1.0000
  H   H12       1.0  0.4862779571163999  0.5271786440222714  0.07849563636236924  1.0000
  H   H13       1.0  0.3043514663753371  0.6226126136932422  0.07821542815936067  1.0000
  H   H14       1.0  0.5541765780130561  0.6651071953182283  0.16177218031793947  1.0000
  H   H15       1.0  0.7683577085177403  0.8406940968855922  0.4013677485793181  1.0000
  H   H16       1.0  0.1840612792883363  0.1267082768392953  0.5730078371556644  1.0000
  H   H17       1.0  0.32628563123334686  0.15331032334830752  0.511395021803729  1.0000
  H   H18       1.0  0.49933754472186814  0.07116285280187641  0.4759951114608469  1.0000
  H   H19       1.0  0.5653977199556267  0.888945015638456  0.3977927499606795  1.0000
  H   H20       1.0  0.5209808492342773  0.0096338260234106  0.48832597033452885  1.0000
  H   H21       1.0  0.20563633760604458  0.9889951200070756  0.5369983938381254  1.0000
  H   H22       1.0  0.15116607843939528  0.11221964147792823  0.6269131580522185  1.0000
  H   H23       1.0  0.31776409461734534  0.07787012859750322  0.5792897369594671  1.0000
  H   H24       1.0  0.9610525397481806  0.1625180971831384  0.6172401318555033  1.0000
  H   H25       1.0  0.5475132617973626  0.8711907873444175  0.44999753369872764  1.0000
  H   H26       1.0  0.40772871987579146  0.9214005812595829  0.44864790588525244  1.0000
  H   H27       1.0  0.22613204393990563  0.9218725218766723  0.5443720963030287  1.0000
  H   H28       1.0  0.3923436103202605  0.8382971039014326  0.5033548611838727  1.0000
  H   H29       1.0  0.3671263047942617  0.5986372086496133  0.4393948903756027  1.0000
  H   H30       1.0  0.6113568964667023  0.4270306078209958  0.5536658892098744  1.0000
  H   H31       1.0  0.8148368906712804  0.488654259385534  0.6418908359011369  1.0000
  H   H32       1.0  0.02357735658563339  0.5240651221661993  0.5952530474296439  1.0000
  H   H33       1.0  0.16749212431307825  0.6022254870592365  0.49124357723774653  1.0000
  H   H34       1.0  0.03307021693678538  0.5117668448749697  0.5214492366525505  1.0000
  H   H35       1.0  0.6688805226761118  0.4630226454471043  0.45197860274056023  1.0000
  H   H36       1.0  0.5245066824749856  0.3731102937332054  0.485246106948047  1.0000
  H   H37       1.0  0.7388012199055113  0.4207170032682939  0.4985355440905367  1.0000
  H   H38       1.0  0.3440012418285008  0.38275802677137  0.5452944031213462  1.0000
  H   H39       1.0  0.09752180748263582  0.549962111305206  0.42127818079767115  1.0000
  H   H40       1.0  0.9591119076650257  0.5513401106003785  0.4728496799804987  1.0000
  H   H41       1.0  0.6814828762513727  0.45551930974492894  0.37739546094532983  1.0000
  H   H42       1.0  0.8889973080781174  0.49651637957353517  0.3348863718041813  1.0000
  C   C1        1.0  0.3430757955663921  0.3769919187793959  0.7952983531274498  1.0000
  C   C2        1.0  0.3139882391731064  0.3788141542523604  0.845422720368525  1.0000
  C   C3        1.0  0.45561260544641874  0.406417720408726  0.891863751373677  1.0000
  C   C4        1.0  0.1723509087786254  0.3562202243789655  0.7512871241629141  1.0000
  C   C5        1.0  0.1872915922605785  0.6152088127438803  0.2086159963237649  1.0000
  C   C6        1.0  0.05918451833858287  0.5846000167304412  0.15811668777325855  1.0000
  C   C7        1.0  0.09859933303132347  0.5838997350913858  0.10946342676479055  1.0000
  C   C8        1.0  0.9715890562063408  0.5480051893799286  0.05536848477019162  1.0000
  C   C9        1.0  0.7677127429801727  0.5263455683106883  0.04826329607629986  1.0000
  C   C10       1.0  0.6697684300659147  0.4928148540865252  0.9944085445976967  1.0000
  C   C11       1.0  0.75770850504437  0.47688454046971895  0.9458191675505959  1.0000
  C   C12       1.0  0.9608234051767326  0.4992745043951602  0.952842439915898  1.0000
  C   C13       1.0  0.058842114053945245  0.5331588391012617  0.006796932196216824  1.0000
  C   C14       1.0  0.07969927634945861  0.48960281987537263  0.9065207402323382  1.0000
  C   C15       1.0  0.6300437580477123  0.438605606675587  0.8923615164183688  1.0000
  C   C16       1.0  0.6665622040623519  0.4329526993013106  0.8414055515389337  1.0000
  C   C17       1.0  0.5351738835610576  0.3993721683482648  0.79182292624197  1.0000
  C   C18       1.0  0.6463465080513159  0.5361763275484891  0.09415340487810654  1.0000
  C   C19       1.0  0.27346460251708743  0.6179104609532545  0.11334530418837829  1.0000
  C   C20       1.0  0.41213472251355654  0.6429738689909572  0.16062754909310686  1.0000
  C   C21       1.0  0.3797886581955082  0.639878208752947  0.20823306138746753  1.0000
  C   C22       1.0  0.5474679526201597  0.6570056618277249  0.2525574429202564  1.0000
  C   C23       1.0  0.5480896017379279  0.20474902311738669  0.5816622766982463  1.0000
  C   C24       1.0  0.46889565448603315  0.15459708609064657  0.5333594871600839  1.0000
  C   C25       1.0  0.5639801937962474  0.10813365380018783  0.5145367338079013  1.0000
  C   C26       1.0  0.42128508557408395  0.2487669003660358  0.604896338457543  1.0000
  C   C27       1.0  0.9786169191655603  0.7913219857850539  0.4065961841013178  1.0000
  C   C28       1.0  0.9011414734216956  0.8418431484503442  0.42642328496748416  1.0000
  C   C29       1.0  0.989185600156972  0.8905421482393764  0.4743818957712946  1.0000
  C   C30       1.0  0.9162106807489252  0.9446254240491782  0.4925774987999318  1.0000
  C   C31       1.0  0.7193850936875988  0.9517040880671886  0.4780335649255961  1.0000
  C   C32       1.0  0.6752952229905916  0.005567607760134801  0.49837265199213493  1.0000
  C   C33       1.0  0.8118708239003707  0.054167738990798915  0.5310604000464494  1.0000
  C   C34       1.0  0.007929361940220803  0.04715893877497731  0.5464234927589402  1.0000
  C   C35       1.0  0.0520114201692082  0.9931969694261941  0.5263209225284557  1.0000
  C   C36       1.0  0.17310579258327854  0.09350553111792691  0.5830953784376405  1.0000
  C   C37       1.0  0.7377560616097014  0.10764272521714698  0.5462512524303094  1.0000
  C   C38       1.0  0.8252529292843744  0.15861391957705  0.5915698781936314  1.0000
  C   C39       1.0  0.7435669839477086  0.20821551428927174  0.6075465865500577  1.0000
  C   C40       1.0  0.5522345408474649  0.9057697360544241  0.4419792904189138  1.0000
  C   C41       1.0  0.16012605003268013  0.8867027988554952  0.5045391065403778  1.0000
  C   C42       1.0  0.2514723529165508  0.8394009695918854  0.48235284292447744  1.0000
  C   C43       1.0  0.17145624003618554  0.791734786393505  0.4316821447055049  1.0000
  C   C44       1.0  0.2947366390508463  0.7473803584599283  0.4044735946355261  1.0000
  C   C45       1.0  0.966341172767045  0.41836619302046785  0.6230566205578755  1.0000
  C   C46       1.0  0.9355640124678499  0.46668177690180823  0.6212329448394202  1.0000
  C   C47       1.0  0.049650555293901305  0.48550680177670813  0.5936399866697145  1.0000
  C   C48       1.0  0.8163111128875682  0.3951427940702956  0.6438319836843504  1.0000
  C   C49       1.0  0.5721109688408248  0.5933362104357373  0.3847388833013952  1.0000
  C   C50       1.0  0.4747386613684482  0.5735380966739213  0.4154289498767413  1.0000
  C   C51       1.0  0.5147492959554966  0.5255669928262919  0.41612969573986913  1.0000
  C   C52       1.0  0.4237329635043423  0.5074140182526962  0.4520594540639209  1.0000
  C   C53       1.0  0.2415264872768575  0.521982935926012  0.4737396388298337  1.0000
  C   C54       1.0  0.17726286852747816  0.5016802139789932  0.5072900797919999  1.0000
  C   C55       1.0  0.2811666132204991  0.4689903453301909  0.5231670333864145  1.0000
  C   C56       1.0  0.46182483628554377  0.4536177391041035  0.5007519718270004  1.0000
  C   C57       1.0  0.5259263559682665  0.4737006912426054  0.46688706541112174  1.0000
  C   C58       1.0  0.5903385317789045  0.4169345328909628  0.5103730845162177  1.0000
  C   C59       1.0  0.19177900118607033  0.45378433714279975  0.5614256138542545  1.0000
  C   C60       1.0  0.2338192050581895  0.40845104909039526  0.5670530583234668  1.0000
  C   C61       1.0  0.13602943860758634  0.3924904880894502  0.6006701910642038  1.0000
  C   C62       1.0  0.11028115811343742  0.558013153331494  0.46388260485727534  1.0000
  C   C63       1.0  0.6554561368626607  0.49537077109570044  0.3821010189515022  1.0000
  C   C64       1.0  0.7691181073618196  0.5175418879962947  0.35701527304868114  1.0000
  C   C65       1.0  0.7398795442404449  0.5682312807620775  0.3600645057868803  1.0000
  C   C66       1.0  0.8904390381582201  0.5953912212104058  0.34289330980679006  1.0000
  O   O1        1.0  0.12144669168681324  0.6186911633349085  0.25415627816263964  1.0000
  O   O2        1.0  0.9966442863574513  0.34508403180606  0.7596836323923952  1.0000
  O   O3        1.0  0.2012315542444866  0.3519342508837227  0.7040824174555027  1.0000
  O   O4        1.0  0.7254710971756424  0.6695612863932183  0.24660045002238465  1.0000
  O   O5        1.0  0.5120940784593556  0.6560079276478419  0.297003600399293  1.0000
  O   O6        1.0  0.5978208940713826  0.39074025350208796  0.7441673691179604  1.0000
  O   O7        1.0  0.8671895318515792  0.7457373688173234  0.364580321107333  1.0000
  O   O8        1.0  0.23724160669740255  0.24036465794623044  0.5853210483566684  1.0000
  O   O9        1.0  0.4972356106633525  0.29598386266739146  0.647852105969669  1.0000
  O   O10       1.0  0.47870993581280896  0.7533410480738497  0.42295984064544007  1.0000
  O   O11       1.0  0.21488637529601104  0.7028920492327586  0.35903534966422523  1.0000
  O   O12       1.0  0.8539133841474041  0.2558997242458005  0.6465616485849424  1.0000
  O   O13       1.0  0.5026996432259524  0.6353562688407451  0.3811895192043907  1.0000
  O   O14       1.0  0.6517794493324374  0.41469469808492215  0.6549891758955156  1.0000
  O   O15       1.0  0.8493786881970138  0.35219986139927784  0.6480908805819681  1.0000
  O   O16       1.0  0.05589567556883418  0.5768696909550927  0.33034842985069457  1.0000
  O   O17       1.0  0.8559971269423058  0.6408205803496259  0.3438480909068886  1.0000
  O   O18       1.0  0.20735351830158066  0.3535030383511995  0.6093606923387256  1.0000
