data_image0
_chemical_formula_structural       Zn4H56C104N8O24
_chemical_formula_sum              "Zn4 H56 C104 N8 O24"
_cell_length_a       15.282571957807688
_cell_length_b       15.27569862430999
_cell_length_c       22.2706756143191
_cell_angle_alpha    82.67964421020565
_cell_angle_beta     78.29692802138655
_cell_angle_gamma    72.13796019077579

_space_group_name_H-M_alt    "P 1"
_space_group_IT_number       1

loop_
  _space_group_symop_operation_xyz
  'x, y, z'

loop_
  _atom_site_type_symbol
  _atom_site_label
  _atom_site_symmetry_multiplicity
  _atom_site_fract_x
  _atom_site_fract_y
  _atom_site_fract_z
  _atom_site_occupancy
  Zn  Zn1       1.0  0.11859794422007755  0.2824889954314712  0.33044101149637584  1.0000
  Zn  Zn2       1.0  0.8814016017790894  0.7175085534959675  0.6695594100897537  1.0000
  Zn  Zn3       1.0  0.15321624972311557  0.2958889624927321  0.2004426242574269  1.0000
  Zn  Zn4       1.0  0.846781431973618  0.7041127194100055  0.7995594978223225  1.0000
  H   H1        1.0  0.28151881382758853  0.20852830211305218  0.0876057262484338  1.0000
  H   H2        1.0  0.7184828141489562  0.791471303437653  0.9123937840967784  1.0000
  H   H3        1.0  0.27213389456295545  0.20917868008680773  0.9760813275874299  1.0000
  H   H4        1.0  0.7278684035152737  0.7908209238730277  0.02391764154960899  1.0000
  H   H5        1.0  0.003608275957582041  0.4142394443622947  0.0108929676553231  1.0000
  H   H6        1.0  0.9963924842128055  0.5857608540488003  0.9891066031632505  1.0000
  H   H7        1.0  0.02487500025298324  0.4062666803599058  0.11975828249693171  1.0000
  H   H8        1.0  0.9751259585078671  0.593732928585304  0.8802413197570829  1.0000
  H   H9        1.0  0.11981966895080387  0.5280552918804985  0.7955652322210867  1.0000
  H   H10       1.0  0.8801810903335936  0.47194500472696876  0.204434787896851  1.0000
  H   H11       1.0  0.11239510111209938  0.5220309648481632  0.6844602694874595  1.0000
  H   H12       1.0  0.8876056581722979  0.4779693317593043  0.315539750630478  1.0000
  H   H13       1.0  0.10225754307938223  0.08081195585716466  0.7389097312494854  1.0000
  H   H14       1.0  0.8977423483988506  0.9191890336106923  0.26109034934182057  1.0000
  H   H15       1.0  0.11224479911220442  0.0858812507842188  0.8503110874870005  1.0000
  H   H16       1.0  0.8877542236738808  0.9141204297404001  0.1496895028770311  1.0000
  H   H17       1.0  0.23383205053801967  0.1810860521516204  0.5344991017639842  1.0000
  H   H18       1.0  0.7661671708385358  0.8189149389071131  0.46550152003549533  1.0000
  H   H19       1.0  0.23222789407036265  0.1788245941403588  0.42183941151550647  1.0000
  H   H20       1.0  0.7677728652140277  0.8211757024671085  0.5781606086024312  1.0000
  H   H21       1.0  0.981766536789202  0.38673501246396563  0.4320681477867153  1.0000
  H   H22       1.0  0.01823362760978852  0.6132673543447922  0.5679313287255283  1.0000
  H   H23       1.0  0.9732536129710355  0.398314508460821  0.5447972154196777  1.0000
  H   H24       1.0  0.026747418348122727  0.6016871636839126  0.4552026499185686  1.0000
  H   H25       1.0  0.8932828372831099  0.2735308776634824  0.1788602437841433  1.0000
  H   H26       1.0  0.10671725367157606  0.7264694241421237  0.8211394189432396  1.0000
  H   H27       1.0  0.7346785384260885  0.26452060813951306  0.17603077107266074  1.0000
  H   H28       1.0  0.2653210801313933  0.73547900398745  0.8239699135977007  1.0000
  H   H29       1.0  0.6473641350310899  0.3342680135814505  0.3648424153282264  1.0000
  H   H30       1.0  0.35263501201517045  0.6657309106704972  0.6351588419857492  1.0000
  H   H31       1.0  0.807880723217636  0.33809238699657135  0.3677702916332706  1.0000
  H   H32       1.0  0.19211956455554724  0.6619072217358803  0.6322303011282884  1.0000
  H   H33       1.0  0.5887966546271743  0.3388415678761731  0.17254327541182593  1.0000
  H   H34       1.0  0.41120182497536456  0.6611573633775478  0.8274571752122314  1.0000
  H   H35       1.0  0.43262320930514153  0.3236097463119735  0.16905810735271135  1.0000
  H   H36       1.0  0.5673757391506629  0.6763898674058665  0.8309431185258235  1.0000
  H   H37       1.0  0.40129917255025316  0.23113043312467596  0.3600701076316071  1.0000
  H   H38       1.0  0.5987011895532107  0.7688712424145621  0.6399298496154415  1.0000
  H   H39       1.0  0.5590964121131634  0.242032986039483  0.3639378346825525  1.0000
  H   H40       1.0  0.44090300873983096  0.7579673173569998  0.6360623692530042  1.0000
  H   H41       1.0  0.2212237513217801  0.0031057037509612004  0.169289350314223  1.0000
  H   H42       1.0  0.778776536451403  0.9968939049814906  0.830711242447329  1.0000
  H   H43       1.0  0.21434545731852953  0.842800513287635  0.1683805328096214  1.0000
  H   H44       1.0  0.7856557734770819  0.15720047119484795  0.831618914664702  1.0000
  H   H45       1.0  0.0786931034700587  0.8521270902710397  0.3583385618806503  1.0000
  H   H46       1.0  0.9213075832560236  0.14787114313690347  0.6416611951530627  1.0000
  H   H47       1.0  0.0913865073646889  0.0098388842592314  0.3590292971808893  1.0000
  H   H48       1.0  0.9086146491006416  0.9901600334164653  0.6409707858079374  1.0000
  H   H49       1.0  0.1260381488880427  0.7545196201650126  0.16626053208940314  1.0000
  H   H50       1.0  0.8739617452481456  0.24548137471374076  0.8337382006038041  1.0000
  H   H51       1.0  0.11590858383338812  0.5951922668267142  0.16514416127076004  1.0000
  H   H52       1.0  0.8840903690523377  0.40480735590928424  0.8348548181109406  1.0000
  H   H53       1.0  0.13419293913104022  0.5460543566750288  0.3564367079225903  1.0000
  H   H54       1.0  0.86580782015335  0.4539459399324385  0.6435633121953472  1.0000
  H   H55       1.0  0.1479906650068657  0.7039719411153625  0.3583120461666597  1.0000
  H   H56       1.0  0.8520107652651988  0.29602835570486247  0.6416869834437405  1.0000
  C   C1        1.0  0.22183328192173243  0.2534342239610509  0.06823194885641472  1.0000
  C   C2        1.0  0.7781676768391179  0.7465653849841658  0.9317676533975998  1.0000
  C   C3        1.0  0.21629977356810312  0.253932135407588  0.0066408531885358  1.0000
  C   C4        1.0  0.7837018552944316  0.7460674719467518  0.9933582078573053  1.0000
  C   C5        1.0  0.1368833861624736  0.31166539602410376  0.9853694153661295  1.0000
  C   C6        1.0  0.8631182427000612  0.688334211330236  0.014629645679711756  1.0000
  C   C7        1.0  0.06668540144780624  0.36829822098373904  0.025580736743265213  1.0000
  C   C8        1.0  0.9333152888222219  0.6317000196387355  0.9744172230929777  1.0000
  C   C9        1.0  0.07815743173296144  0.3641198126103972  0.08636714233999503  1.0000
  C   C10       1.0  0.9218405781303293  0.6358784343755771  0.9136329823289416  1.0000
  C   C11       1.0  0.12332059696939983  0.22667304119377713  0.9042213385175941  1.0000
  C   C12       1.0  0.8766788221116288  0.7733272585954366  0.0957797640166903  1.0000
  C   C13       1.0  0.11659241663473104  0.22574112895323845  0.8390955742898072  1.0000
  C   C14       1.0  0.8834057383451894  0.77426124443177  0.16090507654759278  1.0000
  C   C15       1.0  0.11582056436793665  0.30517556548571173  0.7986717664970016  1.0000
  C   C16       1.0  0.8841788555990747  0.6948247361071368  0.2013288867379188  1.0000
  C   C17       1.0  0.11852828585207938  0.3880983145572897  0.8194507148808512  1.0000
  C   C18       1.0  0.8814720045790594  0.6119012995860585  0.18054852998260174  1.0000
  C   C19       1.0  0.12180634588292359  0.393519169600303  0.8846928004043875  1.0000
  C   C20       1.0  0.878196151671752  0.6064797466972817  0.11530575086872831  1.0000
  C   C21       1.0  0.11786768341180938  0.46497210904717423  0.7786426205136935  1.0000
  C   C22       1.0  0.882132208952406  0.535028882224317  0.2213570107782488  1.0000
  C   C23       1.0  0.11451710422876009  0.46150359426414395  0.7164446763292887  1.0000
  C   C24       1.0  0.8854829849539528  0.538496703934193  0.2835558849968295  1.0000
  C   C25       1.0  0.11103351109046146  0.3812995273759511  0.6951604571237482  1.0000
  C   C26       1.0  0.8889659832068374  0.6187028410236837  0.30483956059667605  1.0000
  C   C27       1.0  0.11157632871793062  0.3018492305422101  0.7357411021658534  1.0000
  C   C28       1.0  0.888423165579376  0.6981531378574245  0.26425891555456354  1.0000
  C   C29       1.0  0.10704832217642492  0.21966483700290237  0.715309823468182  1.0000
  C   C30       1.0  0.8929513707113373  0.7803368419308396  0.28469022568767616  1.0000
  C   C31       1.0  0.10672472316951342  0.1427299865513731  0.7560768640407716  1.0000
  C   C32       1.0  0.8932741027980743  0.8572723870463932  0.24392279628908398  1.0000
  C   C33       1.0  0.11178856593362951  0.14575547006346307  0.8178866141026618  1.0000
  C   C34       1.0  0.8882113246586203  0.8542455176007663  0.18211391578800834  1.0000
  C   C35       1.0  0.10240364290515204  0.21476567482886108  0.6502627183902234  1.0000
  C   C36       1.0  0.8975953090945913  0.7852339461035027  0.34973671029084846  1.0000
  C   C37       1.0  0.10668645760036101  0.37977232643796544  0.6296078829461322  1.0000
  C   C38       1.0  0.8933136333543245  0.6202279753676408  0.3703917797812509  1.0000
  C   C39       1.0  0.10348753406528034  0.2903890922079952  0.5474890296784878  1.0000
  C   C40       1.0  0.8965118876737037  0.7096112129921153  0.4525107249577047  1.0000
  C   C41       1.0  0.17693085444070542  0.22738964055891125  0.5133140817620402  1.0000
  C   C42       1.0  0.82306722709491  0.7726106678229526  0.4866867552904921  1.0000
  C   C43       1.0  0.17602858243880357  0.22528094246295177  0.45131260902442705  1.0000
  C   C44       1.0  0.8239708357562422  0.7747193555226345  0.5486889428092283  1.0000
  C   C45       1.0  0.03564245118682413  0.34206291114936954  0.45678841110745333  1.0000
  C   C46       1.0  0.9643581095071102  0.657938074923983  0.5432115775750433  1.0000
  C   C47       1.0  0.031255560973612345  0.34844955189994653  0.5191829528135088  1.0000
  C   C48       1.0  0.968745397787231  0.65155005704527  0.48081664944050573  1.0000
  C   C49       1.0  0.9577216687676541  0.3071809175377425  0.2746302286363617  1.0000
  C   C50       1.0  0.042280355503841356  0.6928173072775577  0.7253697938790964  1.0000
  C   C51       1.0  0.8604790755062481  0.3061037134718561  0.2734357466801995  1.0000
  C   C52       1.0  0.13952121138094511  0.6938958934569683  0.7265652953807165  1.0000
  C   C53       1.0  0.8386307895915623  0.28671728135005026  0.2193124051963977  1.0000
  C   C54       1.0  0.1613694990675968  0.7132823291860362  0.7806877382657902  1.0000
  C   C55       1.0  0.7496061697806481  0.28248450194188723  0.21793689148366727  1.0000
  C   C56       1.0  0.2503927813331047  0.717515117186842  0.7820629864967686  1.0000
  C   C57       1.0  0.6792173577895327  0.2983177153111142  0.27031589231982184  1.0000
  C   C58       1.0  0.3207815924382373  0.7016819020139805  0.7296844349599779  1.0000
  C   C59       1.0  0.7013158417393869  0.31944255389571896  0.3241002581057445  1.0000
  C   C60       1.0  0.2986821672379208  0.6805556912866136  0.6759003158625632  1.0000
  C   C61       1.0  0.7907600384110796  0.3227418101528271  0.325817278950808  1.0000
  C   C62       1.0  0.20923911040716098  0.6772571177063894  0.6741830797644326  1.0000
  C   C63       1.0  0.585673532267947  0.29138877435157434  0.26851499140759233  1.0000
  C   C64       1.0  0.4143250207788898  0.7086122219052909  0.731485273001326  1.0000
  C   C65       1.0  0.5488713950527286  0.3134619455382504  0.21364507842678654  1.0000
  C   C66       1.0  0.4511284229812065  0.6865369789264618  0.7863551883796518  1.0000
  C   C67       1.0  0.4613399376183695  0.3056652778876127  0.21144771827513156  1.0000
  C   C68       1.0  0.5386581439172532  0.6943350304942443  0.7885531187774006  1.0000
  C   C69       1.0  0.40754005601117893  0.2761066452838391  0.264275640072718  1.0000
  C   C70       1.0  0.5924569591278156  0.7238950454242997  0.7357252260177347  1.0000
  C   C71       1.0  0.44348229310941895  0.25410358654720255  0.31917183057877463  1.0000
  C   C72       1.0  0.5565173272200354  0.7458960291870226  0.6808279554928518  1.0000
  C   C73       1.0  0.5313027272816484  0.2613466703862811  0.3211992217415727  1.0000
  C   C74       1.0  0.4686964940948999  0.7386543206724521  0.6788014000578998  1.0000
  C   C75       1.0  0.31142382828534926  0.2717241963854065  0.2628037172537248  1.0000
  C   C76       1.0  0.6885759888625955  0.7282747262756712  0.7371969988520845  1.0000
  C   C77       1.0  0.15768644430699658  0.11411557222038479  0.2643265894562106  1.0000
  C   C78       1.0  0.8423145100239254  0.885884027706673  0.735675259294631  1.0000
  C   C79       1.0  0.15684135122182144  0.0162300067279588  0.2642405206702279  1.0000
  C   C80       1.0  0.8431592085861229  0.9837709775417663  0.7357599173116327  1.0000
  C   C81       1.0  0.19088882147080727  0.9687377117058698  0.21053780102790406  1.0000
  C   C82       1.0  0.809113077654523  0.03126326757846699  0.7894620038369808  1.0000
  C   C83       1.0  0.18567029987848838  0.8794951541553642  0.21015960782310125  1.0000
  C   C84       1.0  0.8143317987232876  0.12050513746672209  0.7898397791778607  1.0000
  C   C85       1.0  0.14553679955836438  0.8352644521890509  0.263174459008205  1.0000
  C   C86       1.0  0.8544650995669657  0.16473652709529318  0.7368253458566799  1.0000
  C   C87       1.0  0.11236154847905773  0.8833508211637451  0.3169870318336692  1.0000
  C   C88       1.0  0.8876400812694599  0.11664878799422948  0.6830115799128081  1.0000
  C   C89       1.0  0.11826072296016589  0.9722666499444229  0.3175669314062547  1.0000
  C   C90       1.0  0.8817415733460906  0.027732950408150703  0.6824329363295121  1.0000
  C   C91       1.0  0.13785929143358552  0.7414566233523344  0.26237305702218805  1.0000
  C   C92       1.0  0.8621428080541806  0.2585436700733794  0.7376258806794028  1.0000
  C   C93       1.0  0.12905946816542282  0.7089108080074025  0.20810989428367324  1.0000
  C   C94       1.0  0.8709406236752458  0.291089495601831  0.7918893191443387  1.0000
  C   C95       1.0  0.12220910203324568  0.6203826402886391  0.2072728049567871  1.0000
  C   C96       1.0  0.8777903197057385  0.3796176649114784  0.7927269496793983  1.0000
  C   C97       1.0  0.12316165011291973  0.5615384119196631  0.260956793069667  1.0000
  C   C98       1.0  0.8768377716260717  0.43846189328044716  0.7390429615665184  1.0000
  C   C99       1.0  0.13166373955156283  0.5931813343671447  0.3152804955149406  1.0000
  C   C100      1.0  0.8683370215048072  0.4068189658475844  0.6847186260042691  1.0000
  C   C101      1.0  0.13894377965946356  0.6815410465379442  0.31599058241492634  1.0000
  C   C102      1.0  0.8610578492030714  0.31845856081639556  0.684008478630915  1.0000
  C   C103      1.0  0.11752973670847676  0.4654423133594747  0.2605280553159943  1.0000
  C   C104      1.0  0.8824690158148134  0.5345579952351398  0.7394717912290005  1.0000
  N   N1        1.0  0.15381248104086614  0.3072773510751148  0.1073637475517799  1.0000
  N   N2        1.0  0.8461882074571817  0.6927208859400977  0.8926351108831981  1.0000
  N   N3        1.0  0.12778122814934528  0.3107830188214963  0.9225395006316148  1.0000
  N   N4        1.0  0.8722224092462624  0.6892165801529585  0.07745883538844114  1.0000
  N   N5        1.0  0.10382307765681281  0.29540711522282953  0.611256223598815  1.0000
  N   N6        1.0  0.8961778793320648  0.7045924901151182  0.3887442772539345  1.0000
  N   N7        1.0  0.1068251838257623  0.28169256400052234  0.4236970875903268  1.0000
  N   N8        1.0  0.8931751048333967  0.718307046535564  0.5763030558718614  1.0000
  O   O1        1.0  0.12491042721011074  0.15995175737553777  0.9415440085290498  1.0000
  O   O2        1.0  0.8750887915084823  0.8400492282722991  0.05845796116852143  1.0000
  O   O3        1.0  0.12059352085670846  0.46437907607707263  0.9060845934731248  1.0000
  O   O4        1.0  0.8794087772215208  0.5356205278827629  0.0939143756639141  1.0000
  O   O5        1.0  0.09789621885202142  0.14561760863873016  0.6297972595078818  1.0000
  O   O6        1.0  0.9021020657039929  0.8543820192954071  0.3702013624832646  1.0000
  O   O7        1.0  0.10726772488710883  0.4459327073126147  0.5919872329362762  1.0000
  O   O8        1.0  0.8927318972143117  0.5540669120288795  0.40801165453662247  1.0000
  O   O9        1.0  0.11788466774287094  0.41782959012299153  0.31186873395094494  1.0000
  O   O10       1.0  0.8821142116985502  0.5821679676098485  0.6881304316458952  1.0000
  O   O11       1.0  0.11361293205823843  0.43824760181193056  0.2096557019448824  1.0000
  O   O12       1.0  0.8863831436022598  0.561752720360708  0.7903445122353434  1.0000
  O   O13       1.0  0.18585633573215435  0.15360701401415613  0.2133668150403807  1.0000
  O   O14       1.0  0.8141432845972931  0.8463926017200689  0.7866329710312527  1.0000
  O   O15       1.0  0.12774466247746122  0.15103627005934328  0.3156607485877529  1.0000
  O   O16       1.0  0.8722548309338551  0.8489660965366567  0.6843397184320354  1.0000
  O   O17       1.0  0.9771850933918316  0.3173467829129564  0.3258730224983992  1.0000
  O   O18       1.0  0.022817400618905064  0.6826521261700903  0.6741273259721723  1.0000
  O   O19       1.0  0.014106292373995251  0.29817175818227065  0.2235361574660502  1.0000
  O   O20       1.0  0.9858943182498265  0.7018244048116242  0.7764651336808869  1.0000
  O   O21       1.0  0.26425958677585015  0.24925651617319028  0.3131482470958886  1.0000
  O   O22       1.0  0.7357409512896568  0.7507375836211876  0.6868527809668238  1.0000
  O   O23       1.0  0.2832705503874849  0.29299656132287305  0.2111642672618785  1.0000
  O   O24       1.0  0.7167257212055207  0.7070030659729837  0.7888373262518797  1.0000
