data_image0
_chemical_formula_structural       Co2H48C54N8O8
_chemical_formula_sum              "Co2 H48 C54 N8 O8"
_cell_length_a       10.769801806787138
_cell_length_b       11.192475290687977
_cell_length_c       11.561
_cell_angle_alpha    64.96374051017722
_cell_angle_beta     83.28210166988887
_cell_angle_gamma    67.69523722930539

_space_group_name_H-M_alt    "P 1"
_space_group_IT_number       1

loop_
  _space_group_symop_operation_xyz
  'x, y, z'

loop_
  _atom_site_type_symbol
  _atom_site_label
  _atom_site_symmetry_multiplicity
  _atom_site_fract_x
  _atom_site_fract_y
  _atom_site_fract_z
  _atom_site_occupancy
  Co  Co1       1.0  0.7984919862389861  0.1835537541378187  0.3324095120554205  1.0000
  Co  Co2       1.0  0.2015082679324536  0.8164451734792593  0.6675887371607702  1.0000
  H   H1        1.0  0.8018418901430238  0.5248782811546207  0.33138662975348854  1.0000
  H   H2        1.0  0.19815538835646862  0.4751238264058841  0.6686123708625473  1.0000
  H   H3        1.0  0.7076269808265537  0.6520261988877536  0.18715807352300823  1.0000
  H   H4        1.0  0.2923710348657593  0.347973788710469  0.8128408503326838  1.0000
  H   H5        1.0  0.8126108820125426  0.47882104062355774  0.1997073267301133  1.0000
  H   H6        1.0  0.18738806862112511  0.5211789469746648  0.800293225194338  1.0000
  H   H7        1.0  0.5304913128286941  0.1353458118729094  0.4162200665093749  1.0000
  H   H8        1.0  0.4695031608467275  0.8646562956875954  0.5837826996711681  1.0000
  H   H9        1.0  0.2955317449711572  0.1806557656999956  0.4891560737968916  1.0000
  H   H10       1.0  0.7044662707211559  0.819344221898227  0.5108497698754205  1.0000
  H   H11       1.0  0.15495058382828114  0.4124874208579854  0.4906825527165069  1.0000
  H   H12       1.0  0.845046128326267  0.5875136267213747  0.5093229987328414  1.0000
  H   H13       1.0  0.23967857874562534  0.6122451066889383  0.41372550360267013  1.0000
  H   H14       1.0  0.7603196346952219  0.3877570008715594  0.5862759900591996  1.0000
  H   H15       1.0  0.5497130029286907  0.7386096983593262  0.3114502299121468  1.0000
  H   H16       1.0  0.45028407782226054  0.26139028923889635  0.6885505257831  1.0000
  H   H17       1.0  0.3881486320380462  0.7389859916641655  0.3621124974058034  1.0000
  H   H18       1.0  0.6118508849405657  0.2610150559151947  0.6378866935478059  1.0000
  H   H19       1.0  0.4764157667877527  0.7760238526716492  0.09070288137196052  1.0000
  H   H20       1.0  0.5235835524423322  0.22397507494542876  0.9092971996837778  1.0000
  H   H21       1.0  0.394176718117329  0.9198622334413571  0.13411524189460522  1.0000
  H   H22       1.0  0.6058209289785665  0.0801388141380031  0.8658850178068747  1.0000
  H   H23       1.0  0.27075683863369443  0.6973944516775603  0.18065573839149351  1.0000
  H   H24       1.0  0.7292426783449172  0.3026065959017998  0.8193408576308772  1.0000
  H   H25       1.0  0.19115805107986011  0.8651025477476965  0.18452076088426123  1.0000
  H   H26       1.0  0.8088422030915793  0.1348963798693816  0.8154783533090041  1.0000
  H   H27       1.0  0.2532334176228376  0.5813848157676418  0.03607776428336947  1.0000
  H   H28       1.0  0.7467659016072474  0.4186141118494362  0.9639223167723684  1.0000
  H   H29       1.0  0.4097512116690113  0.5967121430576725  0.0472827056921189  1.0000
  H   H30       1.0  0.5902496088473727  0.4032878445405501  0.9527159125073794  1.0000
  H   H31       1.0  0.35726764129572786  0.6014862981139899  0.903647117917842  1.0000
  H   H32       1.0  0.6427318756828839  0.3985147494653773  0.09635120805868519  1.0000
  H   H33       1.0  0.121025776443652  0.1218395321820651  0.045644287100358796  1.0000
  H   H34       1.0  0.8789757812655523  0.8781583354538753  0.9543559842929524  1.0000
  H   H35       1.0  0.0070674473255323104  0.351645563380778  0.8646427322077698  1.0000
  H   H36       1.0  0.9929317010566693  0.6483565441797268  0.13535865956870194  1.0000
  H   H37       1.0  0.983273822824259  0.3642593389514062  0.6488144077283381  1.0000
  H   H38       1.0  0.01672643134718041  0.6357395886656718  0.3511873013961662  1.0000
  H   H39       1.0  0.07150997055388332  0.14600604220180458  0.6056699669759169  1.0000
  H   H40       1.0  0.9284873079456092  0.8539960653587002  0.394329033640119  1.0000
  H   H41       1.0  0.5328520078195781  0.0471076818411902  0.6525483522964848  1.0000
  H   H42       1.0  0.467150484830981  0.9528901857947503  0.3474544121426604  1.0000
  H   H43       1.0  0.4504858383044308  0.8808920268149407  0.8313562347180578  1.0000
  H   H44       1.0  0.549520367210917  0.11910054091529788  0.1686465665379728  1.0000
  H   H45       1.0  0.6144904423913361  0.6499412159846116  0.9821589245273117  1.0000
  H   H46       1.0  0.38551819935166526  0.3500524117267716  0.017840582032924553  1.0000
  H   H47       1.0  0.8605646183291926  0.5929947891983289  0.9536164830994663  1.0000
  H   H48       1.0  0.13944291762457084  0.407002018456474  0.046380976158587744  1.0000
  C   C1        1.0  0.7442946647498233  0.5389336310761834  0.2509478711761801  1.0000
  C   C2        1.0  0.2557033509424897  0.46106635652203926  0.7490519176565869  1.0000
  C   C3        1.0  0.6334186788919993  0.4859981729251359  0.2986695711814704  1.0000
  C   C4        1.0  0.3665793368003136  0.5140018146730867  0.7013293526742217  1.0000
  C   C5        1.0  0.5154057019610648  0.3485472385074146  0.3729412670054089  1.0000
  C   C6        1.0  0.4845902730006558  0.6514559290342277  0.6270574413876558  1.0000
  C   C7        1.0  0.467084575170027  0.2381025035845425  0.4152201699049627  1.0000
  C   C8        1.0  0.5329085949676227  0.7619006639570998  0.5847797091213778  1.0000
  C   C9        1.0  0.3364293613924901  0.2644133554512891  0.4564618039755146  1.0000
  C   C10       1.0  0.6635664158206965  0.7355876921280782  0.5435438493592313  1.0000
  C   C11       1.0  0.2559741946156393  0.3974971675705987  0.45602694080991313  1.0000
  C   C12       1.0  0.7440247560180281  0.6025028200276168  0.5439779359999263  1.0000
  C   C13       1.0  0.30194306160412043  0.5094258760900203  0.4134353130863033  1.0000
  C   C14       1.0  0.6980558890295471  0.4905741115081952  0.5865695637235434  1.0000
  C   C15       1.0  0.4326264063314013  0.482283999009212  0.3711012788917429  1.0000
  C   C16       1.0  0.5673712407645013  0.5177170485701481  0.6288989808097369  1.0000
  C   C17       1.0  0.46401191897184196  0.7170836013602937  0.2942865981861758  1.0000
  C   C18       1.0  0.5359860967204709  0.2829163862379218  0.7057131906465984  1.0000
  C   C19       1.0  0.40521031299022775  0.810369361582552  0.1569643967001113  1.0000
  C   C20       1.0  0.5947886376434398  0.1896306260156706  0.843035290247265  1.0000
  C   C21       1.0  0.26873591617574993  0.80622907524819  0.1375802286852519  1.0000
  C   C22       1.0  0.7312649043406336  0.1937709123500326  0.8624183895142465  1.0000
  C   C23       1.0  0.32331200197705817  0.6332295533252292  0.9828483541024439  1.0000
  C   C24       1.0  0.6766882521943814  0.3667693742918487  0.01715076009082134  1.0000
  C   C25       1.0  0.25473275725508426  0.7891389993216933  0.9301699933340474  1.0000
  C   C26       1.0  0.7452665619750009  0.2108599282953918  0.06982835776753396  1.0000
  C   C27       1.0  0.1623932589008561  0.0065803629195358  0.9247425482677444  1.0000
  C   C28       1.0  0.8376053231364009  0.9934206846598244  0.07525674457126272  1.0000
  C   C29       1.0  0.11207687576646208  0.1268097837493514  0.9507132664473588  1.0000
  C   C30       1.0  0.8879263809775751  0.8731912638300088  0.04928551696465173  1.0000
  C   C31       1.0  0.0481247890154748  0.2551523002277065  0.8482020986452669  1.0000
  C   C32       1.0  0.9518756629044917  0.7448487473516607  0.15179785540001936  1.0000
  C   C33       1.0  0.03523302428225611  0.2615535263345166  0.7255346852526687  1.0000
  C   C34       1.0  0.964766294947829  0.7384454012825685  0.2744671257572265  1.0000
  C   C35       1.0  0.08447005611257198  0.1411290689748697  0.6998592388059067  1.0000
  C   C36       1.0  0.9155270246383864  0.858870918623353  0.3001415168893403  1.0000
  C   C37       1.0  0.1498337194455317  0.0117922901868326  0.8019241644466462  1.0000
  C   C38       1.0  0.850165231188136  0.9882076974113899  0.19807552250072297  1.0000
  C   C39       1.0  0.7831655605592048  0.026002397354894  0.5911623109869595  1.0000
  C   C40       1.0  0.21683489136076164  0.9739986502244661  0.40883764305832665  1.0000
  C   C41       1.0  0.7425606083738431  0.9156371486157652  0.7010979212225549  1.0000
  C   C42       1.0  0.257440778487485  0.0843638989635949  0.2989010659602513  1.0000
  C   C43       1.0  0.6046367334890801  0.9478319557928145  0.7193162688043484  1.0000
  C   C44       1.0  0.39536669410284025  0.0521659118431259  0.28068639374939863  1.0000
  C   C45       1.0  0.5583218662857803  0.8539038469994864  0.8203323354071514  1.0000
  C   C46       1.0  0.4416836020367327  0.14609084069303438  0.17967054260923024  1.0000
  C   C47       1.0  0.6499170172721378  0.725271955669804  0.904422449322915  1.0000
  C   C48       1.0  0.35009162447086345  0.2747216720415722  0.09557705723732109  1.0000
  C   C49       1.0  0.787256635086891  0.6923563613172945  0.8883700162075954  1.0000
  C   C50       1.0  0.21275053227045507  0.307641506318646  0.11162704894208988  1.0000
  C   C51       1.0  0.8345809250155088  0.7869225787571352  0.7872835253215554  1.0000
  C   C52       1.0  0.16542139678717402  0.2130784688222249  0.2127127650446283  1.0000
  C   C53       1.0  0.9833820467482325  0.7488607759680335  0.7778019275337941  1.0000
  C   C54       1.0  0.016620841399394203  0.2511413315924713  0.222192136884459  1.0000
  N   N1        1.0  0.6401468634846951  0.3540686802677016  0.3277549244755278  1.0000
  N   N2        1.0  0.35984928232490887  0.645931307330514  0.6722442031509602  1.0000
  N   N3        1.0  0.5097896375876019  0.566444381593854  0.3230149561624671  1.0000
  N   N4        1.0  0.49020931304606563  0.43355560600436865  0.6769864607390588  1.0000
  N   N5        1.0  0.22859598479265483  0.8647124746880338  0.0029561017352646483  1.0000
  N   N6        1.0  0.7714039007823744  0.1352875129101818  0.9970417533725566  1.0000
  N   N7        1.0  0.2090581798285029  0.8739300706848638  0.8086913507526674  1.0000
  N   N8        1.0  0.7909394672673926  0.1260709768944963  0.19130717899465569  1.0000
  O   O1        1.0  0.7747528220208937  0.024723000118442  0.4804780133667563  1.0000
  O   O2        1.0  0.22524762989907293  0.9752780474609182  0.5195219406785297  1.0000
  O   O3        1.0  0.8093299312022922  0.11663608476388988  0.608854061989284  1.0000
  O   O4        1.0  0.19066958577631954  0.8833649628154702  0.39114599394140004  1.0000
  O   O5        1.0  0.0233697265913335  0.8145562870870862  0.6667044545180475  1.0000
  O   O6        1.0  0.9766318580185215  0.18544688045455618  0.3332884527001667  1.0000
  O   O7        1.0  0.06069321239962726  0.6596570031174167  0.874125765451339  1.0000
  O   O8        1.0  0.9393115456307087  0.34034510444308097  0.12586896017320018  1.0000
