data_image0
_chemical_formula_structural       Cd4H40C40N8Cl8O4
_chemical_formula_sum              "Cd4 H40 C40 N8 Cl8 O4"
_cell_length_a       3.833519764002311
_cell_length_b       16.443294816015534
_cell_length_c       18.33048727402445
_cell_angle_alpha    89.9998504775867
_cell_angle_beta     89.99988550798295
_cell_angle_gamma    89.99995134620906

_space_group_name_H-M_alt    "P 1"
_space_group_IT_number       1

loop_
  _space_group_symop_operation_xyz
  'x, y, z'

loop_
  _atom_site_type_symbol
  _atom_site_label
  _atom_site_symmetry_multiplicity
  _atom_site_fract_x
  _atom_site_fract_y
  _atom_site_fract_z
  _atom_site_occupancy
  Cd  Cd1       1.0  0.2701014358972245  0.4974483516355266  0.4042275669638755  1.0000
  Cd  Cd2       1.0  0.7701005569151962  0.5025522325247492  0.5957722810773376  1.0000
  Cd  Cd3       1.0  0.2701045704971963  0.9974483496380201  0.095772551720934  1.0000
  Cd  Cd4       1.0  0.7701026394539243  0.0025516263711296006  0.9042272963198812  1.0000
  H   H1        1.0  0.04979887391581882  0.1826771941214034  0.2074874403790048  1.0000
  H   H2        1.0  0.5498028079580382  0.8173228248667146  0.7925130467520632  1.0000
  H   H3        1.0  0.04980276757785872  0.6826778362704786  0.29251241790274213  1.0000
  H   H4        1.0  0.5498015228662256  0.3173227908688077  0.7074875236878242  1.0000
  H   H5        1.0  0.48101507967187745  0.29385107158016405  0.394247665811598  1.0000
  H   H6        1.0  0.9810237887867218  0.7061506877308332  0.60575318374066  1.0000
  H   H7        1.0  0.48101812045623416  0.793849824258331  0.1057522945518343  1.0000
  H   H8        1.0  0.9810155308803491  0.20614767800118022  0.8942469183888166  1.0000
  H   H9        1.0  0.5669891612254787  0.0940877261488282  0.287365834586666  1.0000
  H   H10       1.0  0.0669960658214634  0.9059141139363547  0.7126351907810573  1.0000
  H   H11       1.0  0.5669911972342309  0.5940867761450975  0.21263510260931892  1.0000
  H   H12       1.0  0.0669940298168896  0.40591141503555406  0.7873664683019115  1.0000
  H   H13       1.0  0.17530189854431205  0.0882141726494083  0.3375571708429562  1.0000
  H   H14       1.0  0.6753093148309548  0.9117870381523332  0.6624448996091064  1.0000
  H   H15       1.0  0.1753044063886691  0.5882133686106245  0.1624439464364542  1.0000
  H   H16       1.0  0.6753094155675757  0.411785409590756  0.8375564874001995  1.0000
  H   H17       1.0  0.5578221522906406  0.12708158756933594  0.3803916937491466  1.0000
  H   H18       1.0  0.05783005332256152  0.8729202543041836  0.6196093355111145  1.0000
  H   H19       1.0  0.557827671386626  0.6270796918005103  0.11960862453629768  1.0000
  H   H20       1.0  0.0578245342344417  0.37291789301863787  0.8803924047289442  1.0000
  H   H21       1.0  0.7546884345214623  0.44217559662970973  0.2130345753479617  1.0000
  H   H22       1.0  0.25469592664720864  0.5578243823869042  0.7869647336980421  1.0000
  H   H23       1.0  0.754694988905243  0.9421768630633095  0.2869638303748801  1.0000
  H   H24       1.0  0.25468937226005295  0.05782494040517611  0.7130354786689851  1.0000
  H   H25       1.0  0.5549142656316093  0.4962914654148207  0.0932428670782954  1.0000
  H   H26       1.0  0.05491822303039132  0.5037079444262745  0.9067565268027736  1.0000
  H   H27       1.0  0.5549196938768618  0.9962929916222194  0.40675658782905094  1.0000
  H   H28       1.0  0.054915403344303115  0.0037088508195282  0.5932438971270813  1.0000
  H   H29       1.0  0.6809693247289987  0.4223785788685531  0.9791479089382308  1.0000
  H   H30       1.0  0.18096829433225287  0.5776208063796417  0.0208519769541624  1.0000
  H   H31       1.0  0.6809705550712482  0.9223794029047807  0.5208512687044405  1.0000
  H   H32       1.0  0.1809722811278931  0.07762119864494109  0.4791480716461863  1.0000
  H   H33       1.0  0.017297472117597603  0.2911549352280005  0.9843231886809821  1.0000
  H   H34       1.0  0.5172908498835727  0.7088444819513597  0.0156773122546809  1.0000
  H   H35       1.0  0.017296142539827006  0.7911557743142552  0.5156765780860937  1.0000
  H   H36       1.0  0.517297396601805  0.20884485916742793  0.48432283176856583  1.0000
  H   H37       1.0  0.22616460496089996  0.23826959582696355  0.10152070580396363  1.0000
  H   H38       1.0  0.7261651396974076  0.7617303887535769  0.898479706434557  1.0000
  H   H39       1.0  0.22616489388557431  0.7382711461079908  0.3984789473989068  1.0000
  H   H40       1.0  0.7261648507744881  0.26173066292600566  0.6015203737590085  1.0000
  C   C1        1.0  0.22958593966114907  0.34520895228657617  0.29511390594099407  1.0000
  C   C2        1.0  0.7295939066358273  0.6547885990232557  0.7048865048459377  1.0000
  C   C3        1.0  0.22959326564679125  0.8452110655704389  0.2048854953782353  1.0000
  C   C4        1.0  0.7295839720857203  0.1547883101939007  0.7951132787894082  1.0000
  C   C5        1.0  0.361733322419255  0.2828655268706655  0.3416211706424903  1.0000
  C   C6        1.0  0.861741496215018  0.7171362557131291  0.6583786384841233  1.0000
  C   C7        1.0  0.3617358684796061  0.7828641265032416  0.1583777750212363  1.0000
  C   C8        1.0  0.8617363415951903  0.2171340071778687  0.8416214885709651  1.0000
  C   C9        1.0  0.324407615405086  0.2093839589048727  0.30588189825977  1.0000
  C   C10       1.0  0.8244125731087383  0.7906166146560522  0.6941206544153928  1.0000
  C   C11       1.0  0.32440460834458673  0.7093830627506393  0.1941183264110862  1.0000
  C   C12       1.0  0.8244077544816337  0.29061568636393537  0.8058809530324638  1.0000
  C   C13       1.0  0.4109234536254578  0.1252578326169527  0.3291988708252305  1.0000
  C   C14       1.0  0.9109283196605561  0.8747427240668343  0.6708025540327398  1.0000
  C   C15       1.0  0.4109258828989228  0.6252570042718303  0.1708015141106571  1.0000
  C   C16       1.0  0.910925890396719  0.3747411198110484  0.829198819671696  1.0000
  C   C17       1.0  0.0014933133947537002  0.33700642864913277  0.16463570858258691  1.0000
  C   C18       1.0  0.5014974148891584  0.6629929916116879  0.835365344601229  1.0000
  C   C19       1.0  0.0014941956509844003  0.8370069461786043  0.33536380880741495  1.0000
  C   C20       1.0  0.50149914121085  0.1629930822357508  0.6646350622181958  1.0000
  C   C21       1.0  0.8166370218103156  0.4105658190336571  0.16254166979513943  1.0000
  C   C22       1.0  0.3166387053205001  0.5894335397470983  0.8374576129464942  1.0000
  C   C23       1.0  0.8166404929499791  0.9105675467750416  0.3374573291839269  1.0000
  C   C24       1.0  0.31663784274400814  0.089434852758572  0.6625419535535928  1.0000
  C   C25       1.0  0.7079173525023279  0.4406943175290364  0.0952586671626676  1.0000
  C   C26       1.0  0.20792112340346597  0.5593050624620801  0.9047406617460539  1.0000
  C   C27       1.0  0.7079254082672223  0.9406952414477627  0.4047408529687928  1.0000
  C   C28       1.0  0.20792089333755115  0.05930535484225169  0.5952595670153188  1.0000
  C   C29       1.0  0.7767030837158162  0.3984680740946374  0.030826699601860203  1.0000
  C   C30       1.0  0.2767034842977126  0.6015312924763238  0.9691731456371289  1.0000
  C   C31       1.0  0.7767000994997987  0.8984682024849916  0.4691723446685785  1.0000
  C   C32       1.0  0.27670385994526475  0.10153238038826369  0.5308269550302996  1.0000
  C   C33       1.0  0.9594647513602865  0.3251767794709153  0.033829394561351506  1.0000
  C   C34       1.0  0.4594649093381378  0.6748219432937218  0.9661703730691117  1.0000
  C   C35       1.0  0.9594670125078795  0.8251775247436085  0.46616974373014136  1.0000
  C   C36       1.0  0.459465256759657  0.1748224143228114  0.5338294783591098  1.0000
  C   C37       1.0  0.07423624399159932  0.29421095568458366  0.1003139397734927  1.0000
  C   C38       1.0  0.5742421912382626  0.705789058534954  0.8996870825191152  1.0000
  C   C39       1.0  0.07424173870933262  0.7942112861536756  0.3996861924825197  1.0000
  C   C40       1.0  0.5742393050998871  0.20578994437082798  0.6003121021119355  1.0000
  N   N1        1.0  0.11168160817159392  0.30514409197513  0.23233605044794817  1.0000
  N   N2        1.0  0.6116836197879325  0.6948571312406739  0.7676649559429906  1.0000
  N   N3        1.0  0.11168312686425713  0.8051435900877877  0.2676634947665378  1.0000
  N   N4        1.0  0.6116821011077749  0.1948564168299427  0.7323353294688815  1.0000
  N   N5        1.0  0.18734848305602728  0.2236683116481473  0.2388149537331685  1.0000
  N   N6        1.0  0.6873502545029527  0.776332288654892  0.761186020526786  1.0000
  N   N7        1.0  0.18735006265452375  0.723667828602359  0.26118475014801135  1.0000
  N   N8        1.0  0.687348674910709  0.27633216355165063  0.7388151330341871  1.0000
  Cl  Cl1       1.0  0.7705421586488443  0.41134806442988037  0.47129397288527747  1.0000
  Cl  Cl2       1.0  0.2705441389848744  0.5886525196449242  0.528705329428938  1.0000
  Cl  Cl3       1.0  0.7705485322899224  0.9113482574722127  0.028706680454909903  1.0000
  Cl  Cl4       1.0  0.2705455910435859  0.0886517184488298  0.971294258476064  1.0000
  Cl  Cl5       1.0  0.7695615646802596  0.5901560754941357  0.35252278031430967  1.0000
  Cl  Cl6       1.0  0.26956048065073185  0.4098451169213179  0.6474776134947222  1.0000
  Cl  Cl7       1.0  0.7695634522897807  0.0901549997115367  0.147479171145477  1.0000
  Cl  Cl8       1.0  0.26956120160824076  0.909844368250198  0.8525223137435989  1.0000
  O   O1        1.0  0.2177428666954314  0.4221691897751185  0.30117257708462125  1.0000
  O   O2        1.0  0.7177563921492125  0.5778314045978092  0.6988278387267002  1.0000
  O   O3        1.0  0.2177580753451523  0.9221694962254858  0.19882719457933726  1.0000
  O   O4        1.0  0.7177385749406471  0.0778298818488281  0.8011715846162559  1.0000
