data_image0
_chemical_formula_structural       Cd2H28C24N8O10
_chemical_formula_sum              "Cd2 H28 C24 N8 O10"
_cell_length_a       8.442803504095089
_cell_length_b       9.674793202584299
_cell_length_c       11.323567181663423
_cell_angle_alpha    110.24869442744156
_cell_angle_beta     89.99837051379322
_cell_angle_gamma    89.99977404092468

_space_group_name_H-M_alt    "P 1"
_space_group_IT_number       1

loop_
  _space_group_symop_operation_xyz
  'x, y, z'

loop_
  _atom_site_type_symbol
  _atom_site_label
  _atom_site_symmetry_multiplicity
  _atom_site_fract_x
  _atom_site_fract_y
  _atom_site_fract_z
  _atom_site_occupancy
  Cd  Cd1       1.0  0.4972017800895331  0.489069191038105  0.8986608203951081  1.0000
  Cd  Cd2       1.0  0.9971835387898551  0.5109350177426036  0.10133207825257531  1.0000
  H   H1        1.0  0.7156340608816977  0.5524949539603907  0.7620844505840554  1.0000
  H   H2        1.0  0.21560537898396603  0.4475009883458653  0.23790958948766425  1.0000
  H   H3        1.0  0.8125812854422778  0.43238495268980864  0.7979173091493907  1.0000
  H   H4        1.0  0.3125522796118787  0.5676131104787526  0.20208052648987263  1.0000
  H   H5        1.0  0.5341305357095507  0.3880966345809184  0.5847809217333906  1.0000
  H   H6        1.0  0.03410389081665951  0.6119133014298939  0.41520055612728884  1.0000
  H   H7        1.0  0.36361160251311736  0.3249856715949163  0.3916466981229335  1.0000
  H   H8        1.0  0.8635923234673086  0.6750072161507105  0.6083468487023754  1.0000
  H   H9        1.0  0.06980352590881012  0.3186507274522228  0.4163540267399029  1.0000
  H   H10       1.0  0.5697780538325574  0.6813510129997692  0.5836588826865496  1.0000
  H   H11       1.0  0.9561257437351361  0.3666953802684034  0.6330581398794666  1.0000
  H   H12       1.0  0.4560996618333846  0.6333123188537682  0.3669586883529591  1.0000
  H   H13       1.0  0.7284863716410187  0.9372604654411202  0.722612695888387  1.0000
  H   H14       1.0  0.22846845995229612  0.06274196231186828  0.2773846170782194  1.0000
  H   H15       1.0  0.6867868755490107  0.20286419667850447  0.7453106132769067  1.0000
  H   H16       1.0  0.18677148721272377  0.7971342655616879  0.2546820904927358  1.0000
  H   H17       1.0  0.3729375862730322  0.2664248355833293  0.04060709256251731  1.0000
  H   H18       1.0  0.872961551690466  0.7335763896008487  0.9593779441597693  1.0000
  H   H19       1.0  0.39460422739427514  0.0013527465301593  0.025032475291887103  1.0000
  H   H20       1.0  0.8946229353133291  0.9986483758433023  0.9749582504577462  1.0000
  H   H21       1.0  0.6425932357085387  0.19194076176773928  0.23759783531153297  1.0000
  H   H22       1.0  0.1425975601925984  0.8080447427815682  0.7624152263743016  1.0000
  H   H23       1.0  0.7963117097975214  0.20841282433082847  0.32992512892792564  1.0000
  H   H24       1.0  0.29630540516694737  0.791559091166043  0.670067635117505  1.0000
  H   H25       1.0  0.6936844406548276  0.9871169547626263  0.3180239029649813  1.0000
  H   H26       1.0  0.19369397573451153  0.012867835964442508  0.6819878620578808  1.0000
  H   H27       1.0  0.6099853550804611  0.10153057656439299  0.4462393459242123  1.0000
  H   H28       1.0  0.10997710745940029  0.8984665111304937  0.5537811362841227  1.0000
  C   C1        1.0  0.40537936107016753  0.3823871624384622  0.5908126300157976  1.0000
  C   C2        1.0  0.9053607978390377  0.6176149680885813  0.40917990805392185  1.0000
  C   C3        1.0  0.31012045823322154  0.34783657136377844  0.48384294104347003  1.0000
  C   C4        1.0  0.8101036001799004  0.6521614975492369  0.5161540656329466  1.0000
  C   C5        1.0  0.14653708921915853  0.3428470786034906  0.4983372690691256  1.0000
  C   C6        1.0  0.6465195772731889  0.6571536468632857  0.5016754754251097  1.0000
  C   C7        1.0  0.08336853501065633  0.3694534679874406  0.617938540647778  1.0000
  C   C8        1.0  0.5833497653879292  0.6305545766799553  0.38207227607957617  1.0000
  C   C9        1.0  0.18719459282839784  0.40214801399530126  0.7200965432812584  1.0000
  C   C10       1.0  0.6871656361062363  0.5978627000227446  0.27990393719053236  1.0000
  C   C11       1.0  0.12794984998139816  0.43071458233495  0.852124725874987  1.0000
  C   C12       1.0  0.6279272234658251  0.5692936838976052  0.14787724095478447  1.0000
  C   C13       1.0  0.582078962869474  0.7888369696063576  0.8570877659408895  1.0000
  C   C14       1.0  0.0820667325289079  0.21116753208843872  0.14291415375282676  1.0000
  C   C15       1.0  0.5615330539592379  0.9489702144158654  0.871014348236571  1.0000
  C   C16       1.0  0.0615291318876814  0.051036405767483486  0.12897711195003583  1.0000
  C   C17       1.0  0.6460878296181819  0.006415637001872204  0.7921301980265127  1.0000
  C   C18       1.0  0.1460781378591278  0.9935855393559473  0.2078623615747262  1.0000
  C   C19       1.0  0.6249094709215868  0.15345615610745966  0.8053160248364152  1.0000
  C   C20       1.0  0.12490208195714562  0.8465474616717612  0.19467589524186482  1.0000
  C   C21       1.0  0.44883440977294253  0.18959762300575275  0.9702413349740981  1.0000
  C   C22       1.0  0.9488496180686496  0.8104015262206729  0.029744146742899647  1.0000
  C   C23       1.0  0.4610381700527953  0.0428060291530699  0.9618255512193274  1.0000
  C   C24       1.0  0.9610536269862778  0.957198541875101  0.038163808464972165  1.0000
  N   N1        1.0  0.34515540210320955  0.40987171946962764  0.7063407200289976  1.0000
  N   N2        1.0  0.8451342451513285  0.5901413357236435  0.2936614190194718  1.0000
  N   N3        1.0  0.528254889561012  0.24370624161019797  0.892690178829213  1.0000
  N   N4        1.0  0.028254758540320807  0.7562907887500143  0.10729494452792213  1.0000
  N   N5        1.0  0.6751008519245049  0.20263043293290647  0.3271732754584138  1.0000
  N   N6        1.0  0.17509560240668523  0.7973523292145187  0.6728356820289039  1.0000
  N   N7        1.0  0.6176150227589832  0.0747235451896913  0.3509647614674237  1.0000
  N   N8        1.0  0.11761724915734112  0.925270160400643  0.6490555099019419  1.0000
  O   O1        1.0  0.22700521170325771  0.46309028773953287  0.94218162242116  1.0000
  O   O2        1.0  0.7269849648074996  0.536905695496756  0.05781836778398029  1.0000
  O   O3        1.0  0.7140733486052186  0.444785256387199  0.7539519417295042  1.0000
  O   O4        1.0  0.2140462744824916  0.5552063594942922  0.2460427093299274  1.0000
  O   O5        1.0  0.9803642380650643  0.422088925322434  0.8706120890733902  1.0000
  O   O6        1.0  0.48034150939651016  0.5779303499184676  0.12940121574965963  1.0000
  O   O7        1.0  0.47977082644019475  0.7330482084439323  0.9098560822723203  1.0000
  O   O8        1.0  0.9797635093605452  0.2669555421618383  0.09014943345803773  1.0000
  O   O9        1.0  0.7006807452674836  0.7244507988429589  0.7923428107926329  1.0000
  O   O10       1.0  0.200659858002922  0.2755523314531771  0.20766501172280985  1.0000
