data_image0
_chemical_formula_structural       Cu4H40C20S8I4
_chemical_formula_sum              "Cu4 H40 C20 S8 I4"
_cell_length_a       8.322950251047368
_cell_length_b       8.59571787314734
_cell_length_c       12.371606313987678
_cell_angle_alpha    90.00028422658768
_cell_angle_beta     94.39455480260747
_cell_angle_gamma    90.00057584611052

_space_group_name_H-M_alt    "P 1"
_space_group_IT_number       1

loop_
  _space_group_symop_operation_xyz
  'x, y, z'

loop_
  _atom_site_type_symbol
  _atom_site_label
  _atom_site_symmetry_multiplicity
  _atom_site_fract_x
  _atom_site_fract_y
  _atom_site_fract_z
  _atom_site_occupancy
  Cu  Cu1       1.0  0.373426825385458  0.4116620977148457  0.5165014184274384  1.0000
  Cu  Cu2       1.0  0.6265781020445759  0.9116604501257299  0.9834990401727596  1.0000
  Cu  Cu3       1.0  0.6265774653343215  0.5883372097429315  0.4834961593123311  1.0000
  Cu  Cu4       1.0  0.3734286296195534  0.08833769399442562  0.016504315552367605  1.0000
  H   H1        1.0  0.27289628517606707  0.0063510908546505  0.681807183921798  1.0000
  H   H2        1.0  0.7271102396538254  0.5063410823300742  0.8181967962136981  1.0000
  H   H3        1.0  0.7271092503196357  0.9936540334851289  0.31819772970830235  1.0000
  H   H4        1.0  0.272895251685199  0.49365822513077995  0.1818000321596074  1.0000
  H   H5        1.0  0.4422425006339523  0.0013974556865506  0.7785521172962434  1.0000
  H   H6        1.0  0.5577519194789102  0.501394439036858  0.7214512514076079  1.0000
  H   H7        1.0  0.5577594197410177  0.9986030151554034  0.2214526188503712  1.0000
  H   H8        1.0  0.4422523888779679  0.4986025416926267  0.27854956042554596  1.0000
  H   H9        1.0  0.4579275552516151  0.0910800938508274  0.6486164805587579  1.0000
  H   H10       1.0  0.5420726572761368  0.5910685483788213  0.8513850588335361  1.0000
  H   H11       1.0  0.5420779758252224  0.90892386711608  0.35138762454449335  1.0000
  H   H12       1.0  0.45792921455525704  0.4089307590611568  0.14861078354110194  1.0000
  H   H13       1.0  0.29267440147127377  0.5749496960180379  0.7592345470644022  1.0000
  H   H14       1.0  0.707316015608569  0.0749398604211109  0.7407704970030766  1.0000
  H   H15       1.0  0.7073190483818834  0.4250507747587165  0.24076330677975485  1.0000
  H   H16       1.0  0.292677443063134  0.9250594469914973  0.2592289738877724  1.0000
  H   H17       1.0  0.11420248517786288  0.5914265007924159  0.6719644176831425  1.0000
  H   H18       1.0  0.8857917281146894  0.09142481688064662  0.8280408699504067  1.0000
  H   H19       1.0  0.8857837476968129  0.40856931647728356  0.3280355067769137  1.0000
  H   H20       1.0  0.11420534124609819  0.9085756539169836  0.17195796989241796  1.0000
  H   H21       1.0  0.4396395876219826  0.29078461780750325  0.7951228603775393  1.0000
  H   H22       1.0  0.5603579994890993  0.7907815077126802  0.7048792432580344  1.0000
  H   H23       1.0  0.5603575038011641  0.709215853004679  0.20488002208784914  1.0000
  H   H24       1.0  0.4396402704653681  0.20921430960817136  0.2951188472089897  1.0000
  H   H25       1.0  0.9654082689564518  0.4248038732333796  0.7965332069170258  1.0000
  H   H26       1.0  0.0345896212644448  0.9248061823305066  0.7034758432138233  1.0000
  H   H27       1.0  0.0345936337174919  0.5751872906372099  0.20346829511287015  1.0000
  H   H28       1.0  0.9654050512575337  0.07519196172395232  0.29652530388177223  1.0000
  H   H29       1.0  0.0452207457474003  0.5957825007155223  0.8604572984223894  1.0000
  H   H30       1.0  0.9547759298941898  0.0957812946396785  0.6395489335212405  1.0000
  H   H31       1.0  0.9547739355867293  0.40421331660482457  0.13954546571756055  1.0000
  H   H32       1.0  0.0452199256163297  0.9042203395161081  0.3604482301168377  1.0000
  H   H33       1.0  0.0911523252318602  0.3709677350923499  0.9844567155608885  1.0000
  H   H34       1.0  0.9088545915072074  0.8709631232922419  0.5155485493033042  1.0000
  H   H35       1.0  0.9088519919947089  0.6290373892327068  0.015545713337623102  1.0000
  H   H36       1.0  0.0911448746860017  0.12903851087859414  0.48444798328441163  1.0000
  H   H37       1.0  0.27977847778323905  0.4406962433517805  0.945768146614931  1.0000
  H   H38       1.0  0.7202243630051014  0.9406831192088703  0.5542331186039038  1.0000
  H   H39       1.0  0.7202258394497248  0.5593100443432492  0.05423428228591122  1.0000
  H   H40       1.0  0.27977630821983  0.05931851496795562  0.4457634731418595  1.0000
  C   C1        1.0  0.3788133403154034  0.07180058276888698  0.7144587859665067  1.0000
  C   C2        1.0  0.6211866735972792  0.5717928154622244  0.7855451016918736  1.0000
  C   C3        1.0  0.6211909901293993  0.9282010514550051  0.2855460684985403  1.0000
  C   C4        1.0  0.37881761711611256  0.42820532862558736  0.21445247604556533  1.0000
  C   C5        1.0  0.17951236914532837  0.5164245671881318  0.7321206556573047  1.0000
  C   C6        1.0  0.8204906777880153  0.016418337158384595  0.767888038555526  1.0000
  C   C7        1.0  0.8204883373793733  0.4835770670119786  0.26788240428456334  1.0000
  C   C8        1.0  0.17950518654105  0.983582133633256  0.23211074212924393  1.0000
  C   C9        1.0  0.3324504642685469  0.22671720179914703  0.7620474980608947  1.0000
  C   C10       1.0  0.667550051490167  0.726709538965025  0.7379577602134834  1.0000
  C   C11       1.0  0.6675514296443766  0.773285595765273  0.2379523869433059  1.0000
  C   C12       1.0  0.33245304301643586  0.27328860512261594  0.262041375414924  1.0000
  C   C13       1.0  0.07804625110731682  0.4827413665964286  0.8262815655495288  1.0000
  C   C14       1.0  0.9219474159697683  0.982741500792855  0.6737202035660844  1.0000
  C   C15       1.0  0.9219484081708486  0.5172556140793318  0.17371715597019494  1.0000
  C   C16       1.0  0.0780508584355246  0.0172612967506893  0.32627869543944854  1.0000
  C   C17       1.0  0.16540070182739436  0.38608351070347163  0.9155246246915426  1.0000
  C   C18       1.0  0.8346099784713913  0.8860786795957483  0.5844776441658655  1.0000
  C   C19       1.0  0.8346096317136541  0.6139181235358182  0.08447648294119861  1.0000
  C   C20       1.0  0.1653906971787933  0.1139252813239224  0.4155197561090845  1.0000
  S   S1        1.0  0.2241320464464138  0.34302072759864904  0.6565184874191061  1.0000
  S   S2        1.0  0.7758637134817831  0.8430183475047102  0.8434853244290111  1.0000
  S   S3        1.0  0.7758686291781984  0.6569785798411658  0.3434789128465071  1.0000
  S   S4        1.0  0.22412974520270976  0.15698328664782932  0.15651414646649905  1.0000
  S   S5        1.0  0.2066887983943815  0.18854682819497273  0.8733974001609398  1.0000
  S   S6        1.0  0.7933076651780837  0.6885453922916726  0.626604293482224  1.0000
  S   S7        1.0  0.7933070571033554  0.8114524792208898  0.12659976347247692  1.0000
  S   S8        1.0  0.2066978526677303  0.311459732036468  0.3733973860498239  1.0000
  I   I1        1.0  0.6580389408971499  0.28476070989306373  0.5081755443370853  1.0000
  I   I2        1.0  0.3419597630149553  0.7847633731117156  0.9918225516883725  1.0000
  I   I3        1.0  0.3419617347018971  0.7152339440668812  0.4918218559191987  1.0000
  I   I4        1.0  0.6580481913052052  0.21523011754621282  0.008184097283532298  1.0000
