data_image0
_chemical_formula_structural       Cd2H28C32N4O12
_chemical_formula_sum              "Cd2 H28 C32 N4 O12"
_cell_length_a       8.760991186074632
_cell_length_b       8.761028387194512
_cell_length_c       11.02990737946491
_cell_angle_alpha    105.21824343090097
_cell_angle_beta     105.21817793056061
_cell_angle_gamma    97.83359295809572

_space_group_name_H-M_alt    "P 1"
_space_group_IT_number       1

loop_
  _space_group_symop_operation_xyz
  'x, y, z'

loop_
  _atom_site_type_symbol
  _atom_site_label
  _atom_site_symmetry_multiplicity
  _atom_site_fract_x
  _atom_site_fract_y
  _atom_site_fract_z
  _atom_site_occupancy
  Cd  Cd1       1.0  0.5641354636749725  0.43586585662883703  0.7500002019763983  1.0000
  Cd  Cd2       1.0  0.4358646437951349  0.5641349669379564  0.2500004147792651  1.0000
  H   H1        1.0  0.672579124086525  0.7211208515448462  0.7253421373979234  1.0000
  H   H2        1.0  0.2788790753580557  0.3274209089496978  0.7746569399562304  1.0000
  H   H3        1.0  0.32742074041905767  0.2788787712378636  0.2746572630271089  1.0000
  H   H4        1.0  0.721120789147527  0.672578713833005  0.22534246046879503  1.0000
  H   H5        1.0  0.6808280086229176  0.5994467734423736  0.5855322191861349  1.0000
  H   H6        1.0  0.4005525753821004  0.3191724237527396  0.914467612630062  1.0000
  H   H7        1.0  0.3191704036998003  0.4005516122516681  0.41446751118022707  1.0000
  H   H8        1.0  0.5994477868624557  0.6808296124068676  0.08553331882522733  1.0000
  H   H9        1.0  0.7667069216261952  0.49583707963022766  0.06573312345215507  1.0000
  H   H10       1.0  0.5041653487952332  0.2332959290983467  0.4342668419560666  1.0000
  H   H11       1.0  0.2332920120553297  0.50416374305815  0.9342663346824478  1.0000
  H   H12       1.0  0.4958347586748745  0.7667048944684539  0.5657337747995967  1.0000
  H   H13       1.0  0.9885793375576527  0.4024739382389414  0.2006747113745533  1.0000
  H   H14       1.0  0.597526385331129  0.011420078281553003  0.2993265096784441  1.0000
  H   H15       1.0  0.01141786554673984  0.5975244111505306  0.7993265652637689  1.0000
  H   H16       1.0  0.4024746411531268  0.9885795335708494  0.7006749509986532  1.0000
  H   H17       1.0  0.11196205366724853  0.19041310364437444  0.08444722449300458  1.0000
  H   H18       1.0  0.8095840044413978  0.888035291096898  0.41555163199122097  1.0000
  H   H19       1.0  0.888036613429918  0.8095864946424811  0.9155528205729837  1.0000
  H   H20       1.0  0.19041559347982676  0.11196310728428219  0.5844483553651827  1.0000
  H   H21       1.0  0.1152828005922686  0.0006380304044669006  0.871780636174634  1.0000
  H   H22       1.0  0.9993616689382778  0.8847173674482179  0.6282182782665514  1.0000
  H   H23       1.0  0.8847182377019107  0.9993615932566581  0.12821992287145165  1.0000
  H   H24       1.0  0.0006393693559018985  0.1152822562129074  0.37178228077953424  1.0000
  H   H25       1.0  0.12763013204111937  0.5591651979013507  0.44006342672233245  1.0000
  H   H26       1.0  0.4408311601591209  0.8723743513295404  0.059932575955144785  1.0000
  H   H27       1.0  0.8723692111056636  0.44083198788701594  0.5599362459344519  1.0000
  H   H28       1.0  0.5591702802327703  0.1276325942448935  0.9400651061436205  1.0000
  C   C1        1.0  0.822553041827135  0.4041251796991716  0.017877167625556568  1.0000
  C   C2        1.0  0.5958771609552542  0.17744782369106096  0.4821222238384735  1.0000
  C   C3        1.0  0.17744562527002472  0.5958744185876769  0.9821228774404315  1.0000
  C   C4        1.0  0.40412414392327634  0.8225530243715868  0.5178777482762413  1.0000
  C   C5        1.0  0.9464715023327769  0.35025984172064994  0.09353818036004209  1.0000
  C   C6        1.0  0.6497398890912578  0.0535274251224536  0.4064618932692524  1.0000
  C   C7        1.0  0.05352716476438254  0.6497397565661986  0.9064618647059388  1.0000
  C   C8        1.0  0.3502576160272214  0.9464721840946952  0.5935360915446707  1.0000
  C   C9        1.0  0.0143493366048517  0.23375998052478053  0.02884616469922459  1.0000
  C   C10       1.0  0.7662381813378047  0.9856490344375927  0.47115416815793043  1.0000
  C   C11       1.0  0.9856478664995338  0.7662383688646841  0.9711551119390974  1.0000
  C   C12       1.0  0.23376049756927134  0.014350575657978499  0.5288449752770461  1.0000
  C   C13       1.0  0.9564731983447533  0.1697427440844237  0.8896448866317428  1.0000
  C   C14       1.0  0.8302572584356724  0.0435275451245545  0.6103554404255149  1.0000
  C   C15       1.0  0.04352689731543787  0.8302580676736538  0.11035663175492515  1.0000
  C   C16       1.0  0.1697428608443516  0.9564732902509617  0.3896442746991368  1.0000
  C   C17       1.0  0.0179983437889319  0.0453147301734163  0.8170755689929265  1.0000
  C   C18       1.0  0.9546839099790247  0.9820007977042308  0.6829230225853137  1.0000
  C   C19       1.0  0.9820000567238766  0.9546836437119098  0.18292506300443295  1.0000
  C   C20       1.0  0.045313826294069784  0.018000000488299892  0.3170770801902449  1.0000
  C   C21       1.0  0.8305990328385775  0.23166030171223895  0.8213236195285987  1.0000
  C   C22       1.0  0.7683402851893106  0.16940065935884266  0.6786758653339503  1.0000
  C   C23       1.0  0.16940058870248012  0.7683381202863729  0.17867456456579583  1.0000
  C   C24       1.0  0.23165932454183044  0.8305977508310535  0.3213232203914558  1.0000
  C   C25       1.0  0.19041516901669556  0.4395688539900746  0.5949462671879714  1.0000
  C   C26       1.0  0.560430760943234  0.809586503501784  0.9050496439602255  1.0000
  C   C27       1.0  0.8095841741300874  0.560428331798292  0.4050534054688129  1.0000
  C   C28       1.0  0.4395737385052029  0.1904180667571538  0.09494727807843621  1.0000
  C   C29       1.0  0.07809779577275583  0.504201448924036  0.5034306619642804  1.0000
  C   C30       1.0  0.49579497019355767  0.9218954331620565  0.9965701616359154  1.0000
  C   C31       1.0  0.921901304409495  0.4957945360802398  0.4965677943618658  1.0000
  C   C32       1.0  0.5042065894594147  0.07810662749340483  0.0034301251784186293  1.0000
  N   N1        1.0  0.7674103612311072  0.34787513011956855  0.8863315878082928  1.0000
  N   N2        1.0  0.6521267438448392  0.23259115849088363  0.613667815609027  1.0000
  N   N3        1.0  0.23258950327447536  0.6521244926631339  0.11366781261673246  1.0000
  N   N4        1.0  0.34787429444934054  0.7674084651702417  0.38633274343706603  1.0000
  O   O1        1.0  0.33173519324808604  0.4388517154258764  0.5794357740027749  1.0000
  O   O2        1.0  0.561147624170964  0.6682656113742313  0.9205643009216401  1.0000
  O   O3        1.0  0.6682646594475797  0.5611478955481106  0.4205645280532621  1.0000
  O   O4        1.0  0.43885181905943677  0.3317376364997671  0.0794357866122155  1.0000
  O   O5        1.0  0.142816994506866  0.3898225324020004  0.6793512167115877  1.0000
  O   O6        1.0  0.6101775254127447  0.8571840718939968  0.8206473776335557  1.0000
  O   O7        1.0  0.8571847198369228  0.6101746787606434  0.3206489699252941  1.0000
  O   O8        1.0  0.3898273716910409  0.14281684965621366  0.1793506605582849  1.0000
  O   O9        1.0  0.707745269527486  0.6207690001195872  0.6829670021083204  1.0000
  O   O10       1.0  0.37923086457517025  0.292255159446256  0.8170329347092035  1.0000
  O   O11       1.0  0.2922543283937387  0.37922939826159313  0.31703298524809037  1.0000
  O   O12       1.0  0.6207701855289117  0.7077444760235848  0.18296672270588493  1.0000
