data_image0
_chemical_formula_structural       Cd2H18C26N2O10
_chemical_formula_sum              "Cd2 H18 C26 N2 O10"
_cell_length_a       8.538959010854095
_cell_length_b       8.122844339888271
_cell_length_c       9.953817602649194
_cell_angle_alpha    95.45969616192946
_cell_angle_beta     101.5820063484318
_cell_angle_gamma    100.96969037258579

_space_group_name_H-M_alt    "P 1"
_space_group_IT_number       1

loop_
  _space_group_symop_operation_xyz
  'x, y, z'

loop_
  _atom_site_type_symbol
  _atom_site_label
  _atom_site_symmetry_multiplicity
  _atom_site_fract_x
  _atom_site_fract_y
  _atom_site_fract_z
  _atom_site_occupancy
  Cd  Cd1       1.0  0.7028776957105833  0.6070213057885568  0.9761889834091382  1.0000
  Cd  Cd2       1.0  0.29712760883031564  0.3929834832589378  0.023814841358550616  1.0000
  H   H1        1.0  0.9561060387988151  0.8267852629295617  0.8334200953084479  1.0000
  H   H2        1.0  0.04390277187644643  0.17323986195531663  0.16658312117684915  1.0000
  H   H3        1.0  0.24650292787488584  0.9902006550929909  0.8880277474776013  1.0000
  H   H4        1.0  0.7535047007171587  0.009814189607325784  0.11198138783608165  1.0000
  H   H5        1.0  0.4302017010400548  0.974127601565705  0.11502823671001756  1.0000
  H   H6        1.0  0.5697884129826252  0.025873560251696397  0.8849847011158973  1.0000
  H   H7        1.0  0.02400676090928759  0.6374045865751014  0.20774221919490546  1.0000
  H   H8        1.0  0.9759919598580707  0.3626027662918716  0.7922697385328238  1.0000
  H   H9        1.0  0.14680384692339743  0.841509542254819  0.41817275572754664  1.0000
  H   H10       1.0  0.8531912051116208  0.15848191721339328  0.581805009794991  1.0000
  H   H11       1.0  0.28720686295558545  0.7986807834548201  0.6512732145731025  1.0000
  H   H12       1.0  0.7127807073849157  0.20130419030862606  0.3487207702365753  1.0000
  H   H13       1.0  0.6944868058927085  0.7002575171350356  0.48828981993532505  1.0000
  H   H14       1.0  0.30551499347456  0.299742447717378  0.5117029251616644  1.0000
  H   H15       1.0  0.7843832840384266  0.5520596562925348  0.232358626632447  1.0000
  H   H16       1.0  0.21562528803773523  0.4479489191292672  0.7676430833171255  1.0000
  H   H17       1.0  0.6739140335080123  0.37345009267529145  0.16884375785776484  1.0000
  H   H18       1.0  0.32609693355908576  0.6265533247817527  0.8311579088789147  1.0000
  C   C1        1.0  0.04010276784024568  0.824584125518335  0.9310288089745672  1.0000
  C   C2        1.0  0.9598926843022826  0.17542460567814538  0.06898170173813166  1.0000
  C   C3        1.0  0.20254684317278296  0.9128559157007671  0.9620806017349682  1.0000
  C   C4        1.0  0.7974394221729997  0.08715962217524256  0.03791787348632884  1.0000
  C   C5        1.0  0.3042080805846865  0.9025627525986977  0.08755103023594309  1.0000
  C   C6        1.0  0.6957865593152733  0.09743211498703629  0.9124510795640932  1.0000
  C   C7        1.0  0.24107557877018593  0.8037849784133754  0.18056128307056  1.0000
  C   C8        1.0  0.7589196802075336  0.19621256086336553  0.819433132283166  1.0000
  C   C9        1.0  0.07670845049623412  0.7195041049227271  0.14079265831797738  1.0000
  C   C10       1.0  0.9232885092254294  0.2805008007849779  0.8592157644816967  1.0000
  C   C11       1.0  0.336415105245564  0.7863868264196937  0.31790803941436263  1.0000
  C   C12       1.0  0.6635864332858219  0.21360166601910888  0.682084649581981  1.0000
  C   C13       1.0  0.2653859535246356  0.8059101188882635  0.43255675616853057  1.0000
  C   C14       1.0  0.7346152278544338  0.19408200956932825  0.5674472452079159  1.0000
  C   C15       1.0  0.3444759343500081  0.7835977931181475  0.5637592616325409  1.0000
  C   C16       1.0  0.6555225974819904  0.21639838535995182  0.4362355982825649  1.0000
  C   C17       1.0  0.4984161140592179  0.7414660520274905  0.5837396920848266  1.0000
  C   C18       1.0  0.5015847440030826  0.2585298526958083  0.4162676020425665  1.0000
  C   C19       1.0  0.5735973182215731  0.730039476688617  0.4719273383995813  1.0000
  C   C20       1.0  0.4264068983734148  0.26995025314955967  0.5280639130494438  1.0000
  C   C21       1.0  0.49460869008110825  0.7510203003443509  0.3394207619773511  1.0000
  C   C22       1.0  0.5053871827842116  0.2489643814502145  0.6605786493367989  1.0000
  C   C23       1.0  0.5826347125356008  0.7237146396268769  0.2259293113561044  1.0000
  C   C24       1.0  0.4173629721287285  0.27627269969736545  0.7740616054423557  1.0000
  C   C25       1.0  0.5809000154274742  0.70512686573052  0.7211856900276248  1.0000
  C   C26       1.0  0.4190954716401621  0.2948768410090779  0.2788203628890572  1.0000
  N   N1        1.0  0.9780855830055585  0.7299384206720843  0.01958599865396592  1.0000
  N   N2        1.0  0.02191079461375268  0.2700691358262261  0.9804175346760576  1.0000
  O   O1        1.0  0.5003136509474615  0.6426459971617504  0.10689341549937847  1.0000
  O   O2        1.0  0.49969118049584443  0.35734638683656067  0.893091143956973  1.0000
  O   O3        1.0  0.7361089277713193  0.7753385746095984  0.2511376112706075  1.0000
  O   O4        1.0  0.2638881260876431  0.2246615520733498  0.7488523193820102  1.0000
  O   O5        1.0  0.7130908512314564  0.6531820683169656  0.7342092694182799  1.0000
  O   O6        1.0  0.2869222150656014  0.346809743218607  0.2657967558008708  1.0000
  O   O7        1.0  0.5127874275235342  0.725722071513971  0.8246292159331717  1.0000
  O   O8        1.0  0.4872108074579062  0.2742728237112216  0.1753664838441581  1.0000
  O   O9        1.0  0.7783574590606364  0.45246133937511956  0.16542248204039822  1.0000
  O   O10       1.0  0.2216540774204958  0.547539374698715  0.8345870815268558  1.0000
