data_image0
_chemical_formula_structural       Cd4H24C20N8O20
_chemical_formula_sum              "Cd4 H24 C20 N8 O20"
_cell_length_a       7.725528848001401
_cell_length_b       7.5445445190017475
_cell_length_c       14.055403216000535
_cell_angle_alpha    90.00003183593088
_cell_angle_beta     89.99999716741605
_cell_angle_gamma    90.00006996144552

_space_group_name_H-M_alt    "P 1"
_space_group_IT_number       1

loop_
  _space_group_symop_operation_xyz
  'x, y, z'

loop_
  _atom_site_type_symbol
  _atom_site_label
  _atom_site_symmetry_multiplicity
  _atom_site_fract_x
  _atom_site_fract_y
  _atom_site_fract_z
  _atom_site_occupancy
  Cd  Cd1       1.0  0.9982580230241352  0.24999864234298033  0.3239430490462496  1.0000
  Cd  Cd2       1.0  0.49825600779004015  0.24999958436617933  0.176056873847017  1.0000
  Cd  Cd3       1.0  0.5017434466165653  0.7500009454202187  0.8239430222784349  1.0000
  Cd  Cd4       1.0  0.0017401369710938997  0.7499992365204945  0.6760568470788326  1.0000
  H   H1        1.0  0.954790847204606  0.906980588263551  0.2570927009459112  1.0000
  H   H2        1.0  0.4547914199420758  0.9069815989947191  0.24290742148902913  1.0000
  H   H3        1.0  0.954790656931067  0.5930199516693763  0.2570933652619019  1.0000
  H   H4        1.0  0.545209519148635  0.40698089284807537  0.7570925217907529  1.0000
  H   H5        1.0  0.045208607201189493  0.09301861606179072  0.7429071951793418  1.0000
  H   H6        1.0  0.5452093288743001  0.0930189307924749  0.7570924746363872  1.0000
  H   H7        1.0  0.04520879747633439  0.4069819035784548  0.7429072423339065  1.0000
  H   H8        1.0  0.45479122966773383  0.5930196369391184  0.24290737433466347  1.0000
  H   H9        1.0  0.9239062285156124  0.9054921359873519  0.3728553000558179  1.0000
  H   H10       1.0  0.42390680271987696  0.9054903768199412  0.1271448234917187  1.0000
  H   H11       1.0  0.923906040046262  0.5945084849409098  0.3728552533487671  1.0000
  H   H12       1.0  0.5760954289740141  0.4054911530923633  0.8728551193403149  1.0000
  H   H13       1.0  0.07609322589098609  0.09450839379904612  0.627144596069634  1.0000
  H   H14       1.0  0.5760952405054595  0.09450882750698503  0.8728550726334631  1.0000
  H   H15       1.0  0.0760934143603507  0.4054920448451257  0.62714393130652  1.0000
  H   H16       1.0  0.4239079086618959  0.5945093766964221  0.1271447767850375  1.0000
  H   H17       1.0  0.12205432749292558  0.9064989712069291  0.32976228423058257  1.0000
  H   H18       1.0  0.6220550502685498  0.9065005221328875  0.1702385663379076  1.0000
  H   H19       1.0  0.12205413780257152  0.5935006193443257  0.3297622372209402  1.0000
  H   H20       1.0  0.37794718264873955  0.40649968497950795  0.8297627997376366  1.0000
  H   H21       1.0  0.8779451269136798  0.0935015585794687  0.6702376118948692  1.0000
  H   H22       1.0  0.3779456985478191  0.09350000765467568  0.8297620412576733  1.0000
  H   H23       1.0  0.8779453166032312  0.40649858498100855  0.6702376589043053  1.0000
  H   H24       1.0  0.6220548605765898  0.5934995193481498  0.1702385193278673  1.0000
  C   C1        1.0  0.615591662944695  0.2500010995468926  0.4048493110990704  1.0000
  C   C2        1.0  0.11558835432550302  0.24999930749329743  0.09514778524405898  1.0000
  C   C3        1.0  0.8844162777177473  0.7499972459141944  0.9048542452911477  1.0000
  C   C4        1.0  0.384409085873294  0.7500020811613272  0.5951484506162571  1.0000
  C   C5        1.0  0.7224516607587858  0.2500012092010452  0.490370867726959  1.0000
  C   C6        1.0  0.22245094204392757  0.24999932925354784  0.009626934688327501  1.0000
  C   C7        1.0  0.7775498067708212  0.7499985496126129  0.9903750958471773  1.0000
  C   C8        1.0  0.2775464992380634  0.7499993205838251  0.5096276054581992  1.0000
  C   C9        1.0  0.6051147092230736  0.25000117926839494  0.57252148439089  1.0000
  C   C10       1.0  0.10511398520797142  0.24999972877071744  0.9274760951428505  1.0000
  C   C11       1.0  0.8948854691970142  0.7499981500946545  0.07252593539268298  1.0000
  C   C12       1.0  0.394880861953439  0.7499980250534507  0.4274762773239758  1.0000
  C   C13       1.0  0.4233705172204552  0.2500010493953937  0.5372567589423269  1.0000
  C   C14       1.0  0.9233699418736167  0.24999892456151687  0.9627400930446156  1.0000
  C   C15       1.0  0.07662692371187062  0.7499989542993362  0.0372562457296937  1.0000
  C   C16       1.0  0.5766250539560575  0.7499981549264519  0.4627410027725389  1.0000
  C   C17       1.0  0.4320961341348096  0.25000100034524303  0.43136580866325847  1.0000
  C   C18       1.0  0.9320916805585782  0.24999979591965632  0.0686312716919346  1.0000
  C   C19       1.0  0.0679116570757259  0.7499980829466397  0.9313679129628551  1.0000
  C   C20       1.0  0.5679046146815734  0.7499995294408563  0.5686319530516712  1.0000
  N   N1        1.0  0.00024522188108020007  0.9577968854526377  0.32017523458162594  1.0000
  N   N2        1.0  0.5002459445342922  0.9577971207707494  0.17982563754878095  1.0000
  N   N3        1.0  0.00024497001318480005  0.5422025454490579  0.320175172162962  1.0000
  N   N4        1.0  0.49975505614997207  0.4577977490203865  0.8201750324654637  1.0000
  N   N5        1.0  0.9997529381149592  0.042202318871901  0.6798246615436554  1.0000
  N   N6        1.0  0.4997548042812737  0.042202083555750405  0.8201749700465937  1.0000
  N   N7        1.0  0.9997531899836574  0.4577979843361746  0.6798240124923609  1.0000
  N   N8        1.0  0.5002469870761673  0.5422027807676031  0.1798248636599169  1.0000
  O   O1        1.0  0.6756781648836779  0.250001093441881  0.3210729865614539  1.0000
  O   O2        1.0  0.1756748552026082  0.2500007129522431  0.1789255296869854  1.0000
  O   O3        1.0  0.824329776842241  0.7499984913777382  0.8210772123187836  1.0000
  O   O4        1.0  0.32432387834086274  0.7499967854232495  0.678925486623207  1.0000
  O   O5        1.0  0.8854515051327143  0.25000131016258825  0.4918030530457216  1.0000
  O   O6        1.0  0.3854507864368061  0.2500007542056721  0.0081975870166033  1.0000
  O   O7        1.0  0.6145512567885164  0.7499984501219927  0.9918037320489076  1.0000
  O   O8        1.0  0.11454794927308852  0.7499978941627463  0.5081968430795243  1.0000
  O   O9        1.0  0.6521173161562076  0.2500012522921153  0.6583831252679319  1.0000
  O   O10       1.0  0.1521127100017239  0.25000103900773507  0.8416144518918073  1.0000
  O   O11       1.0  0.8478880388146377  0.7499994907805603  0.15838757864409556  1.0000
  O   O12       1.0  0.3478834326593799  0.7499979520329207  0.3416146364467991  1.0000
  O   O13       1.0  0.2914365069344527  0.25000099445450996  0.5882079864404588  1.0000
  O   O14       1.0  0.7914359322339094  0.24999881725450732  0.9117881607408547  1.0000
  O   O15       1.0  0.20855705012225204  0.7499990616054151  0.088211023914198  1.0000
  O   O16       1.0  0.7085577698330923  0.7499995353276105  0.4117897752746344  1.0000
  O   O17       1.0  0.3108332386709733  0.25000089534216136  0.3721288060560255  1.0000
  O   O18       1.0  0.8108313731636728  0.2500010772618992  0.1278704148352858  1.0000
  O   O19       1.0  0.1891745532909539  0.7499981270685155  0.8721316157002831  1.0000
  O   O20       1.0  0.6891649213250587  0.7499983089823773  0.6278710900692559  1.0000
