data_image0
_chemical_formula_structural       MnH20C20N2O8
_chemical_formula_sum              "Mn1 H20 C20 N2 O8"
_cell_length_a       5.6095617660843375
_cell_length_b       7.9735003988853235
_cell_length_c       11.170345480003393
_cell_angle_alpha    106.92149167963107
_cell_angle_beta     97.59682484204356
_cell_angle_gamma    98.41464427239117

_space_group_name_H-M_alt    "P 1"
_space_group_IT_number       1

loop_
  _space_group_symop_operation_xyz
  'x, y, z'

loop_
  _atom_site_type_symbol
  _atom_site_label
  _atom_site_symmetry_multiplicity
  _atom_site_fract_x
  _atom_site_fract_y
  _atom_site_fract_z
  _atom_site_occupancy
  Mn  Mn1       1.0  0.49999944536051544  0.4999906692080884  0.9999930166689098  1.0000
  H   H1        1.0  0.030990436942495633  0.3663684099383744  0.060957018593171604  1.0000
  H   H2        1.0  0.9690058622815056  0.6336318039753053  0.9390410520626065  1.0000
  H   H3        1.0  0.24664337191349262  0.2519805478830577  0.056131473917915314  1.0000
  H   H4        1.0  0.7533605842715049  0.7480143794110816  0.9438704754944851  1.0000
  H   H5        1.0  0.7545914282334963  0.058379975614308015  0.24408931027646472  1.0000
  H   H6        1.0  0.24539480630243565  0.9416228530064856  0.7559229689224338  1.0000
  H   H7        1.0  0.9118824874542782  0.04972411234424361  0.1148290101485117  1.0000
  H   H8        1.0  0.08812426912700749  0.9502815168743552  0.885190564439796  1.0000
  H   H9        1.0  0.6359560054520301  0.2638001415030899  0.3798961685768348  1.0000
  H   H10       1.0  0.3640434288979151  0.7362121096497132  0.6201180360750699  1.0000
  H   H11       1.0  0.3766261393659533  0.5297828875023141  0.408419639627546  1.0000
  H   H12       1.0  0.6233696624641639  0.47022933638437087  0.5915871599411633  1.0000
  H   H13       1.0  0.824616078590971  0.6437672903014472  0.2749589029899654  1.0000
  H   H14       1.0  0.1754146434035491  0.3562197979503949  0.725042273400213  1.0000
  H   H15       1.0  0.8363570356636532  0.845994038056439  0.4903133475977911  1.0000
  H   H16       1.0  0.1636676346847068  0.1540116880904563  0.5096832475837021  1.0000
  H   H17       1.0  0.17710504826332862  0.994508703121774  0.3367367922289688  1.0000
  H   H18       1.0  0.8228972043046029  0.005500881732146502  0.6632528716852805  1.0000
  H   H19       1.0  0.19055451842792348  0.7830207657979714  0.12992678751678002  1.0000
  H   H20       1.0  0.8094151330838601  0.216973934813204  0.8700540712956413  1.0000
  C   C1        1.0  0.6439335928866683  0.21802326231896532  0.1277303844505937  1.0000
  C   C2        1.0  0.3560659172245196  0.7819823153078573  0.8722788579431794  1.0000
  C   C3        1.0  0.839210667685393  0.1386252742290637  0.1903213950015612  1.0000
  C   C4        1.0  0.1607867174336165  0.8613789585666966  0.809691905190988  1.0000
  C   C5        1.0  0.011177990932679923  0.3820167510971331  0.3807961120748545  1.0000
  C   C6        1.0  0.988787751011657  0.6180046204684899  0.6192034598474692  1.0000
  C   C7        1.0  0.7972014692785123  0.3652725925754298  0.43208209424486205  1.0000
  C   C8        1.0  0.20278452311801945  0.6347502542709265  0.5679414893509361  1.0000
  C   C9        1.0  0.21131705850709182  0.5180214519133486  0.4489578281016478  1.0000
  C   C10       1.0  0.7886917861847921  0.48196417741750247  0.5510613093863129  1.0000
  C   C11       1.0  0.6839364414341347  0.7240534952672562  0.2931623026033209  1.0000
  C   C12       1.0  0.31606757194255414  0.275934755560435  0.706830206579106  1.0000
  C   C13       1.0  0.6888462048612708  0.8392342217188115  0.4142702252620154  1.0000
  C   C14       1.0  0.3111675109934424  0.16075676025829466  0.5857261715420066  1.0000
  C   C15       1.0  0.5031399930700147  0.9394313474821558  0.43608547277329995  1.0000
  C   C16       1.0  0.49688230965642793  0.06055834205754  0.5638924173605915  1.0000
  C   C17       1.0  0.32352399715685454  0.9185388340882168  0.33007279227035724  1.0000
  C   C18       1.0  0.6764741309518243  0.08145470993494539  0.6699087935646092  1.0000
  C   C19       1.0  0.33128791123601087  0.8003542627053406  0.2120282673579652  1.0000
  C   C20       1.0  0.6686933124914916  0.19963650563376936  0.7879498457933067  1.0000
  N   N1        1.0  0.507057908197318  0.7024917801306502  0.19275887345256856  1.0000
  N   N2        1.0  0.49294342708463285  0.2975071270175675  0.8072329885260175  1.0000
  O   O1        1.0  0.7226336859376732  0.35611273025890705  0.09597420576130135  1.0000
  O   O2        1.0  0.2773839637413147  0.6438796090061415  0.9040200445968056  1.0000
  O   O3        1.0  0.42405119809833275  0.14180684014888092  0.11037198875730071  1.0000
  O   O4        1.0  0.5759585490238734  0.8581894645353003  0.8896413682888424  1.0000
  O   O5        1.0  0.04607114700783652  0.2692768942284545  0.26800698528730754  1.0000
  O   O6        1.0  0.9539405253032173  0.7307340946935241  0.7320005957494973  1.0000
  O   O7        1.0  0.16573431682837744  0.33301884591234204  0.015239286273192921  1.0000
  O   O8        1.0  0.8342742500680274  0.666980110475265  0.9847593255224537  1.0000
