data_image0
_chemical_formula_structural       Ag8H24C28S4O28
_chemical_formula_sum              "Ag8 H24 C28 S4 O28"
_cell_length_a       7.353329268388623
_cell_length_b       8.333182938692598
_cell_length_c       16.27165079819899
_cell_angle_alpha    89.99949353775635
_cell_angle_beta     90.0002735549191
_cell_angle_gamma    92.18424676839649

_space_group_name_H-M_alt    "P 1"
_space_group_IT_number       1

loop_
  _space_group_symop_operation_xyz
  'x, y, z'

loop_
  _atom_site_type_symbol
  _atom_site_label
  _atom_site_symmetry_multiplicity
  _atom_site_fract_x
  _atom_site_fract_y
  _atom_site_fract_z
  _atom_site_occupancy
  Ag  Ag1       1.0  0.24999858350736295  0.2500012479132679  0.5113774461471224  1.0000
  Ag  Ag2       1.0  0.7500022332384759  0.7499993419233066  0.4886225612886719  1.0000
  Ag  Ag3       1.0  0.2500047049181333  0.7499982566905745  0.5155203336792555  1.0000
  Ag  Ag4       1.0  0.7500014908518083  0.2500011054963381  0.484479673765165  1.0000
  Ag  Ag5       1.0  0.7499910949342449  0.24999982060681  0.0743836065021668  1.0000
  Ag  Ag6       1.0  0.2500056429666131  0.750000789294724  0.9256182446265344  1.0000
  Ag  Ag7       1.0  0.7500055684115523  0.24999953241943737  0.24204698830248364  1.0000
  Ag  Ag8       1.0  0.24999796757627027  0.7500010440196478  0.7579542482678862  1.0000
  H   H1        1.0  0.9520328962628071  0.8606066519914041  0.0403201373613911  1.0000
  H   H2        1.0  0.5479654803614055  0.6393924382918644  0.04032511460444249  1.0000
  H   H3        1.0  0.0479571029929602  0.13939519225854013  0.9596810991914141  1.0000
  H   H4        1.0  0.4520366960024304  0.3606081448511774  0.9596748928328511  1.0000
  H   H5        1.0  0.5196546983200747  0.5024558895123123  0.5861206607201482  1.0000
  H   H6        1.0  0.980345518653337  0.9975459706449574  0.5861206573383697  1.0000
  H   H7        1.0  0.48034469935990387  0.49754350614226456  0.4138793467168044  1.0000
  H   H8        1.0  0.019656657713497304  0.002454612492869001  0.4138799646647229  1.0000
  H   H9        1.0  0.3341183409517329  0.5058060931955097  0.6310906889892822  1.0000
  H   H10       1.0  0.1658855766221023  0.9941920957407576  0.6310900173567688  1.0000
  H   H11       1.0  0.665882416349234  0.4941932957603188  0.36890993301496167  1.0000
  H   H12       1.0  0.8341178999118526  0.005807279833220501  0.3689099900846672  1.0000
  H   H13       1.0  0.9735887372954936  0.7927907993216793  0.3101251453888949  1.0000
  H   H14       1.0  0.5264110902241727  0.7072073233011908  0.3101285402301741  1.0000
  H   H15       1.0  0.026413379620478798  0.20720858294583175  0.6898748620510489  1.0000
  H   H16       1.0  0.4735923268649104  0.2927908513920416  0.6898720817797042  1.0000
  H   H17       1.0  0.1702830276394138  0.3572401843669654  0.20663852240019057  1.0000
  H   H18       1.0  0.3297244653344579  0.14276140975150045  0.2066397947820136  1.0000
  H   H19       1.0  0.8297192676051709  0.6427628005532001  0.7933584122028352  1.0000
  H   H20       1.0  0.670281789886353  0.8572391533057272  0.7933608272255483  1.0000
  H   H21       1.0  0.1286297787556876  0.46751188744147515  0.06529547006758923  1.0000
  H   H22       1.0  0.3713707779285401  0.03248972945524291  0.06529671666441321  1.0000
  H   H23       1.0  0.8713657184079225  0.5324911309307298  0.9347033082253517  1.0000
  H   H24       1.0  0.6286312795425603  0.9675084519315225  0.934703905343973  1.0000
  C   C1        1.0  0.9817987767345573  0.7849210818038161  0.1780832528849245  1.0000
  C   C2        1.0  0.5181956837497951  0.7150793008694335  0.17808659431339185  1.0000
  C   C3        1.0  0.018192522688337907  0.21507955488227995  0.8219173691062239  1.0000
  C   C4        1.0  0.48180643316916877  0.2849200813928619  0.821914027692344  1.0000
  C   C5        1.0  0.007413517766302394  0.7217709303479226  0.25664351141610814  1.0000
  C   C6        1.0  0.49258378974328554  0.778228820600724  0.2566457547527605  1.0000
  C   C7        1.0  0.992583041778957  0.27822607694786683  0.7433558814573615  1.0000
  C   C8        1.0  0.507418267724816  0.22176936079124943  0.7433542526898267  1.0000
  C   C9        1.0  0.07343816511099992  0.5695040280186847  0.26668961964735166  1.0000
  C   C10       1.0  0.4265660384958281  0.9304955190411449  0.2666916460480593  1.0000
  C   C11       1.0  0.9265611731121198  0.4304941667760006  0.7333085440948752  1.0000
  C   C12       1.0  0.5734374380411253  0.0695038565276178  0.7333089759591687  1.0000
  C   C13       1.0  0.117510312174268  0.47658027441603695  0.19802136843127022  1.0000
  C   C14       1.0  0.3824944963888797  0.023423881027540006  0.1980220656021316  1.0000
  C   C15       1.0  0.8824878447744665  0.5234215296987729  0.8019767953015133  1.0000
  C   C16       1.0  0.6175076799749561  0.9765767021155018  0.801977941835162  1.0000
  C   C17       1.0  0.09457994273150659  0.5375978605053364  0.11937583550736972  1.0000
  C   C18       1.0  0.40542282370601174  0.962404185593826  0.119378286351683  1.0000
  C   C19       1.0  0.9054127757452546  0.462403970383612  0.8806223282194452  1.0000
  C   C20       1.0  0.5945805933830783  0.03759398909939902  0.8806223356581954  1.0000
  C   C21       1.0  0.02559549221253831  0.6912546747999786  0.10897818928535231  1.0000
  C   C22       1.0  0.4744016748713734  0.8087463735771365  0.10898148434821311  1.0000
  C   C23       1.0  0.9743930285175112  0.30874477441329173  0.8910205890080789  1.0000
  C   C24       1.0  0.5255989635338665  0.19125061362762355  0.8910191376613312  1.0000
  C   C25       1.0  0.9088842541060843  0.9478942724263394  0.16930250394949553  1.0000
  C   C26       1.0  0.5911156780776564  0.5521086341892315  0.16930489654050976  1.0000
  C   C27       1.0  0.0911111836156522  0.05210754505990422  0.8306975034776869  1.0000
  C   C28       1.0  0.40888094092446897  0.4478895739664568  0.8306963400277  1.0000
  S   S1        1.0  0.0810598092633299  0.48961559480466144  0.3674988793826017  1.0000
  S   S2        1.0  0.4189413331156686  0.010388114143175605  0.3674984855346609  1.0000
  S   S3        1.0  0.918939766757255  0.5103874034817224  0.6325005134806148  1.0000
  S   S4        1.0  0.5810607837943067  0.989611268134759  0.6325002927736918  1.0000
  O   O1        1.0  0.26575482268388845  0.4334404501416317  0.3821615177138327  1.0000
  O   O2        1.0  0.23424610606021187  0.06655580480475012  0.38216231236631876  1.0000
  O   O3        1.0  0.7342430964733708  0.5665565504710488  0.6178366460295451  1.0000
  O   O4        1.0  0.7657560703006254  0.9334447783434998  0.6178370805051827  1.0000
  O   O5        1.0  0.0329605691377424  0.6220392851191718  0.42262692339814123  1.0000
  O   O6        1.0  0.46704409339017866  0.8779636276812898  0.4226286605752989  1.0000
  O   O7        1.0  0.967043145187688  0.3779648939569357  0.5773730840327005  1.0000
  O   O8        1.0  0.5329581424245191  0.12203815633207431  0.5773719614251434  1.0000
  O   O9        1.0  0.9433339747950525  0.35593145156872213  0.3670422668528559  1.0000
  O   O10       1.0  0.5566637823529916  0.14407277172171012  0.3670423253369676  1.0000
  O   O11       1.0  0.056660341100169404  0.6440751761131838  0.6329577405622402  1.0000
  O   O12       1.0  0.44333963473309274  0.8559254029767303  0.6329576821071115  1.0000
  O   O13       1.0  0.8731150520804648  0.0228387762424731  0.234886714654543  1.0000
  O   O14       1.0  0.6268879166516541  0.47716165105943303  0.2348915663221121  1.0000
  O   O15       1.0  0.1268844050533744  0.9771618202772107  0.7651145219113573  1.0000
  O   O16       1.0  0.37311154047619516  0.5228389454706744  0.7651084411121972  1.0000
  O   O17       1.0  0.8867167041206442  0.002375952838988803  0.0958375772718085  1.0000
  O   O18       1.0  0.6132807697633211  0.49762565251503343  0.0958416923435195  1.0000
  O   O19       1.0  0.11328281245807399  0.9976258445614408  0.9041630447256425  1.0000
  O   O20       1.0  0.38671856846579533  0.5023725422692208  0.9041577005302913  1.0000
  O   O21       1.0  0.002127699766049301  0.748778293277738  0.0318420372624928  1.0000
  O   O22       1.0  0.4978687147875433  0.7512240636458646  0.031845028679043715  1.0000
  O   O23       1.0  0.9978595208058608  0.2512223634837413  0.9681591992899714  1.0000
  O   O24       1.0  0.5021320425104322  0.2487753253151796  0.968154978759401  1.0000
  O   O25       1.0  0.38677962271168553  0.4874601045057647  0.5768522834693499  1.0000
  O   O26       1.0  0.1132209022995951  0.012541267217123703  0.5768518300534353  1.0000
  O   O27       1.0  0.6132211940341534  0.51254048533081  0.4231477239664514  1.0000
  O   O28       1.0  0.8867798549983804  0.9874581217439204  0.4231481773850163  1.0000
