data_image0
_chemical_formula_structural       H30Pb2C52N10O8
_chemical_formula_sum              "H30 Pb2 C52 N10 O8"
_cell_length_a       9.357792073903655
_cell_length_b       10.091042308359835
_cell_length_c       12.806874654049642
_cell_angle_alpha    80.09170815614826
_cell_angle_beta     69.08179151802683
_cell_angle_gamma    79.50409558560871

_space_group_name_H-M_alt    "P 1"
_space_group_IT_number       1

loop_
  _space_group_symop_operation_xyz
  'x, y, z'

loop_
  _atom_site_type_symbol
  _atom_site_label
  _atom_site_symmetry_multiplicity
  _atom_site_fract_x
  _atom_site_fract_y
  _atom_site_fract_z
  _atom_site_occupancy
  H   H1        1.0  0.8724159815403425  0.4074349029571138  0.4945819204146388  1.0000
  H   H2        1.0  0.12758318817120798  0.5925666563276764  0.5054170235228526  1.0000
  H   H3        1.0  0.1567979473045611  0.3592674181788808  0.47352813652332054  1.0000
  H   H4        1.0  0.8432012266024317  0.6407341389232288  0.5264715874399498  1.0000
  H   H5        1.0  0.3464044323189768  0.2995379131857804  0.2891024684080675  1.0000
  H   H6        1.0  0.6535927714620086  0.7004616005100105  0.7108964867675027  1.0000
  H   H7        1.0  0.06171908749148259  0.3079712498262879  0.86032433995409  1.0000
  H   H8        1.0  0.9382792714835945  0.6920282664960736  0.1396766533454113  1.0000
  H   H9        1.0  0.7757961246876447  0.3717613136202687  0.9056074736530348  1.0000
  H   H10       1.0  0.22420419182711976  0.6282402526564611  0.09439194835682228  1.0000
  H   H11       1.0  0.6140819693341655  0.42801878487959755  0.09943897597773341  1.0000
  H   H12       1.0  0.3859170344417393  0.5719837912990898  0.9005590942554563  1.0000
  H   H13       1.0  0.6506688888080988  0.05414758353476399  0.030128217866405294  1.0000
  H   H14       1.0  0.3493325787053223  0.9458539875512245  0.9698724622416037  1.0000
  H   H15       1.0  0.9177877617743773  0.951878074862101  0.9283933879797672  1.0000
  H   H16       1.0  0.082212401391061  0.04812450176048339  0.0716075004031396  1.0000
  H   H17       1.0  0.03484695085307981  0.016108401329546506  0.7216740764452894  1.0000
  H   H18       1.0  0.9651537017284325  0.9838911289767013  0.27832787299895045  1.0000
  H   H19       1.0  0.8883581827215677  0.1905442947432192  0.6218502738877447  1.0000
  H   H20       1.0  0.1116437742079412  0.8094542300264324  0.3781514672815973  1.0000
  H   H21       1.0  0.6200667286475648  0.9297117919172847  0.20939758114305823  1.0000
  H   H22       1.0  0.37993652423904223  0.07028573168113889  0.7906023916998206  1.0000
  H   H23       1.0  0.6010283925588523  0.17879360261916594  0.20678858001959796  1.0000
  H   H24       1.0  0.3989725583304491  0.8212039113607402  0.7932088766269842  1.0000
  H   H25       1.0  0.7002125101916974  0.13260118250352798  0.5034497503021171  1.0000
  H   H26       1.0  0.2997807847407615  0.8674013456193636  0.4965506097239256  1.0000
  H   H27       1.0  0.7181222114233634  0.8780325787839943  0.5194109979389623  1.0000
  H   H28       1.0  0.2818743663739696  0.12197098284325852  0.4805914826514552  1.0000
  H   H29       1.0  0.33391115389250814  0.2701113279055535  0.8415478017598089  1.0000
  H   H30       1.0  0.6660907946461166  0.7298872012294667  0.15845237935796766  1.0000
  Pb  Pb1       1.0  0.6193207696594101  0.43809383836771326  0.36413075588863103  1.0000
  Pb  Pb2       1.0  0.38068037017815487  0.5619097643233957  0.6358689568365604  1.0000
  C   C1        1.0  0.9610097856743779  0.38325660988469673  0.4152568916623024  1.0000
  C   C2        1.0  0.0389898734532537  0.6167419030837564  0.584743113336522  1.0000
  C   C3        1.0  0.11777344628889351  0.35444608934015054  0.4038889316228803  1.0000
  C   C4        1.0  0.8822235999473235  0.6455544368841758  0.5961107098999532  1.0000
  C   C5        1.0  0.22350726069438306  0.32100195256492736  0.30171515502038904  1.0000
  C   C6        1.0  0.7764925601734589  0.6789955456923026  0.6982849436569509  1.0000
  C   C7        1.0  0.17204475999364632  0.3174033396615386  0.2116516725952664  1.0000
  C   C8        1.0  0.827955214223536  0.6825931482498433  0.788346959709024  1.0000
  C   C9        1.0  0.27146950818282534  0.28575615427000395  0.10248669779677749  1.0000
  C   C10       1.0  0.7285311234214903  0.7142433869496542  0.8975113515185456  1.0000
  C   C11       1.0  0.21204824598211047  0.29262054474516935  0.0152501401582512  1.0000
  C   C12       1.0  0.7879525557532929  0.7073779773979042  0.98474956288716  1.0000
  C   C13       1.0  0.05181918605481431  0.32508388598016325  0.029405493753351695  1.0000
  C   C14       1.0  0.9481789943982971  0.6749166537841519  0.9705922857645035  1.0000
  C   C15       1.0  0.9869064270964499  0.33006745548162536  0.9445109567526444  1.0000
  C   C16       1.0  0.013094046963089993  0.6699330982665685  0.05548777890994929  1.0000
  C   C17       1.0  0.8296256482299144  0.36587104912506163  0.9691403539399203  1.0000
  C   C18       1.0  0.17037336813231013  0.6341315205055835  0.030860056370620715  1.0000
  C   C19       1.0  0.7380616995233709  0.3969142243568982  0.07787233975810183  1.0000
  C   C20       1.0  0.2619391022120325  0.6030842977861753  0.9221273632873092  1.0000
  C   C21       1.0  0.95043202228284  0.35528452612226147  0.138559817633947  1.0000
  C   C22       1.0  0.04956796032521989  0.644711957423752  0.8614403747219015  1.0000
  C   C23       1.0  0.01101981356330128  0.3510990570886748  0.22934214345672638  1.0000
  C   C24       1.0  0.9889781989187509  0.6488953830510197  0.7706572801114221  1.0000
  C   C25       1.0  0.46551083593642767  0.2346426275846483  0.955866362681526  1.0000
  C   C26       1.0  0.5344881762303545  0.7653599442286777  0.04413326760322884  1.0000
  C   C27       1.0  0.6216414690352893  0.18314390054646174  0.8855842249808105  1.0000
  C   C28       1.0  0.3783616179156724  0.8168546399458593  0.11441487415777364  1.0000
  C   C29       1.0  0.7055979740834175  0.08431232792074889  0.9407336018914663  1.0000
  C   C30       1.0  0.29440659357747734  0.9156913022942276  0.05926520497349235  1.0000
  C   C31       1.0  0.854023324756035  0.026421770906722503  0.8834369925445529  1.0000
  C   C32       1.0  0.14598401753649173  0.9735788313411644  0.11656227147491191  1.0000
  C   C33       1.0  0.9198990885081244  0.0627820960352778  0.7678813017579245  1.0000
  C   C34       1.0  0.0801044856988824  0.9372205168419043  0.23211556066161879  1.0000
  C   C35       1.0  0.8378944630214917  0.15993728408257374  0.7118686066738745  1.0000
  C   C36       1.0  0.1621104281198242  0.8400643167099628  0.2881303875481152  1.0000
  C   C37       1.0  0.6906043608611724  0.2235813087876792  0.7692268994079471  1.0000
  C   C38       1.0  0.30939726000158885  0.7764192519524542  0.2307723143270194  1.0000
  C   C39       1.0  0.6202439697265731  0.33990245421971826  0.7036664819259357  1.0000
  C   C40       1.0  0.37975781707184103  0.6600970896265181  0.2963336055133254  1.0000
  C   C41       1.0  0.6801425118547259  0.731714014651246  0.3710739515551467  1.0000
  C   C42       1.0  0.3198568279879197  0.2682865255569595  0.6289266461124257  1.0000
  C   C43       1.0  0.672043493581903  0.8834142307497429  0.36472554047175987  1.0000
  C   C44       1.0  0.3279560121963954  0.1165852925645652  0.6352759309001073  1.0000
  C   C45       1.0  0.6393149508886254  0.9699707264043627  0.27608834362384727  1.0000
  C   C46       1.0  0.3606847166298905  0.03002778219872941  0.7239132214265354  1.0000
  C   C47       1.0  0.6295594502859102  0.10952996180102301  0.2743308064092673  1.0000
  C   C48       1.0  0.3704393855189352  0.8904665147530508  0.7256689078742156  1.0000
  C   C49       1.0  0.6851360393450606  0.08250236010653111  0.439417675828679  1.0000
  C   C50       1.0  0.31486085354181637  0.9174991764636502  0.5605834320672046  1.0000
  C   C51       1.0  0.694445241488651  0.9418046598773487  0.4482458456663566  1.0000
  C   C52       1.0  0.3055508322708746  0.0581948380957726  0.5517557515399716  1.0000
  N   N1        1.0  0.9101657487559223  0.3818728177818116  0.33080659880619107  1.0000
  N   N2        1.0  0.08983145922050541  0.6181266937312984  0.6691931363951583  1.0000
  N   N3        1.0  0.7964952576829277  0.39132636971786644  0.15974720612764767  1.0000
  N   N4        1.0  0.20350342896801268  0.6086711149993749  0.8402547545546709  1.0000
  N   N5        1.0  0.4283846104258016  0.24835216595705836  0.06502694478250252  1.0000
  N   N6        1.0  0.5716150487018296  0.7516463470113949  0.9349730602163149  1.0000
  N   N7        1.0  0.3372767475066142  0.2600605165507659  0.9229187486714991  1.0000
  N   N8        1.0  0.6627217690132384  0.73993798724306  0.07708155828073865  1.0000
  N   N9        1.0  0.653053384346812  0.1651168396282614  0.35400467932433344  1.0000
  N   N10       1.0  0.3469435001491873  0.8348847013072884  0.6459948685199848  1.0000
  O   O1        1.0  0.5470531094574366  0.4423285045754497  0.7558932928833003  1.0000
  O   O2        1.0  0.4529473687975453  0.5576720469900636  0.2441062228050725  1.0000
  O   O3        1.0  0.6412730273733515  0.3295322517867448  0.6018002112693566  1.0000
  O   O4        1.0  0.3587251656660797  0.670468281429521  0.398199908325843  1.0000
  O   O5        1.0  0.6595064240186373  0.6614463992130764  0.465502666242827  1.0000
  O   O6        1.0  0.34049275408379753  0.3385551557063522  0.5344978377462224  1.0000
  O   O7        1.0  0.7080450944648715  0.6820956523246623  0.27911982727995616  1.0000
  O   O8        1.0  0.2919555539212055  0.3179038801642662  0.7208813421385044  1.0000
