data_image0
_chemical_formula_structural       Cd2H16C20Br8N4
_chemical_formula_sum              "Cd2 H16 C20 Br8 N4"
_cell_length_a       4.0017478330756315
_cell_length_b       11.693777609875866
_cell_length_c       14.660166181705092
_cell_angle_alpha    90.00020638087811
_cell_angle_beta     90.00112976214538
_cell_angle_gamma    87.33972283168328

_space_group_name_H-M_alt    "P 1"
_space_group_IT_number       1

loop_
  _space_group_symop_operation_xyz
  'x, y, z'

loop_
  _atom_site_type_symbol
  _atom_site_label
  _atom_site_symmetry_multiplicity
  _atom_site_fract_x
  _atom_site_fract_y
  _atom_site_fract_z
  _atom_site_occupancy
  Cd  Cd1       1.0  1.888425863706388e-06  0.9999987974428918  8.375790941e-07  1.0000
  Cd  Cd2       1.0  1.1955799977048002e-06  0.49999909927863934  0.5000012311611925  1.0000
  H   H1        1.0  0.7441796838469656  0.9000958791719353  0.806166837223472  1.0000
  H   H2        1.0  0.7442142874528129  0.4001091054652904  0.69383924710678  1.0000
  H   H3        1.0  0.2558077145837316  0.0998933843393246  0.1938383519576092  1.0000
  H   H4        1.0  0.2557975820143525  0.5998944150552177  0.3061713991267608  1.0000
  H   H5        1.0  0.9924546020933107  0.12017738715554323  0.5808066735167685  1.0000
  H   H6        1.0  0.9925689570808061  0.6202065077065056  0.9191876361520741  1.0000
  H   H7        1.0  0.007480330644206394  0.8798107701426192  0.4191930585554999  1.0000
  H   H8        1.0  0.007515101242695702  0.3798055888767776  0.08081482484526249  1.0000
  H   H9        1.0  0.2440316506699745  0.24993561690347119  0.6944986297061463  1.0000
  H   H10       1.0  0.2440652494119817  0.7499694950929978  0.8054817605595088  1.0000
  H   H11       1.0  0.7559609418041903  0.7500484554098749  0.3054935991915642  1.0000
  H   H12       1.0  0.7559436386980138  0.25004688810594894  0.19450910419072187  1.0000
  H   H13       1.0  0.2352844144715718  0.19655858699486833  0.8607374315748046  1.0000
  H   H14       1.0  0.23525694166871602  0.6965728425294484  0.6392454770368656  1.0000
  H   H15       1.0  0.764715458573896  0.8034313880471873  0.1392554794722329  1.0000
  H   H16       1.0  0.7647073686674233  0.3034320809236775  0.3607487981769281  1.0000
  C   C1        1.0  0.8541664226437858  0.9763997601377313  0.778615723675429  1.0000
  C   C2        1.0  0.8542255546135492  0.47641110216818566  0.7213843712797895  1.0000
  C   C3        1.0  0.14580567966375213  0.0235973765585413  0.2213846906323553  1.0000
  C   C4        1.0  0.14580863560638593  0.5235972926281177  0.27862218229898156  1.0000
  C   C5        1.0  0.8530135696369994  0.00017048598078160364  0.6854604498102786  1.0000
  C   C6        1.0  0.8531036710147859  0.5001815132660993  0.8145409199757692  1.0000
  C   C7        1.0  0.14692614239261562  0.9998236028600971  0.3145433750070836  1.0000
  C   C8        1.0  0.1469582582826447  0.49982057548216835  0.18546631578956854  1.0000
  C   C9        1.0  0.9910025225793221  0.09974153816166621  0.6532935385045064  1.0000
  C   C10       1.0  0.9910869192687954  0.5997655864131062  0.8466979725609461  1.0000
  C   C11       1.0  0.008964768534028202  0.9002505225874059  0.3467041473004144  1.0000
  C   C12       1.0  0.008977063856932007  0.40024845182207963  0.15330175990256117  1.0000
  C   C13       1.0  0.1290306949462234  0.1721825678276616  0.7170900291662576  1.0000
  C   C14       1.0  0.1290655460647443  0.6722069349979093  0.7828956366556523  1.0000
  C   C15       1.0  0.8709442919489375  0.827804272929761  0.2829042460491706  1.0000
  C   C16       1.0  0.8709485686191131  0.3278034014353537  0.2170986387021827  1.0000
  C   C17       1.0  0.1244991358366008  0.1431033964180557  0.8091373603033318  1.0000
  C   C18       1.0  0.1244926052385438  0.6431236009114727  0.6908468280610405  1.0000
  C   C19       1.0  0.8755031427817954  0.8568891165965271  0.190856232874637  1.0000
  C   C20       1.0  0.8754988371895537  0.3568912727710511  0.3091501757239001  1.0000
  Br  Br1       1.0  0.4765204578987223  0.16417329144233153  0.0308047468152424  1.0000
  Br  Br2       1.0  0.4764968941931826  0.6641742647854656  0.4691913966820778  1.0000
  Br  Br3       1.0  0.5234840987325741  0.8358251819289748  0.96919634970358  1.0000
  Br  Br4       1.0  0.5235025637867778  0.3358268329833436  0.5308096998268255  1.0000
  Br  Br5       1.0  0.673110752445254  0.8934008262354141  0.6033374181316586  1.0000
  Br  Br6       1.0  0.6732648816595415  0.39341091046224363  0.8966662122117341  1.0000
  Br  Br7       1.0  0.3267912148825758  0.10659968388713283  0.3966650423515218  1.0000
  Br  Br8       1.0  0.3268421048614131  0.6065898041396736  0.10334307003590479  1.0000
  N   N1        1.0  0.9890399825729119  0.047017625549870004  0.8393343182087847  1.0000
  N   N2        1.0  0.9890341655906454  0.5470282952301985  0.66065838587933  1.0000
  N   N3        1.0  0.0109599865413159  0.9529697827216452  0.16066473191919067  1.0000
  N   N4        1.0  0.010950124236991605  0.45297725335756667  0.3393427105949769  1.0000
