data_image0
_chemical_formula_structural       K6H6C2N12O14
_chemical_formula_sum              "K6 H6 C2 N12 O14"
_cell_length_a       7.813575892168877
_cell_length_b       8.989494078699744
_cell_length_c       9.1222069304223
_cell_angle_alpha    66.73307019220985
_cell_angle_beta     92.27365023717627
_cell_angle_gamma    69.95785069852066

_space_group_name_H-M_alt    "P 1"
_space_group_IT_number       1

loop_
  _space_group_symop_operation_xyz
  'x, y, z'

loop_
  _atom_site_type_symbol
  _atom_site_label
  _atom_site_symmetry_multiplicity
  _atom_site_fract_x
  _atom_site_fract_y
  _atom_site_fract_z
  _atom_site_occupancy
  K   K1        1.0  0.28493207014088273  0.37965262284026113  0.042041783480087226  1.0000
  K   K2        1.0  0.7150614655587544  0.6203519595363859  0.9579578292299473  1.0000
  K   K3        1.0  0.07083483605750016  0.2680335714544029  0.7264091302324687  1.0000
  K   K4        1.0  0.9291770676224756  0.73194960364129  0.2735984837507743  1.0000
  K   K5        1.0  0.45906037320919757  0.7927445599880657  0.4602793771278968  1.0000
  K   K6        1.0  0.540937255262989  0.20726648888203406  0.5397219512656264  1.0000
  H   H1        1.0  0.010741263928970601  0.000942476874527602  0.36442650818968764  1.0000
  H   H2        1.0  0.9892567346768216  0.9990566173694473  0.6355699500988978  1.0000
  H   H3        1.0  0.7197932387662573  0.4728049839065775  0.36981092724077774  1.0000
  H   H4        1.0  0.2802016364550824  0.5271954836221865  0.6301838350592421  1.0000
  H   H5        1.0  0.540525941883608  0.5832838723360111  0.23444285460577424  1.0000
  H   H6        1.0  0.4594675394627927  0.4167206526459281  0.765554587687518  1.0000
  C   C1        1.0  0.9460230532894653  0.1405199347536978  0.27602943795112383  1.0000
  C   C2        1.0  0.05397290518265403  0.8594779904246223  0.7239696872007927  1.0000
  N   N1        1.0  0.7454831128689106  0.1849289374192153  0.2431911502633923  1.0000
  N   N2        1.0  0.2545140617470522  0.8150688577865991  0.7568047478468217  1.0000
  N   N3        1.0  0.7035776672670477  0.045574352063042084  0.3119810747138345  1.0000
  N   N4        1.0  0.29641914237151906  0.9544249008507961  0.6880196958248206  1.0000
  N   N5        1.0  0.9769572685902476  0.25034814201963945  0.3520238144993897  1.0000
  N   N6        1.0  0.02303866270526097  0.7496497544613306  0.647974225444159  1.0000
  N   N7        1.0  0.11459867926679833  0.3007243722413618  0.319111566256801  1.0000
  N   N8        1.0  0.8853985768790121  0.6992735090565104  0.680887587478509  1.0000
  N   N9        1.0  0.028570470704934802  0.15506574144576749  0.13443427909170685  1.0000
  N   N10       1.0  0.9714273773463729  0.8449373089762277  0.8655627173568305  1.0000
  N   N11       1.0  0.16083937542330765  0.0016775826031790008  0.1559921667244026  1.0000
  N   N12       1.0  0.8391756780204881  0.998331638994607  0.8440122572834952  1.0000
  O   O1        1.0  0.6271495625818556  0.34638758479606924  0.1612964486605933  1.0000
  O   O2        1.0  0.3728486409316573  0.6536076106645937  0.8387016418847822  1.0000
  O   O3        1.0  0.5280135336171197  0.0807038447133053  0.2911487834018303  1.0000
  O   O4        1.0  0.47198285669082896  0.9192968085138418  0.7088546891485379  1.0000
  O   O5        1.0  0.8793911051307715  0.2667240515190201  0.4638662312858274  1.0000
  O   O6        1.0  0.12060535420181392  0.7332725594380419  0.536133447479486  1.0000
  O   O7        1.0  0.15199582568568804  0.3757656809409724  0.4029455047406643  1.0000
  O   O8        1.0  0.8480024593576728  0.6242296006117484  0.5970558414298139  1.0000
  O   O9        1.0  0.9740631369540439  0.30250025059165614  0.0016843029769191093  1.0000
  O   O10       1.0  0.025932821518075855  0.6974976745866641  0.9983148221749901  1.0000
  O   O11       1.0  0.23578041586066684  0.007545536535978698  0.03427090931439381  1.0000
  O   O12       1.0  0.7642516975773569  0.9924633154975099  0.9657414827363198  1.0000
  O   O13       1.0  0.6242825769832618  0.595824069950524  0.3066294356699331  1.0000
  O   O14       1.0  0.37571417830207576  0.4041751255686066  0.6933691644519868  1.0000
