data_image0
_chemical_formula_structural       Ni4H8C16S4N8O20
_chemical_formula_sum              "Ni4 H8 C16 S4 N8 O20"
_cell_length_a       7.151476452447753
_cell_length_b       7.1718004672994144
_cell_length_c       12.962163300946871
_cell_angle_alpha    91.01443355368932
_cell_angle_beta     89.99093667136228
_cell_angle_gamma    89.99198046993477

_space_group_name_H-M_alt    "P 1"
_space_group_IT_number       1

loop_
  _space_group_symop_operation_xyz
  'x, y, z'

loop_
  _atom_site_type_symbol
  _atom_site_label
  _atom_site_symmetry_multiplicity
  _atom_site_fract_x
  _atom_site_fract_y
  _atom_site_fract_z
  _atom_site_occupancy
  Ni  Ni1       1.0  0.5031872138158349  0.7246089659548718  0.6796875311754463  1.0000
  Ni  Ni2       1.0  0.0032635038724820003  0.2753422582039846  0.3203327238377654  1.0000
  Ni  Ni3       1.0  0.4987574105421401  0.7921517148034031  0.18081635193967574  1.0000
  Ni  Ni4       1.0  0.9987432066370375  0.20783745972359216  0.819206597469524  1.0000
  H   H1        1.0  0.16972600972183463  0.5942645559194447  0.7341211484033396  1.0000
  H   H2        1.0  0.6698796872669349  0.4058774109937674  0.2658289474288509  1.0000
  H   H3        1.0  0.14364092194073655  0.7177627305816969  0.6304446346722443  1.0000
  H   H4        1.0  0.643715421567144  0.28241644032495133  0.36950579418109447  1.0000
  H   H5        1.0  0.4919128506306194  0.1434541533998868  0.13384246515379067  1.0000
  H   H6        1.0  0.9919108789575689  0.8565748125087042  0.8661004397700865  1.0000
  H   H7        1.0  0.3708284613765187  0.11689801107586822  0.23816271175196851  1.0000
  H   H8        1.0  0.8706746596926533  0.8832084603184784  0.7618564292382646  1.0000
  C   C1        1.0  0.8391473010596044  0.7960947156795514  0.5645660304203872  1.0000
  C   C2        1.0  0.3393212898400861  0.20400777143899526  0.4354111236678833  1.0000
  C   C3        1.0  0.6865510821542457  0.772823242556598  0.48527141308847643  1.0000
  C   C4        1.0  0.18670220460484188  0.22730812737735556  0.5147388149912189  1.0000
  C   C5        1.0  0.6754876038250615  0.8095095308926759  0.37827994304810647  1.0000
  C   C6        1.0  0.17557586000670258  0.190584418166857  0.6217440505680258  1.0000
  C   C7        1.0  0.8057799038204224  0.9085576213300685  0.307267616572716  1.0000
  C   C8        1.0  0.30580600336758584  0.09137399316015402  0.6927294962140708  1.0000
  C   C9        1.0  0.5851256499919019  0.45084350718725835  0.07190650812574971  1.0000
  C   C10       1.0  0.08514858272656771  0.5491141185909144  0.9281073132498393  1.0000
  C   C11       1.0  0.5687668599275  0.595388391298748  0.9896629633198799  1.0000
  C   C12       1.0  0.0687826678419299  0.4045171333738864  0.010332557826316702  1.0000
  C   C13       1.0  0.5659237610687172  0.580924405023417  0.8803795289937925  1.0000
  C   C14       1.0  0.0660045480577338  0.4189745942115551  0.11963161277039801  1.0000
  C   C15       1.0  0.6336523573480759  0.43054084343599913  0.8067607777300907  1.0000
  C   C16       1.0  0.1337388912398723  0.5693721146971029  0.1932275109117185  1.0000
  S   S1        1.0  0.3712276462966599  0.683841674811042  0.42839814963721073  1.0000
  S   S2        1.0  0.8713060291657726  0.3162229890817444  0.5716560613307564  1.0000
  S   S3        1.0  0.4809613141916246  0.9033208644925497  0.9258998939853103  1.0000
  S   S4        1.0  0.9810305548903527  0.0966025367024912  0.07413021560579121  1.0000
  N   N1        1.0  0.5260189898685041  0.703403290990849  0.5210231614843509  1.0000
  N   N2        1.0  0.0261201875968098  0.29668687618455897  0.47898550479151686  1.0000
  N   N3        1.0  0.5083308997580006  0.7653063742700041  0.33799293259657764  1.0000
  N   N4        1.0  0.0083806226390308  0.2347571918729372  0.6620679847644484  1.0000
  N   N5        1.0  0.5296266939821876  0.7694219122809329  0.022860927969105705  1.0000
  N   N6        1.0  0.029586562186196402  0.2304905912457826  0.9771296416363457  1.0000
  N   N7        1.0  0.5139448344272209  0.7413870626045737  0.8368004327869516  1.0000
  N   N8        1.0  0.014067866644772699  0.2584971291838869  0.1632375564243489  1.0000
  O   O1        1.0  0.7789062605817347  0.7912499691863462  0.6583842425698025  1.0000
  O   O2        1.0  0.2789844303362088  0.20881658372451287  0.3416179950254445  1.0000
  O   O3        1.0  0.006953841304827801  0.8104603973343033  0.5395529157880363  1.0000
  O   O4        1.0  0.5071316587965101  0.18967280000180867  0.46041076043538015  1.0000
  O   O5        1.0  0.9340443149005608  0.0043468582602699014  0.34830612763055785  1.0000
  O   O6        1.0  0.4339781666571624  0.9954825795405283  0.651630104672016  1.0000
  O   O7        1.0  0.7659605721246621  0.8964235703341219  0.2113384659136699  1.0000
  O   O8        1.0  0.2659187214580784  0.10343147855851242  0.7886638128097659  1.0000
  O   O9        1.0  0.2321904955027563  0.6375281399662855  0.6698985933199993  1.0000
  O   O10       1.0  0.7323082879535574  0.36265097698418475  0.3300709842199581  1.0000
  O   O11       1.0  0.5846057791254962  0.5186207715919978  0.16494461233603636  1.0000
  O   O12       1.0  0.08478891647552442  0.48131042712993377  0.8350713271316722  1.0000
  O   O13       1.0  0.5894643464969888  0.28122593354260056  0.04873513666667862  1.0000
  O   O14       1.0  0.0893731495696173  0.7187033000309951  0.9513166261392954  1.0000
  O   O15       1.0  0.7281640749411621  0.2995953657041143  0.8434260961859652  1.0000
  O   O16       1.0  0.2283126184407962  0.7002133012685761  0.15651662238035163  1.0000
  O   O17       1.0  0.5973134348626272  0.4566400486270368  0.711672621915348  1.0000
  O   O18       1.0  0.0972550861985084  0.5433143644883176  0.2883130922116166  1.0000
  O   O19       1.0  0.40527424487079605  0.05694463225165692  0.170589030760965  1.0000
  O   O20       1.0  0.9051545072293905  0.9430983636023668  0.829437290271983  1.0000
