data_image0
_chemical_formula_structural       Zn4H8C40N14O41
_chemical_formula_sum              "Zn4 H8 C40 N14 O41"
_cell_length_a       15.140676001379408
_cell_length_b       15.139523152446005
_cell_length_c       19.466935052853337
_cell_angle_alpha    89.1478317943773
_cell_angle_beta     90.24357887651693
_cell_angle_gamma    89.78602101396999

_space_group_name_H-M_alt    "P 1"
_space_group_IT_number       1

loop_
  _space_group_symop_operation_xyz
  'x, y, z'

loop_
  _atom_site_type_symbol
  _atom_site_label
  _atom_site_symmetry_multiplicity
  _atom_site_fract_x
  _atom_site_fract_y
  _atom_site_fract_z
  _atom_site_occupancy
  Zn  Zn1       1.0  0.5748947987809032  0.569452879897355  0.4366782145339699  1.0000
  Zn  Zn2       1.0  0.4323888236669689  0.5821051562688808  0.5597735471807681  1.0000
  Zn  Zn3       1.0  0.5758245450064551  0.4271083600470433  0.5597777121914261  1.0000
  Zn  Zn4       1.0  0.417454122370451  0.4258989607611526  0.4508721390126453  1.0000
  H   H1        1.0  0.14817475064761962  0.3927604386862313  0.49139861735361723  1.0000
  H   H2        1.0  0.8507032549464456  0.6127874085366187  0.49289143347854025  1.0000
  H   H3        1.0  0.4813051161557241  0.8514840086040749  0.5840157782717696  1.0000
  H   H4        1.0  0.39857472910803454  0.5817558372638418  0.7777499480547688  1.0000
  H   H5        1.0  0.5214768604979981  0.0006737161774949999  0.35629836466233655  1.0000
  H   H6        1.0  0.6533578876480491  0.45494198387771695  0.7639840903834025  1.0000
  H   H7        1.0  0.5987865266443677  0.5293438430436621  0.00968086855233  1.0000
  H   H8        1.0  0.4137586588932152  0.4453938310423383  0.9944275227810376  1.0000
  C   C1        1.0  0.26317190178576766  0.5203353908917592  0.5043971500349613  1.0000
  C   C2        1.0  0.7362323352499233  0.482438071533565  0.4876754813449934  1.0000
  C   C3        1.0  0.506528318349055  0.7373149917414922  0.48632093329687354  1.0000
  C   C4        1.0  0.4850934019355861  0.2658309320260556  0.5183781611864262  1.0000
  C   C5        1.0  0.5168771883285431  0.5155371570576152  0.685531843084284  1.0000
  C   C6        1.0  0.48868171672476296  0.4840079667664412  0.31927399194120903  1.0000
  C   C7        1.0  0.483713229920781  0.477617147158071  0.24181473150092356  1.0000
  C   C8        1.0  0.5492201167610632  0.4347587293522821  0.20442359109747335  1.0000
  C   C9        1.0  0.542926386903183  0.4278412930869493  0.1332667586076965  1.0000
  C   C10       1.0  0.4734073659444392  0.466774647220177  0.09543205554717096  1.0000
  C   C11       1.0  0.40580192362445905  0.5058119760179594  0.1340215739941542  1.0000
  C   C12       1.0  0.41028816515004973  0.509807794269605  0.2054982340361775  1.0000
  C   C13       1.0  0.4652265756824931  0.5504033015817954  0.8729093953851359  1.0000
  C   C14       1.0  0.45697225037562833  0.552451143843797  0.8018317741561203  1.0000
  C   C15       1.0  0.5996487505689531  0.4821065390633876  0.7940772382169923  1.0000
  C   C16       1.0  0.6054570370771232  0.4803838441413077  0.8652718036184195  1.0000
  C   C17       1.0  0.5377006028870567  0.5119299466100315  0.9081425680758954  1.0000
  C   C18       1.0  0.4729946336145119  0.46980461399077467  0.019830926761166295  1.0000
  C   C19       1.0  0.5401422802325726  0.5045441074343628  0.9836473210120998  1.0000
  C   C20       1.0  0.5245156413766381  0.5170781976983605  0.7619881222846201  1.0000
  C   C21       1.0  0.1648227479680031  0.5311930765031222  0.5007164827637851  1.0000
  C   C22       1.0  0.8348032861336492  0.47399348320221435  0.48436473337510927  1.0000
  C   C23       1.0  0.9673951426690055  0.38411145063649593  0.48682323223739127  1.0000
  C   C24       1.0  0.8768885432477663  0.3904510304496469  0.4825198161504857  1.0000
  C   C25       1.0  0.8846581210214028  0.5494789027173326  0.490628914912854  1.0000
  C   C26       1.0  0.9777603503504013  0.5447928355354892  0.49639692037276  1.0000
  C   C27       1.0  0.0210828499117497  0.4604646422018774  0.49317468328756325  1.0000
  C   C28       1.0  0.11424431050327398  0.45605847839716057  0.4944934544278254  1.0000
  C   C29       1.0  0.12269628786401653  0.6143672018475854  0.5057923566735737  1.0000
  C   C30       1.0  0.031890965492174  0.6207128152362387  0.5038256109387476  1.0000
  C   C31       1.0  0.5014587109530168  0.8356222231099082  0.4771507099894237  1.0000
  C   C32       1.0  0.48439327137126054  0.16630773461656642  0.5218788688347686  1.0000
  C   C33       1.0  0.4768764572501071  0.0313654559839307  0.5903748799783199  1.0000
  C   C34       1.0  0.4738871668837775  0.12217977299336981  0.5856815282116159  1.0000
  C   C35       1.0  0.4968448954253972  0.11648212579672898  0.4637972814076008  1.0000
  C   C36       1.0  0.4996004340395502  0.022584849731728696  0.4656399577560818  1.0000
  C   C37       1.0  0.4890177829782801  0.9790452383369299  0.5312545319473471  1.0000
  C   C38       1.0  0.4893890082399963  0.8857055197922036  0.5349382799574443  1.0000
  C   C39       1.0  0.513656434919632  0.8797874602312915  0.41322538837319195  1.0000
  C   C40       1.0  0.5133552119732487  0.9702708974864861  0.40684956989817056  1.0000
  N   N1        1.0  0.6231691433594903  0.38923950901306636  0.24147627233826793  1.0000
  N   N2        1.0  0.6873613856309505  0.4410150567283253  0.8948886156613651  1.0000
  N   N3        1.0  0.17687593009229377  0.6954968465871971  0.5110791936460186  1.0000
  N   N4        1.0  0.0112774428048326  0.29668327267227573  0.48263010084561125  1.0000
  N   N5        1.0  0.9894204751755427  0.7088146216074238  0.5076365584778981  1.0000
  N   N6        1.0  0.8227371807154855  0.3100972566257596  0.4735810529768684  1.0000
  N   N7        1.0  0.5200830127807379  0.8291123339196388  0.3488559700555881  1.0000
  N   N8        1.0  0.4626496687659198  0.9859715351868916  0.6574481542293638  1.0000
  N   N9        1.0  0.45746161617460507  0.17538794076236291  0.6475339865409993  1.0000
  N   N10       1.0  0.5097659789966756  0.1644827746095103  0.39757910185705464  1.0000
  N   N11       1.0  0.3313801888162189  0.5497616572057354  0.0969322463615612  1.0000
  N   N12       1.0  0.3941222395807388  0.596191291729504  0.9111198307551049  1.0000
  N   N13       1.0  0.3350570307256859  0.5457671463309522  0.2450397831241844  1.0000
  N   N14       1.0  0.6104933112499114  0.3743520955779545  0.09739494047943249  1.0000
  O   O1        1.0  0.49974770904202614  0.5016612741756603  0.500953043517427  1.0000
  O   O2        1.0  0.2947164455972171  0.4607629054348407  0.46622727996007274  1.0000
  O   O3        1.0  0.7010464391996719  0.5429562024039284  0.4509546280960918  1.0000
  O   O4        1.0  0.4583531557980152  0.704824853845345  0.5335876766317822  1.0000
  O   O5        1.0  0.5445209137152105  0.3017400712070922  0.5543069110552565  1.0000
  O   O6        1.0  0.455683112564124  0.5622353949360247  0.6579960827004498  1.0000
  O   O7        1.0  0.44043335391298655  0.42937876291447463  0.3517772027467742  1.0000
  O   O8        1.0  0.5726014758433065  0.4670078383609849  0.6546999646108844  1.0000
  O   O9        1.0  0.5413809280012105  0.5408362051690148  0.3421494042201373  1.0000
  O   O10       1.0  0.5608493910862224  0.6969344696744673  0.4482276870714657  1.0000
  O   O11       1.0  0.427105668042188  0.3014378840647042  0.47995359973751317  1.0000
  O   O12       1.0  0.30415600521205727  0.5690653823063344  0.5462721993664842  1.0000
  O   O13       1.0  0.6991865456744223  0.43040035978471275  0.5303651927506223  1.0000
  O   O14       1.0  0.624775140616201  0.3080963681923734  0.2367604234149567  1.0000
  O   O15       1.0  0.6747172992557325  0.4359188055469545  0.27373241518014163  1.0000
  O   O16       1.0  0.6859036486563497  0.41626862019604266  0.9557699193619625  1.0000
  O   O17       1.0  0.7519257111347527  0.43587076220245546  0.8564644948251469  1.0000
  O   O18       1.0  0.1662655989739292  0.7402654767348408  0.5628163848371627  1.0000
  O   O19       1.0  0.22762695116036727  0.7104164773649373  0.46300038324189785  1.0000
  O   O20       1.0  0.0550065161082287  0.2729303682591037  0.5333552946576248  1.0000
  O   O21       1.0  0.0018668736628981988  0.2564984545350981  0.4284699910884838  1.0000
  O   O22       1.0  0.012710776589919703  0.7647781037788165  0.4647714855102123  1.0000
  O   O23       1.0  0.933526000739029  0.7183763359463172  0.5530722234756026  1.0000
  O   O24       1.0  0.8369805489112924  0.2477625116019411  0.5137379938134785  1.0000
  O   O25       1.0  0.7680728200216934  0.31304809491182073  0.42642212212506075  1.0000
  O   O26       1.0  0.461223771895348  0.7743896883144004  0.3389185844145999  1.0000
  O   O27       1.0  0.5815945466880663  0.847710050990031  0.3098861837331696  1.0000
  O   O28       1.0  0.3886521412405913  0.9937613752777849  0.6828866499191832  1.0000
  O   O29       1.0  0.5253287057797281  0.9423467729165865  0.6805408929968307  1.0000
  O   O30       1.0  0.49878172498895884  0.15476982123658442  0.700118364469958  1.0000
  O   O31       1.0  0.4034431551250108  0.2364301146155441  0.6408478132681734  1.0000
  O   O32       1.0  0.5660721468141858  0.22336739029045563  0.39681989727153416  1.0000
  O   O33       1.0  0.4631172670977506  0.1419480804937052  0.3486790234555882  1.0000
  O   O34       1.0  0.28847226809039483  0.5032624226341155  0.05747487299583301  1.0000
  O   O35       1.0  0.3206336429864932  0.6289803466560431  0.10777551823542807  1.0000
  O   O36       1.0  0.4172657090443579  0.649330682118979  0.9552450490229131  1.0000
  O   O37       1.0  0.3173806326909485  0.5791718475443872  0.8940901324725986  1.0000
  O   O38       1.0  0.26045512893819733  0.5250125728836821  0.22548396450777364  1.0000
  O   O39       1.0  0.35340861221371267  0.5912142828601291  0.2952671490926377  1.0000
  O   O40       1.0  0.6881113651394346  0.39683948335577657  0.10523655375655488  1.0000
  O   O41       1.0  0.5826523677420923  0.3115705509181624  0.0643280026484661  1.0000
