data_image0
_chemical_formula_structural       Zn3H40C42N4O12
_chemical_formula_sum              "Zn3 H40 C42 N4 O12"
_cell_length_a       8.913038057601849
_cell_length_b       9.04605766991473
_cell_length_c       13.261943849713946
_cell_angle_alpha    100.18839781025105
_cell_angle_beta     98.64922137127907
_cell_angle_gamma    105.1686270622772

_space_group_name_H-M_alt    "P 1"
_space_group_IT_number       1

loop_
  _space_group_symop_operation_xyz
  'x, y, z'

loop_
  _atom_site_type_symbol
  _atom_site_label
  _atom_site_symmetry_multiplicity
  _atom_site_fract_x
  _atom_site_fract_y
  _atom_site_fract_z
  _atom_site_occupancy
  Zn  Zn1       1.0  1.6561270826058826e-06  0.9999984075698904  7.078659365013389e-07  1.0000
  Zn  Zn2       1.0  0.15342514090826848  0.9992403292562031  0.24983356087746952  1.0000
  Zn  Zn3       1.0  0.8465742094161328  0.0007598223651825993  0.7501666238818101  1.0000
  H   H1        1.0  0.8133542038070659  0.6171005843075791  0.2941513885654031  1.0000
  H   H2        1.0  0.18664672474263708  0.38289722545260224  0.7058486560747212  1.0000
  H   H3        1.0  0.640660181613775  0.46063817110557187  0.23121920207739768  1.0000
  H   H4        1.0  0.35933892892853697  0.5393572614079503  0.7687826294259918  1.0000
  H   H5        1.0  0.9616595535808089  0.5177962986690617  0.16275049563551391  1.0000
  H   H6        1.0  0.03833919276130615  0.48219798513775897  0.8372481400285918  1.0000
  H   H7        1.0  0.7914837968980495  0.36097007134517173  0.1013428050533278  1.0000
  H   H8        1.0  0.2085156523621237  0.6390265506979206  0.8986577005607256  1.0000
  H   H9        1.0  0.5200807462579463  0.10380203525853202  0.9200668981655935  1.0000
  H   H10       1.0  0.47992531033724367  0.8962016963006507  0.07993137263838433  1.0000
  H   H11       1.0  0.3359986223721235  0.9837391046736385  0.9345606545049204  1.0000
  H   H12       1.0  0.6640045575915466  0.016258749088287103  0.06543584461596197  1.0000
  H   H13       1.0  0.6532098727065616  0.5625715310396516  0.0631948870036965  1.0000
  H   H14       1.0  0.34679070863117534  0.43742510279859204  0.9368049762828858  1.0000
  H   H15       1.0  0.6164259847853942  0.6908297694885448  0.16687809044501015  1.0000
  H   H16       1.0  0.3835742493403771  0.30916568842775405  0.8331215914880301  1.0000
  H   H17       1.0  0.5676002074643804  0.2585264949449098  0.10386363120704085  1.0000
  H   H18       1.0  0.43239982029572843  0.7414760357356088  0.8961339017735879  1.0000
  H   H19       1.0  0.386184162977905  0.2612841747757031  0.02738975099346419  1.0000
  H   H20       1.0  0.6138102778478114  0.7387148081736116  0.9726067927506886  1.0000
  H   H21       1.0  0.9746933554245487  0.4174724742480792  0.32700001389270017  1.0000
  H   H22       1.0  0.02530904392057924  0.5825265368368238  0.672998062530631  1.0000
  H   H23       1.0  0.7901880493811647  0.27390040685126854  0.27293053598161515  1.0000
  H   H24       1.0  0.20981061926046615  0.7260973725148008  0.7270715469348872  1.0000
  H   H25       1.0  0.19249545927854686  0.7194836210812313  0.0707253075527277  1.0000
  H   H26       1.0  0.8074969826564596  0.2805200165627895  0.9292753958308634  1.0000
  H   H27       1.0  0.25024011089637804  0.46022012121861894  0.072648878421866  1.0000
  H   H28       1.0  0.749754595193764  0.5397835400157052  0.9273505403067828  1.0000
  H   H29       1.0  0.1847610934673369  0.19471593181742722  0.4753452968699036  1.0000
  H   H30       1.0  0.8152401130879596  0.805286535816336  0.5246598836190229  1.0000
  H   H31       1.0  0.2650340571451792  0.1629278087337696  0.6590614654766538  1.0000
  H   H32       1.0  0.7349695082539682  0.837071159715805  0.3409419975906686  1.0000
  H   H33       1.0  0.3692361908425852  0.9362935560577769  0.6846047265849221  1.0000
  H   H34       1.0  0.6307670146034213  0.06370425688128022  0.3153962942645663  1.0000
  H   H35       1.0  0.34161107958388476  0.4022610268080983  0.24561051366581665  1.0000
  H   H36       1.0  0.6583873699509156  0.597743845733625  0.7543871594339604  1.0000
  H   H37       1.0  0.4131051571519607  0.6832949327124995  0.6032213051737827  1.0000
  H   H38       1.0  0.5868953167558857  0.3167052443116631  0.396776730015162  1.0000
  H   H39       1.0  0.3949221796563336  0.48307547165040887  0.44134290658942626  1.0000
  H   H40       1.0  0.6050793316403682  0.5169282399433968  0.5586549190387016  1.0000
  C   C1        1.0  0.8498352174208533  0.7714450528724303  0.13807093992902247  1.0000
  C   C2        1.0  0.1501650209519667  0.22855039824005977  0.8619294956254533  1.0000
  C   C3        1.0  0.7499647518163712  0.53837603279041  0.21786463745738868  1.0000
  C   C4        1.0  0.2500354865564561  0.4616194183220729  0.7821357980970872  1.0000
  C   C5        1.0  0.35806407146601776  0.1266191395069924  0.14109138631538795  1.0000
  C   C6        1.0  0.6419398284039276  0.8733810252759542  0.8589099972411771  1.0000
  C   C7        1.0  0.8536992384637118  0.44034763305675995  0.1775413482259722  1.0000
  C   C8        1.0  0.14629941318969497  0.5596501735245527  0.8224577202047881  1.0000
  C   C9        1.0  0.9806424826151384  0.22300457646020533  0.21061246243220913  1.0000
  C   C10       1.0  0.019357296868776065  0.7769932487200676  0.7893852100496515  1.0000
  C   C11       1.0  0.2818746372885243  0.7580076350917934  0.32518385680577205  1.0000
  C   C12       1.0  0.7181257546717745  0.2419960442954263  0.6748168720141263  1.0000
  C   C13       1.0  0.282387068901734  0.8685744855882265  0.41817325911493697  1.0000
  C   C14       1.0  0.7176149012838806  0.131426851937789  0.5818273295858134  1.0000
  C   C15       1.0  0.4568987849143937  0.05302500136883032  0.9770355512516742  1.0000
  C   C16       1.0  0.5431053589846896  0.9469798757181778  0.02296493918222348  1.0000
  C   C17       1.0  0.7066463324095196  0.6373870834016769  0.14195353674952568  1.0000
  C   C18       1.0  0.2933542489282174  0.3626095504365666  0.8580463265370637  1.0000
  C   C19       1.0  0.3308909853367227  0.8405493539292481  0.5181395741226777  1.0000
  C   C20       1.0  0.6691124641384292  0.15945317131387068  0.4818605536041359  1.0000
  C   C21       1.0  0.4482917938652236  0.1865508417828323  0.06206818328874419  1.0000
  C   C22       1.0  0.5517090272545956  0.8134505111632748  0.9379300332537351  1.0000
  C   C23       1.0  0.8990827723692832  0.34243139684540586  0.25281593290797827  1.0000
  C   C24       1.0  0.10091623499020845  0.6575675720502334  0.7471848241191946  1.0000
  C   C25       1.0  0.3230368309743739  0.6192008809718317  0.33462747529809167  1.0000
  C   C26       1.0  0.6769628580678814  0.38080046017912395  0.6653713835718589  1.0000
  C   C27       1.0  0.23139049663558353  0.6881677050174204  0.1440532101250653  1.0000
  C   C28       1.0  0.7686008089747958  0.31183592763525064  0.8559473819645615  1.0000
  C   C29       1.0  0.266986966039113  0.5456899244693788  0.1456231804744661  1.0000
  C   C30       1.0  0.7330088763756422  0.4543137417562805  0.8543763495481468  1.0000
  C   C31       1.0  0.22891047990589192  0.09732819325633811  0.4905155572002612  1.0000
  C   C32       1.0  0.7710902762546112  0.9026766348375903  0.509488367458914  1.0000
  C   C33       1.0  0.2759660603034675  0.07972965859696052  0.592599872482914  1.0000
  C   C34       1.0  0.7240359226233152  0.9202716585176349  0.40740297708213546  1.0000
  C   C35       1.0  0.3289796487241219  0.952591636230011  0.6066132420460874  1.0000
  C   C36       1.0  0.6710242553928794  0.04740852174912651  0.3933888951319131  1.0000
  C   C37       1.0  0.3144122548245178  0.5119029163979365  0.2410243986753144  1.0000
  C   C38       1.0  0.6855858517453726  0.4881007734180329  0.7589738466923561  1.0000
  C   C39       1.0  0.37461183943594284  0.7002627464913617  0.5251371951258575  1.0000
  C   C40       1.0  0.6253886387189597  0.29973742372899187  0.47486159368452246  1.0000
  C   C41       1.0  0.36781545100317464  0.5927296179701146  0.43662553517440716  1.0000
  C   C42       1.0  0.6321842380390806  0.4072717231808411  0.5633733236955434  1.0000
  N   N1        1.0  0.23357672793061118  0.9955668370792171  0.4060311859592288  1.0000
  N   N2        1.0  0.7664259494201104  0.004436831879267801  0.5939720263128976  1.0000
  N   N3        1.0  0.23852788974910777  0.7906950954091486  0.2314075009772408  1.0000
  N   N4        1.0  0.7614679654068224  0.20930855040508334  0.7685942899096714  1.0000
  O   O1        1.0  0.21510496552897962  0.029761119204529504  0.10735707298208297  1.0000
  O   O2        1.0  0.7848966616917252  0.9702390355957395  0.8926440879865536  1.0000
  O   O3        1.0  0.9285924785633101  0.8552471367505775  0.22751882884483618  1.0000
  O   O4        1.0  0.0714050410125253  0.14475065803558354  0.7724808819133955  1.0000
  O   O5        1.0  0.0835109905426563  0.19743514604715534  0.2783772565728596  1.0000
  O   O6        1.0  0.9164868762451521  0.8025638246609506  0.7216226355389138  1.0000
  O   O7        1.0  0.41861416444799465  0.16682201456239912  0.23753101520756553  1.0000
  O   O8        1.0  0.5813890409980118  0.8331757983766581  0.7624700056419228  1.0000
  O   O9        1.0  0.8812688752307807  0.7908522371431135  0.05015334822692102  1.0000
  O   O10       1.0  0.11873285092568861  0.20914438807884755  0.9498481335964964  1.0000
  O   O11       1.0  0.9378112139025917  0.15619064384752326  0.11393737334633866  1.0000
  O   O12       1.0  0.06218446218351663  0.8438048145148331  0.8860596025465524  1.0000
