data_image0
_chemical_formula_structural       Zr12H100C100O64
_chemical_formula_sum              "Zr12 H100 C100 O64"
_cell_length_a       15.43952441758675
_cell_length_b       17.41117648774021
_cell_length_c       25.571083130868978
_cell_angle_alpha    88.71446904545539
_cell_angle_beta     89.8284674777876
_cell_angle_gamma    64.74401314840773

_space_group_name_H-M_alt    "P 1"
_space_group_IT_number       1

loop_
  _space_group_symop_operation_xyz
  'x, y, z'

loop_
  _atom_site_type_symbol
  _atom_site_label
  _atom_site_symmetry_multiplicity
  _atom_site_fract_x
  _atom_site_fract_y
  _atom_site_fract_z
  _atom_site_occupancy
  Zr  Zr1       1.0  0.9526263186612949  0.10189931399784058  0.9663350942485636  1.0000
  Zr  Zr2       1.0  0.08869250041632169  0.8159094718793369  0.046039738372663015  1.0000
  Zr  Zr3       1.0  0.8563577993709753  0.9551876733374984  0.9998780764790852  1.0000
  Zr  Zr4       1.0  0.18631154476432252  0.9614482674763281  0.012825357225445103  1.0000
  Zr  Zr5       1.0  0.9804171348550808  0.0242193622834108  0.096778696548256  1.0000
  Zr  Zr6       1.0  0.0635144914159297  0.8936640449500504  0.9176600613256058  1.0000
  Zr  Zr7       1.0  0.09964187285019206  0.8005787662060373  0.4652526370421697  1.0000
  Zr  Zr8       1.0  0.9628294322990169  0.0787687789822726  0.5467511783468383  1.0000
  Zr  Zr9       1.0  0.19888939560456007  0.9381016914205134  0.5086625292299374  1.0000
  Zr  Zr10      1.0  0.8630798808367143  0.9423335746384185  0.501974326424758  1.0000
  Zr  Zr11      1.0  0.05724533968372474  0.8673251223460952  0.5963147020453833  1.0000
  Zr  Zr12      1.0  0.0010937988836730002  0.013433432511924102  0.4176476887617469  1.0000
  H   H1        1.0  0.06072974344487389  0.1257066650693091  0.0483773965680498  1.0000
  H   H2        1.0  0.9225192248824214  0.8904700492037635  0.1109805217783872  1.0000
  H   H3        1.0  0.23685079003517007  0.7954775151370017  0.9735143169000864  1.0000
  H   H4        1.0  0.8752738333112828  0.0153651746956598  0.8976885867442945  1.0000
  H   H5        1.0  0.7905056048206374  0.1201135518358427  0.12479409704651093  1.0000
  H   H6        1.0  0.75230501043373  0.945604484792547  0.9174910358775179  1.0000
  H   H7        1.0  0.9834116079040524  0.7950296023886808  0.8741996012159134  1.0000
  H   H8        1.0  0.10147316042042578  0.0286360882907033  0.16947235163880953  1.0000
  H   H9        1.0  0.24904973278463413  0.06006059692403201  0.0645123159512835  1.0000
  H   H10       1.0  0.30910409600670613  0.9572367826126751  0.9396663053259147  1.0000
  H   H11       1.0  0.2477540183700029  0.8873841092860815  0.9086231046543106  1.0000
  H   H12       1.0  0.9463612226585166  0.9810058408361897  0.19267883515777134  1.0000
  H   H13       1.0  0.17778664381151538  0.7194753931254638  0.1313740858687567  1.0000
  H   H14       1.0  0.8947297613189132  0.14875736225666006  0.8601878836245334  1.0000
  H   H15       1.0  0.002722924186905167  0.9512053835722368  0.8190077403293332  1.0000
  H   H16       1.0  0.1587595281611769  0.036946878871127416  0.11601860821191681  1.0000
  H   H17       1.0  0.07782168900615008  0.7136705096062669  0.1250899237112009  1.0000
  H   H18       1.0  0.7333840918742139  0.9544394214859224  0.0728983359581719  1.0000
  H   H19       1.0  0.7857913622017775  0.03784409072395791  0.098313971958838  1.0000
  H   H20       1.0  0.18771002920271232  0.9055919644344995  0.8522171719691516  1.0000
  H   H21       1.0  0.8906024702128333  0.8756447509560275  0.8978683954907042  1.0000
  H   H22       1.0  0.9910700893515736  0.0595377114531459  0.8588626176531379  1.0000
  H   H23       1.0  0.9793400205015103  0.7738764959999999  0.5406202772767585  1.0000
  H   H24       1.0  0.12158978594312224  0.9943272138013768  0.6176603099703827  1.0000
  H   H25       1.0  0.824065512511822  0.109557618731337  0.46703659442087553  1.0000
  H   H26       1.0  0.18825883899106072  0.8898726014088398  0.40356563149855174  1.0000
  H   H27       1.0  0.23969101562900608  0.7656647918579579  0.6354380587706246  1.0000
  H   H28       1.0  0.315931168378107  0.9540056346638225  0.432836143415564  1.0000
  H   H29       1.0  0.08969183421992709  0.1130036582944953  0.38380550984847167  1.0000
  H   H30       1.0  0.9270323427842865  0.8608288497942382  0.6620952293882993  1.0000
  H   H31       1.0  0.7826978296501818  0.8514635522817288  0.5503405730444229  1.0000
  H   H32       1.0  0.7053303273852122  0.03844394428756461  0.44627692045209955  1.0000
  H   H33       1.0  0.8821492551659913  0.011218624739129301  0.3453277026860847  1.0000
  H   H34       1.0  0.08094413325739684  0.9035452647132801  0.6938675643200016  1.0000
  H   H35       1.0  0.8673590388504662  0.17140866922294157  0.6296335142647326  1.0000
  H   H36       1.0  0.16798149194261922  0.7615022940608398  0.3606479068716624  1.0000
  H   H37       1.0  0.06919282423874754  0.9642237520893674  0.3194031161545823  1.0000
  H   H38       1.0  0.8747525203536167  0.8609050483958357  0.6054615514974699  1.0000
  H   H39       1.0  0.968396682684357  0.17683575838514543  0.6266560179522217  1.0000
  H   H40       1.0  0.3568790127525361  0.8379895672872236  0.558029960809165  1.0000
  H   H41       1.0  0.2531580648591358  0.8459816868913137  0.6086025059417751  1.0000
  H   H42       1.0  0.8149975542746828  0.0253224490975583  0.398334638010276  1.0000
  H   H43       1.0  0.17863037624259445  0.027318295937497804  0.4076460085407945  1.0000
  H   H44       1.0  0.07469911570368037  0.8529587386317914  0.35745997869774737  1.0000
  H   H45       1.0  0.58815254111245  0.7259264023654808  0.3498871227631  1.0000
  H   H46       1.0  0.6007772307953514  0.5009432757980079  0.4295602611389598  1.0000
  H   H47       1.0  0.4338510844277507  0.5813114057984735  0.4593092822822698  1.0000
  H   H48       1.0  0.4267129579618183  0.8085371487040407  0.3855399631193848  1.0000
  H   H49       1.0  0.7470993498184343  0.5062355217211589  0.4726619165314078  1.0000
  H   H50       1.0  0.8028819827119874  0.416638631067606  0.31504109271077135  1.0000
  H   H51       1.0  0.8854770955352718  0.268646379009553  0.3493899655879887  1.0000
  H   H52       1.0  0.8286713185506397  0.3571248628449837  0.5066126010339431  1.0000
  H   H53       1.0  0.9039811917888511  0.5295052751256507  0.3595712525141508  1.0000
  H   H54       1.0  0.6558293340583672  0.6978753853599429  0.44366749264283817  1.0000
  H   H55       1.0  0.7441747287278416  0.7785163115677421  0.4718930679004956  1.0000
  H   H56       1.0  0.9938545317275638  0.6096597822138179  0.3903219709615229  1.0000
  H   H57       1.0  0.6154424478186158  0.5130828806607041  0.2099510043759665  1.0000
  H   H58       1.0  0.7878419073042408  0.6525813398367858  0.20785347682591754  1.0000
  H   H59       1.0  0.7917953481884014  0.6488110431926303  0.3032181159016787  1.0000
  H   H60       1.0  0.6199306079246865  0.5087872928371481  0.3059803377160435  1.0000
  H   H61       1.0  0.9829758856771065  0.6165259132083206  0.1141983795363331  1.0000
  H   H62       1.0  0.7312363114043876  0.7841987034551747  0.029262847487451903  1.0000
  H   H63       1.0  0.6421477141821867  0.7068967222258139  0.0654599454681772  1.0000
  H   H64       1.0  0.8940094617911566  0.5386327962727292  0.15110310345555433  1.0000
  H   H65       1.0  0.5791881972329732  0.5176748737641361  0.09122585894225212  1.0000
  H   H66       1.0  0.5862695952658611  0.7363297273169066  0.16288576396370763  1.0000
  H   H67       1.0  0.42011796460663925  0.8247349389853439  0.1315295809161441  1.0000
  H   H68       1.0  0.4087904379667719  0.6036997089337885  0.06651062297828501  1.0000
  H   H69       1.0  0.8661117255961768  0.2754788948128136  0.16466868941748913  1.0000
  H   H70       1.0  0.7947506403439986  0.3743096725563008  0.007630723563366402  1.0000
  H   H71       1.0  0.7227601611872457  0.5215896991988773  0.0408527916877546  1.0000
  H   H72       1.0  0.7955618218700166  0.42171807602655065  0.1982576195704269  1.0000
  H   H73       1.0  0.3861118669474237  0.38564948180055586  0.5501261100891172  1.0000
  H   H74       1.0  0.2041288539277986  0.4538610797653462  0.6854370245804234  1.0000
  H   H75       1.0  0.12946994486522806  0.6038745724981  0.6534596873934007  1.0000
  H   H76       1.0  0.30352359659711664  0.5338694262876872  0.5158768356492871  1.0000
  H   H77       1.0  0.4056840658598446  0.1449417632302499  0.6415033589377188  1.0000
  H   H78       1.0  0.16109572885612525  0.37817604213599765  0.6011772964396728  1.0000
  H   H79       1.0  0.07475956940685079  0.29531911660393456  0.5708400057426816  1.0000
  H   H80       1.0  0.32192600232056623  0.0627390419214393  0.6065586072550958  1.0000
  H   H81       1.0  0.40369605535530434  0.24451634580095324  0.5469571334105297  1.0000
  H   H82       1.0  0.525279095333964  0.2765474733329043  0.6916567228409463  1.0000
  H   H83       1.0  0.6868471518049901  0.2011920368662956  0.6557018228420759  1.0000
  H   H84       1.0  0.5663158930913993  0.1617890146945697  0.5132004801028317  1.0000
  H   H85       1.0  0.26850131562697743  0.24849248951513664  0.8097873830624849  1.0000
  H   H86       1.0  0.410369684312009  0.4141283909203608  0.8004561933595582  1.0000
  H   H87       1.0  0.41158223394567267  0.4065844687387283  0.7048521979134535  1.0000
  H   H88       1.0  0.27741639215447106  0.23498522070790528  0.7150816415780668  1.0000
  H   H89       1.0  0.24352001899241313  0.4948545859715737  0.8140737099177925  1.0000
  H   H90       1.0  0.31236860423344126  0.39653538086341916  0.9720224383654213  1.0000
  H   H91       1.0  0.23432987117676154  0.5438456662014702  0.004880258481705397  1.0000
  H   H92       1.0  0.16838075309963327  0.6410149988975391  0.8471982628082841  1.0000
  H   H93       1.0  0.3964929288421146  0.21056402976019942  0.9481497980663605  1.0000
  H   H94       1.0  0.14677454393303435  0.3767673270990031  0.8600750260016029  1.0000
  H   H95       1.0  0.05845207594797596  0.2957160110547292  0.8943977162898024  1.0000
  H   H96       1.0  0.3089879316384411  0.1301087184198266  0.9809573191883562  1.0000
  H   H97       1.0  0.456862310714861  0.18198789187396608  0.8509497204530447  1.0000
  H   H98       1.0  0.4577091483591999  0.4015727378770535  0.9246368303995638  1.0000
  H   H99       1.0  0.6276635864545453  0.31724631551691834  0.950615611992973  1.0000
  H   H100      1.0  0.6217125349491821  0.09581599252850032  0.882766806767876  1.0000
  C   C1        1.0  0.33592591400662986  0.3421653742424979  0.8726075671137963  1.0000
  C   C2        1.0  0.3476492127872461  0.3158669783279819  0.6420589127080731  1.0000
  C   C3        1.0  0.703599280292785  0.5751520560300563  0.1409984011305525  1.0000
  C   C4        1.0  0.7143858675216633  0.5656410556613878  0.3724646055180258  1.0000
  C   C5        1.0  0.8746694084947747  0.22691207619457293  0.0649541383569741  1.0000
  C   C6        1.0  0.13412098595268415  0.14879479368417495  0.9557898628234514  1.0000
  C   C7        1.0  0.7312403432388874  0.14424835539606554  0.9422179971622882  1.0000
  C   C8        1.0  0.9074554660907027  0.7640485595906982  0.052820596655060115  1.0000
  C   C9        1.0  0.1530900502662291  0.6902948293115115  0.9474631069502096  1.0000
  C   C10       1.0  0.3090669483950207  0.7757747982756628  0.07382264904384783  1.0000
  C   C11       1.0  0.16692456154502375  0.6682202194169448  0.5641809560697482  1.0000
  C   C12       1.0  0.918958740567177  0.757503899564064  0.44747568199134957  1.0000
  C   C13       1.0  0.3255220295190995  0.754083332104983  0.44999601132293787  1.0000
  C   C14       1.0  0.14766740479512205  0.12181102981418233  0.5639470905723627  1.0000
  C   C15       1.0  0.9086955405211866  0.21388690728004178  0.44970493904017433  1.0000
  C   C16       1.0  0.7345430597387406  0.12336793239276032  0.5609646439103315  1.0000
  C   C17       1.0  0.555480548745436  0.6943417632540658  0.37504623337420645  1.0000
  C   C18       1.0  0.6086305175255118  0.6083587255477454  0.389564885495254  1.0000
  C   C19       1.0  0.5627992685841646  0.5681296664984073  0.4190121448865014  1.0000
  C   C20       1.0  0.4686563020111406  0.6134360333570541  0.4362244476877848  1.0000
  C   C21       1.0  0.4204580769915436  0.7007303088535012  0.42614494551290255  1.0000
  C   C22       1.0  0.46432080271868875  0.7406176457386806  0.3944865683530026  1.0000
  C   C23       1.0  0.7759553992654489  0.454066092512079  0.4454131146203935  1.0000
  C   C24       1.0  0.7658650661328821  0.47222977995229354  0.39125773138940906  1.0000
  C   C25       1.0  0.8073687827500889  0.40454803034511855  0.3570956632759064  1.0000
  C   C26       1.0  0.8544840461740151  0.3212080777753315  0.3761545765839216  1.0000
  C   C27       1.0  0.8616299466377196  0.30354915390729803  0.429981225222818  1.0000
  C   C28       1.0  0.8222704165761738  0.37104270985569343  0.4646609770969192  1.0000
  C   C29       1.0  0.8685041647076019  0.5844530427916511  0.3842028001543484  1.0000
  C   C30       1.0  0.7712273121784177  0.6108050208091386  0.3966415681985609  1.0000
  C   C31       1.0  0.7292588859764776  0.6781704843887795  0.4308651334205464  1.0000
  C   C32       1.0  0.7791788359033373  0.7232977367681955  0.4475604684701082  1.0000
  C   C33       1.0  0.8735996510829337  0.7008681118662141  0.43191206988859693  1.0000
  C   C34       1.0  0.9193663704431286  0.628877257938406  0.4014131188726326  1.0000
  C   C35       1.0  0.6565542305450406  0.5411284902113424  0.2302993204576609  1.0000
  C   C36       1.0  0.7067170359367694  0.5783843154640423  0.20107660407988706  1.0000
  C   C37       1.0  0.7525096500040787  0.6187830078619428  0.22864623043554394  1.0000
  C   C38       1.0  0.7547894397368323  0.6166084247560375  0.2834417670566793  1.0000
  C   C39       1.0  0.711474930301236  0.57385928879755  0.3123176514654986  1.0000
  C   C40       1.0  0.6590008693794401  0.5387644609498635  0.2845293251363259  1.0000
  C   C41       1.0  0.9076510632738173  0.6369826288749892  0.10416047001223211  1.0000
  C   C42       1.0  0.8613633646669284  0.708250380375688  0.07103444486952533  1.0000
  C   C43       1.0  0.7661622671608156  0.7307385891531055  0.05650443484415751  1.0000
  C   C44       1.0  0.7163539434791488  0.686932176671405  0.0772817550362745  1.0000
  C   C45       1.0  0.7593767781398167  0.6202588621580389  0.1139220300170933  1.0000
  C   C46       1.0  0.8573510896442469  0.5934490389647351  0.12497782684647521  1.0000
  C   C47       1.0  0.5444525304185883  0.5844272358423624  0.10131560054173151  1.0000
  C   C48       1.0  0.5961916284249112  0.6216109026732325  0.1269509427192972  1.0000
  C   C49       1.0  0.5480763171440798  0.7074011333233798  0.140764803544478  1.0000
  C   C50       1.0  0.45484631080905996  0.7567729698907757  0.12427833759947762  1.0000
  C   C51       1.0  0.4047230111703968  0.7196883331910654  0.09658705901811261  1.0000
  C   C52       1.0  0.44852819845922187  0.6327294275193794  0.08716548428552781  1.0000
  C   C53       1.0  0.8331810486266418  0.3298976966848883  0.1378427200603767  1.0000
  C   C54       1.0  0.8323095519166512  0.31561325657501277  0.08429576461531949  1.0000
  C   C55       1.0  0.7929570701820764  0.38560777788232065  0.049457511578033596  1.0000
  C   C56       1.0  0.7526893248661037  0.4677171441831477  0.0683353583495503  1.0000
  C   C57       1.0  0.7500002247417042  0.4826835164295035  0.12230556569431172  1.0000
  C   C58       1.0  0.7932063563286603  0.41241182683185673  0.1564522993058901  1.0000
  C   C59       1.0  0.32867772769354514  0.43239951282068734  0.5727177608640305  1.0000
  C   C60       1.0  0.30163255772042413  0.40846832251695286  0.6204971307541101  1.0000
  C   C61       1.0  0.22766738372874332  0.47108347025706376  0.6486303247481686  1.0000
  C   C62       1.0  0.1850779726025209  0.5551236596457515  0.6308374720234582  1.0000
  C   C63       1.0  0.212717292011085  0.5780791381353866  0.5829766634946552  1.0000
  C   C64       1.0  0.2834826653174076  0.5158405168497424  0.5535435300824787  1.0000
  C   C65       1.0  0.3332549617267659  0.17838449170825751  0.6257370764572698  1.0000
  C   C66       1.0  0.29000849989711946  0.26773327133177094  0.6231997238913749  1.0000
  C   C67       1.0  0.19634685503483948  0.3090499558411964  0.6037042104934756  1.0000
  C   C68       1.0  0.14751018068349717  0.26268288225696074  0.5863518956624958  1.0000
  C   C69       1.0  0.19327142622785232  0.17400365031176082  0.586466950479803  1.0000
  C   C70       1.0  0.2866658466333901  0.13196445681619912  0.6066537957615807  1.0000
  C   C71       1.0  0.4653875143725512  0.23631227957481124  0.5709509876456949  1.0000
  C   C72       1.0  0.4512237135928884  0.2688182814560776  0.621746655013645  1.0000
  C   C73       1.0  0.5326309821336677  0.2550940789362741  0.6515845367325355  1.0000
  C   C74       1.0  0.6246234767679083  0.21168699802294808  0.6314570296193767  1.0000
  C   C75       1.0  0.6375873913997976  0.17750775824995907  0.5816497074267346  1.0000
  C   C76       1.0  0.5566737476768039  0.18998777053403873  0.5516253679411776  1.0000
  C   C77       1.0  0.3008650920277988  0.28327671061704507  0.7874350157281427  1.0000
  C   C78       1.0  0.33561684905060213  0.33464517078804334  0.8127669420366956  1.0000
  C   C79       1.0  0.37908460320106485  0.3759930946277236  0.781840434946389  1.0000
  C   C80       1.0  0.3821228122662533  0.3698435514227256  0.7277829524160708  1.0000
  C   C81       1.0  0.3459890334104044  0.3188048876819067  0.702141137306704  1.0000
  C   C82       1.0  0.3064052873590483  0.27518331944021673  0.7330820897016892  1.0000
  C   C83       1.0  0.24361304277865506  0.5045048933721575  0.8559601667173098  1.0000
  C   C84       1.0  0.2872749237517525  0.43478202121986  0.8904116635741559  1.0000
  C   C85       1.0  0.2819978862954925  0.4501669956038798  0.944397157969931  1.0000
  C   C86       1.0  0.2380529584650475  0.5322269242611242  0.9630582385331297  1.0000
  C   C87       1.0  0.19756277323953242  0.6018163261990068  0.9280218305040366  1.0000
  C   C88       1.0  0.20016503415861558  0.5870277247555153  0.874406397108075  1.0000
  C   C89       1.0  0.32282206804408986  0.22984594207637343  0.9355095264016171  1.0000
  C   C90       1.0  0.27997354825639315  0.29680147471481183  0.8991792149868872  1.0000
  C   C91       1.0  0.18274546564939703  0.32233482604143404  0.8865956133309256  1.0000
  C   C92       1.0  0.13276746248853033  0.27740784027488274  0.9057830665851159  1.0000
  C   C93       1.0  0.1792373467857614  0.20581566584719724  0.9385940084540892  1.0000
  C   C94       1.0  0.27354612167742687  0.1844553778431219  0.9544515180076447  1.0000
  C   C95       1.0  0.4931949009549682  0.21163837482013292  0.8738985818252303  1.0000
  C   C96       1.0  0.4432108681855667  0.297185848781119  0.8878084080300968  1.0000
  C   C97       1.0  0.49345184693778055  0.33488233510674803  0.9144518076240759  1.0000
  C   C98       1.0  0.589310487756087  0.2874653945045297  0.9294197420768173  1.0000
  C   C99       1.0  0.634953586241174  0.20061557390366858  0.9197913757156542  1.0000
  C   C100      1.0  0.5862419851861345  0.16339604258141094  0.8909978058968591  1.0000
  O   O1        1.0  0.9585914592053938  0.1194196246647863  0.8752804422649803  1.0000
  O   O2        1.0  0.8856587203999234  0.21703058464657946  0.015730911878662806  1.0000
  O   O3        1.0  0.797991852561381  0.16961508596048705  0.9402437738370183  1.0000
  O   O4        1.0  0.19238893460716608  0.07751114131231421  0.9758330392071246  1.0000
  O   O5        1.0  0.7385471361387558  0.0736984754662373  0.9611509794644847  1.0000
  O   O6        1.0  0.044284217239365396  0.17291671756829882  0.9497296348575475  1.0000
  O   O7        1.0  0.8978383898213733  0.16673800515899734  0.09939739411947103  1.0000
  O   O8        1.0  0.9055961638250165  0.0439217745678135  0.0231834900122649  1.0000
  O   O9        1.0  0.0494603002634975  0.07807660163148  0.03677593052712071  1.0000
  O   O10       1.0  0.9174971919998637  0.0003514917080806993  0.927895528752309  1.0000
  O   O11       1.0  0.07634182843048616  0.9939033508045867  0.9536748922883123  1.0000
  O   O12       1.0  0.289062325305437  0.9142387667672979  0.952209613689327  1.0000
  O   O13       1.0  0.8221851309406387  0.05831948802476461  0.1249387412318299  1.0000
  O   O14       1.0  0.10222679524285642  0.924016700587849  0.0650590702341418  1.0000
  O   O15       1.0  0.951995034067494  0.9089158629797537  0.08283984623759012  1.0000
  O   O16       1.0  0.9985003956238143  0.868422646962806  0.9848463602520854  1.0000
  O   O17       1.0  0.17563912889928446  0.8413378195755499  0.9821775200208194  1.0000
  O   O18       1.0  0.7497566002044778  0.9978979661063718  0.0573770051470959  1.0000
  O   O19       1.0  0.8523595051317725  0.8338924363181519  0.030802362780775597  1.0000
  O   O20       1.0  0.9969578200423754  0.740584460654304  0.062040600428822805  1.0000
  O   O21       1.0  0.04104296324968002  0.9644003995176577  0.8442911410441738  1.0000
  O   O22       1.0  0.14892354423179197  0.6998070757698757  0.9968558110624886  1.0000
  O   O23       1.0  0.8121803670592981  0.9070061587916173  0.9339139057041879  1.0000
  O   O24       1.0  0.9543033451053731  0.8568568270390102  0.8748021213081361  1.0000
  O   O25       1.0  0.20897268996404952  0.8666947442335913  0.8825856621324277  1.0000
  O   O26       1.0  0.12318185298065032  0.7509148935282894  0.9131055238676212  1.0000
  O   O27       1.0  0.10789730857826645  0.7522366997712666  0.1312289198850607  1.0000
  O   O28       1.0  0.23777607371455636  0.010752291896814401  0.07391835157979901  1.0000
  O   O29       1.0  0.24385368298925406  0.7478941325346329  0.07369788170684903  1.0000
  O   O30       1.0  0.3003760576814186  0.8463962229928941  0.0552753051639598  1.0000
  O   O31       1.0  0.09467630996570617  0.05883757000280811  0.1359796022865396  1.0000
  O   O32       1.0  0.9972883875412175  0.9877983860370279  0.1737884509793588  1.0000
  O   O33       1.0  0.10324669813748952  0.791752899343102  0.3737759994834918  1.0000
  O   O34       1.0  0.16248552137920308  0.6822326426620577  0.5149293535161448  1.0000
  O   O35       1.0  0.2569639027169968  0.732319271988878  0.4438584617574791  1.0000
  O   O36       1.0  0.8606384763352253  0.8286366502306707  0.4651729734166281  1.0000
  O   O37       1.0  0.32104196573935434  0.8190527525883625  0.4738978043161027  1.0000
  O   O38       1.0  0.009311416946694425  0.7326920924987591  0.44281453638205204  1.0000
  O   O39       1.0  0.13527136994825628  0.7246982418131938  0.5992970810832787  1.0000
  O   O40       1.0  0.14060863986338762  0.851992334902171  0.5261292508057593  1.0000
  O   O41       1.0  0.994812219899181  0.8208014789488234  0.5311860106214112  1.0000
  O   O42       1.0  0.14420374769228048  0.9026047387901956  0.4326124900063705  1.0000
  O   O43       1.0  0.979299306325039  0.9117186589783445  0.44850266077554585  1.0000
  O   O44       1.0  0.7674198999248176  0.9941954309562533  0.4371710925856078  1.0000
  O   O45       1.0  0.21080761363747763  0.82744867154306  0.6333006169161879  1.0000
  O   O46       1.0  0.9413115141723338  0.9719061183613321  0.561136459274323  1.0000
  O   O47       1.0  0.094267597016966  0.9796468476018632  0.5874716187517707  1.0000
  O   O48       1.0  0.0594592377656937  0.029320844104390203  0.4891643369447537  1.0000
  O   O49       1.0  0.8838593027062555  0.0625484733163262  0.47745199663347654  1.0000
  O   O50       1.0  0.2981289984642499  0.883420321504005  0.5704200307738319  1.0000
  O   O51       1.0  0.20412991930435703  0.0524844951027532  0.5441942795777024  1.0000
  O   O52       1.0  0.0562705719476  0.1491762060288409  0.566872691209312  1.0000
  O   O53       1.0  0.029900872747632087  0.9496729137215425  0.3438267490121874  1.0000
  O   O54       1.0  0.9076672313586726  0.2003019590657331  0.4989160131462924  1.0000
  O   O55       1.0  0.2529674089591936  0.9888662950776635  0.4465622086429662  1.0000
  O   O56       1.0  0.11695862951326316  0.0512591236257975  0.3824709082276386  1.0000
  O   O57       1.0  0.8584773787741892  0.04718526951448611  0.375795422891656  1.0000
  O   O58       1.0  0.9455032074265971  0.15622481062549554  0.41550393678082304  1.0000
  O   O59       1.0  0.9371554193024634  0.1384694424807407  0.6311187590467427  1.0000
  O   O60       1.0  0.8007662969490636  0.895934107173261  0.5607978679649008  1.0000
  O   O61       1.0  0.804335296547819  0.14205665276610094  0.572165370724953  1.0000
  O   O62       1.0  0.7402125159401363  0.06234428498983391  0.5330028387909707  1.0000
  O   O63       1.0  0.9363154354459479  0.8336439859373926  0.6281943977298  1.0000
  O   O64       1.0  0.03067940368843148  0.8996068228810258  0.6730084561517062  1.0000
