data_image0
_chemical_formula_structural       Cd2H22C40N10O8
_chemical_formula_sum              "Cd2 H22 C40 N10 O8"
_cell_length_a       9.681243283677901
_cell_length_b       10.07056186954068
_cell_length_c       11.380204364491542
_cell_angle_alpha    109.53026740212391
_cell_angle_beta     100.09146312699455
_cell_angle_gamma    108.65007532864738

_space_group_name_H-M_alt    "P 1"
_space_group_IT_number       1

loop_
  _space_group_symop_operation_xyz
  'x, y, z'

loop_
  _atom_site_type_symbol
  _atom_site_label
  _atom_site_symmetry_multiplicity
  _atom_site_fract_x
  _atom_site_fract_y
  _atom_site_fract_z
  _atom_site_occupancy
  Cd  Cd1       1.0  0.8320587005871615  0.6968663922666422  0.6081296699829649  1.0000
  Cd  Cd2       1.0  0.16794652064673699  0.303134193883288  0.3918739767222731  1.0000
  H   H1        1.0  0.0342771738907999  0.43791195161465873  0.19225384887967317  1.0000
  H   H2        1.0  0.9657233369708819  0.5620874541000729  0.8077452658398411  1.0000
  H   H3        1.0  0.10065392838375686  0.8707932195557146  0.516111108821917  1.0000
  H   H4        1.0  0.8993455313185379  0.12920618108772428  0.4838878559409209  1.0000
  H   H5        1.0  0.2950423498265735  0.13417870448747485  0.5766932217340752  1.0000
  H   H6        1.0  0.7049560482601789  0.8658206895204754  0.4233047123711983  1.0000
  H   H7        1.0  0.3106236913443041  0.3560819037082935  0.7725206512251076  1.0000
  H   H8        1.0  0.6893747067424485  0.6439174902996496  0.22747728288016575  1.0000
  H   H9        1.0  0.8177009201615205  0.18191179779642394  0.1211106667005382  1.0000
  H   H10       1.0  0.18229689067587873  0.8180887450334848  0.878887526803531  1.0000
  H   H11       1.0  0.631961777262482  0.9051898845268692  0.03273136157736182  1.0000
  H   H12       1.0  0.3680387440553545  0.09480952275205107  0.9672686338430408  1.0000
  H   H13       1.0  0.6412292191586317  0.7108379336301949  0.8301175729322025  1.0000
  H   H14       1.0  0.35877070445370407  0.2891626209064952  0.16988180118610788  1.0000
  H   H15       1.0  0.11726924505575198  0.6905648532295386  0.3138669527688903  1.0000
  H   H16       1.0  0.8827329251269731  0.3094334118629121  0.686133813910281  1.0000
  H   H17       1.0  0.4564227572831925  0.1257382367647395  0.43448334083836215  1.0000
  H   H18       1.0  0.543575053554207  0.8742623060651695  0.5655148526657072  1.0000
  H   H19       1.0  0.5678449135280133  0.0319183426395071  0.2571051890069498  1.0000
  H   H20       1.0  0.4321522996038922  0.9680833474481646  0.7428923831950269  1.0000
  H   H21       1.0  0.4405699349696803  0.7483958442164604  0.09942914445607434  1.0000
  H   H22       1.0  0.5594295142764593  0.2516035548627826  0.9005689396058826  1.0000
  C   C1        1.0  0.1111693798665882  0.968321578457775  0.6017034115635338  1.0000
  C   C2        1.0  0.8888284309708182  0.031678964372133585  0.39829478194053536  1.0000
  C   C3        1.0  0.2203518220444138  0.11685916514110058  0.6359073435093165  1.0000
  C   C4        1.0  0.7796455248829445  0.883140223795557  0.36409044063927337  1.0000
  C   C5        1.0  0.22891530854693803  0.23845796051704576  0.7437133482358077  1.0000
  C   C6        1.0  0.7710830895398146  0.7615414334908975  0.25628458586946573  1.0000
  C   C7        1.0  0.1296626777095398  0.20925149944844176  0.8175086452612915  1.0000
  C   C8        1.0  0.870335597037908  0.7907501972747181  0.18248995759824976  1.0000
  C   C9        1.0  0.1339496222347307  0.3253481358933215  0.9339721529679748  1.0000
  C   C10       1.0  0.8660492502182108  0.674652413572069  0.06602707119365901  1.0000
  C   C11       1.0  0.0342583773637202  0.2895092883241617  0.005457213866534982  1.0000
  C   C12       1.0  0.9657389800197861  0.7104901021766848  0.9945414509829361  1.0000
  C   C13       1.0  0.816288275638385  0.09473611476492041  0.03203709704405363  1.0000
  C   C14       1.0  0.18371152463463863  0.9052667424869795  0.9679629458285177  1.0000
  C   C15       1.0  0.9215192322057103  0.13774417012078993  0.9660963970755531  1.0000
  C   C16       1.0  0.07847811472164767  0.8622552188158676  0.03390138707303684  1.0000
  C   C17       1.0  0.7140754988074106  0.9420423430954084  0.983648410068049  1.0000
  C   C18       1.0  0.2859260945821163  0.057957072383196376  0.01635349671079208  1.0000
  C   C19       1.0  0.7180798774139134  0.8328114180409328  0.8703146844310864  1.0000
  C   C20       1.0  0.2819206334477684  0.16718798767379883  0.1296844302884281  1.0000
  C   C21       1.0  0.9165713563109608  0.0195494486307553  0.8502307360451978  1.0000
  C   C22       1.0  0.08342706268809506  0.9804499485055796  0.14976895946183788  1.0000
  C   C23       1.0  0.021524973232004592  0.055614074840470096  0.7766796006900021  1.0000
  C   C24       1.0  0.9784738992209441  0.9443864746249271  0.22331962347162446  1.0000
  C   C25       1.0  0.19410152810263523  0.5363448855615188  0.10196131229689337  1.0000
  C   C26       1.0  0.8058994780375527  0.4636556787390445  0.8980408538807437  1.0000
  C   C27       1.0  0.2696406415636332  0.6979747565969914  0.19440462009920606  1.0000
  C   C28       1.0  0.7303582518016113  0.30202579599679064  0.8055963654641827  1.0000
  C   C29       1.0  0.2175561908250501  0.7621913250060216  0.298065920778022  1.0000
  C   C30       1.0  0.7824443618612449  0.23780808696547942  0.701936716745024  1.0000
  C   C31       1.0  0.4061667229827748  0.0044820222997402  0.36510013198994773  1.0000
  C   C32       1.0  0.5938310878546246  0.9955185205301685  0.6348980615141142  1.0000
  C   C33       1.0  0.4671489794066234  0.9518740313018342  0.2653827718178121  1.0000
  C   C34       1.0  0.5328493977678264  0.0481253595777247  0.7346134008857061  1.0000
  C   C35       1.0  0.3981957270452482  0.7967835916285108  0.17896060943152736  1.0000
  C   C36       1.0  0.6018041965670946  0.20321696290817926  0.8210387646867829  1.0000
  C   C37       1.0  0.5111385614690532  0.453663342864388  0.5420920483681327  1.0000
  C   C38       1.0  0.48886207273194054  0.5463337601351269  0.4579063975971279  1.0000
  C   C39       1.0  0.9736338843084482  0.5028133918610393  0.43169971641133725  1.0000
  C   C40       1.0  0.02637328474971674  0.49718145449296713  0.5683077675485605  1.0000
  N   N1        1.0  0.015024124858861225  0.9391858787060694  0.6695577458994674  1.0000
  N   N2        1.0  0.9849742941401941  0.06081351843026539  0.3304419496075751  1.0000
  N   N3        1.0  0.8163203501953902  0.8711629462933103  0.8064848595338528  1.0000
  N   N4        1.0  0.18367806880365825  0.1288364508430249  0.19351483597318253  1.0000
  N   N5        1.0  0.23165425908798207  0.4782070117657399  0.9942756657944116  1.0000
  N   N6        1.0  0.7683468599353559  0.5217912482554182  0.0057249509280765136  1.0000
  N   N7        1.0  0.07410326331179819  0.42596084775429677  0.11197284855840181  1.0000
  N   N8        1.0  0.9258972475498837  0.574038557960435  0.8880262661611197  1.0000
  N   N9        1.0  0.283314874224608  0.911465012746987  0.38137216099225657  1.0000
  N   N10       1.0  0.7166861005471218  0.08853554686099589  0.6186273630827299  1.0000
  O   O1        1.0  0.6450516348880768  0.49413026906751173  0.6158995524985613  1.0000
  O   O2        1.0  0.3549576676440793  0.5058726400828063  0.38410536278766466  1.0000
  O   O3        1.0  0.3933920270257403  0.3428808339521296  0.5312890939862455  1.0000
  O   O4        1.0  0.6066170998863569  0.6571243700924397  0.4687120865498357  1.0000
  O   O5        1.0  0.9064405115897924  0.5892958624750763  0.4236148060221864  1.0000
  O   O6        1.0  0.09355752714842676  0.41070239328155356  0.5763915257364332  1.0000
  O   O7        1.0  0.003421100152223701  0.4183990063209392  0.33643038190437113  1.0000
  O   O8        1.0  0.9965816385020574  0.5816004283067002  0.6635796011390906  1.0000
