data_image0
_chemical_formula_structural       K4H24C32O12
_chemical_formula_sum              "K4 H24 C32 O12"
_cell_length_a       6.522584317024634
_cell_length_b       6.963422082013627
_cell_length_c       16.453097183978787
_cell_angle_alpha    90.00007550492336
_cell_angle_beta     95.82138999249784
_cell_angle_gamma    89.99978158036444

_space_group_name_H-M_alt    "P 1"
_space_group_IT_number       1

loop_
  _space_group_symop_operation_xyz
  'x, y, z'

loop_
  _atom_site_type_symbol
  _atom_site_label
  _atom_site_symmetry_multiplicity
  _atom_site_fract_x
  _atom_site_fract_y
  _atom_site_fract_z
  _atom_site_occupancy
  K   K1        1.0  0.7799417994783512  0.5190101260996727  0.569541982561887  1.0000
  K   K2        1.0  0.7200611405019898  0.019010164693661107  0.4304589921558986  1.0000
  K   K3        1.0  0.22005838564985677  0.48098505629778293  0.4304582322746526  1.0000
  K   K4        1.0  0.2799452085928563  0.9809907619963101  0.5695420788730914  1.0000
  H   H1        1.0  0.3050343101693541  0.48057182426648387  0.7563107443208708  1.0000
  H   H2        1.0  0.19496312141261277  0.9805710702354774  0.243689318244904  1.0000
  H   H3        1.0  0.694964333868121  0.5194276663601657  0.2436894084122443  1.0000
  H   H4        1.0  0.8050355226248624  0.019428420391179195  0.756310834488211  1.0000
  H   H5        1.0  0.42557704873122043  0.27124775070659274  0.7203305493846555  1.0000
  H   H6        1.0  0.07442276214372609  0.7712460994461454  0.279669492424695  1.0000
  H   H7        1.0  0.5744246771201985  0.7287517399157439  0.27967033533121105  1.0000
  H   H8        1.0  0.9255758822440187  0.22875339117955928  0.7203300525342228  1.0000
  H   H9        1.0  0.4760799159438989  0.35046037460221413  0.8637045355041123  1.0000
  H   H10       1.0  0.0239257413577931  0.8504613271087251  0.1362970016274332  1.0000
  H   H11       1.0  0.5239218095486179  0.6495434242476393  0.1362969569868113  1.0000
  H   H12       1.0  0.9760790673583556  0.1495381635064561  0.8637027917485864  1.0000
  H   H13       1.0  0.6729197003504197  0.3509686041204959  0.9965381159989801  1.0000
  H   H14       1.0  0.8270880750225229  0.8509709415300794  0.0034626307672808907  1.0000
  H   H15       1.0  0.32708202514209717  0.6490351947293505  0.003463376491943396  1.0000
  H   H16       1.0  0.17291365116765425  0.14903429339339883  0.9965376461755184  1.0000
  H   H17       1.0  0.16911292307674594  0.6521057600571256  0.8964228912429916  1.0000
  H   H18       1.0  0.3308889063232597  0.15210151483250203  0.1035765577337955  1.0000
  H   H19       1.0  0.830890344904695  0.3478951666352544  0.10357623225483077  1.0000
  H   H20       1.0  0.6691081966407424  0.8478936675702189  0.8964235328941896  1.0000
  H   H21       1.0  0.9664749814845806  0.6574377249867001  0.7627172056986353  1.0000
  H   H22       1.0  0.5335212409097565  0.15743494921223095  0.23728175207516944  1.0000
  H   H23       1.0  0.033526745417631794  0.3425617656327945  0.2372818556946257  1.0000
  H   H24       1.0  0.46647432132527905  0.8425587971166454  0.7627176686740498  1.0000
  C   C1        1.0  0.30995320911804203  0.4711236713839782  0.625918355550901  1.0000
  C   C2        1.0  0.19004888354606916  0.9711219053184978  0.37408188958747957  1.0000
  C   C3        1.0  0.6900485170836389  0.5288758192374134  0.3740819213907684  1.0000
  C   C4        1.0  0.8099528430116293  0.028874713150898408  0.6259177795794244  1.0000
  C   C5        1.0  0.40885095778023833  0.42730609482282494  0.7123533614215702  1.0000
  C   C6        1.0  0.09114822818087728  0.9273044092415719  0.2876467421631617  1.0000
  C   C7        1.0  0.5911492273393364  0.5726933958011956  0.2876468534158149  1.0000
  C   C8        1.0  0.9088504162039895  0.07269651745965433  0.7123528027960333  1.0000
  C   C9        1.0  0.7080156563982244  0.5044358874632736  0.8033332060486342  1.0000
  C   C10       1.0  0.7919842615374718  0.0044320702376979  0.19666459981963408  1.0000
  C   C11       1.0  0.29198452871272446  0.4955679113873118  0.1966670087896105  1.0000
  C   C12       1.0  0.2080159253391898  0.995564548230533  0.8033325761461751  1.0000
  C   C13       1.0  0.6273985555812371  0.4178292914135753  0.8699362781701507  1.0000
  C   C14       1.0  0.8726027870279934  0.9178318625389112  0.130065462194132  1.0000
  C   C15       1.0  0.3725970059388928  0.5821716352948059  0.130064358128898  1.0000
  C   C16       1.0  0.12739739807720696  0.0821748084627174  0.8699347526446812  1.0000
  C   C17       1.0  0.7421015396631035  0.41862335731764233  0.9463348631577233  1.0000
  C   C18       1.0  0.7578998018762916  0.9186217879297164  0.053663230874853696  1.0000
  C   C19       1.0  0.2579017272617889  0.5813804415286299  0.0536660836632805  1.0000
  C   C20       1.0  0.24209730282753839  0.0813791387703446  0.9463338208832538  1.0000
  C   C21       1.0  0.9396821601477682  0.500895794549493  0.9593157225518067  1.0000
  C   C22       1.0  0.5603193102372896  0.0008951829849266  0.04068700621365199  1.0000
  C   C23       1.0  0.060316484237098685  0.49910513215173335  0.040683822407388  1.0000
  C   C24       1.0  0.4396793330967767  0.9991057437191417  0.9593143620681488  1.0000
  C   C25       1.0  0.017417934386337198  0.5852480876505342  0.8907381863715145  1.0000
  C   C26       1.0  0.4825810809172495  0.0852461954070449  0.109260504157497  1.0000
  C   C27       1.0  0.9825853328916947  0.4147542751192646  0.10926215267500078  1.0000
  C   C28       1.0  0.5174160227357802  0.9147547312958652  0.8907383709232163  1.0000
  C   C29       1.0  0.9045971791244228  0.587900266196769  0.8144224797824862  1.0000
  C   C30       1.0  0.5954024024897536  0.08789567409035473  0.1855790057700588  1.0000
  C   C31       1.0  0.095399924178345  0.41210066050708605  0.18557700307243152  1.0000
  C   C32       1.0  0.40459624049979936  0.9121023804636225  0.8144229702853778  1.0000
  O   O1        1.0  0.15856219595536197  0.3642411075844123  0.6010027035527796  1.0000
  O   O2        1.0  0.3414387839741622  0.8642388833952381  0.3989968293977739  1.0000
  O   O3        1.0  0.8414379891670904  0.6357569469640865  0.3989975112843283  1.0000
  O   O4        1.0  0.6585614018488287  0.13575917115136354  0.6010021698909327  1.0000
  O   O5        1.0  0.3806575683782468  0.607957068510409  0.5863526027384082  1.0000
  O   O6        1.0  0.11934289637035528  0.10795597507493683  0.4136473744327489  1.0000
  O   O7        1.0  0.6193426167442055  0.3920409860380901  0.4136476120986997  1.0000
  O   O8        1.0  0.8806588298341964  0.892042079470926  0.5863529025086364  1.0000
  O   O9        1.0  0.6065773729844678  0.5183342858601634  0.7263648297599942  1.0000
  O   O10       1.0  0.8934209461106872  0.018331785724939206  0.27363656615112564  1.0000
  O   O11       1.0  0.3934212707027455  0.4816652047674382  0.2736359307473179  1.0000
  O   O12       1.0  0.1065792386586182  0.9816677049000334  0.7263642564604706  1.0000
