data_image0
_chemical_formula_structural       H24Pb2C26Br4N8O2
_chemical_formula_sum              "H24 Pb2 C26 Br4 N8 O2"
_cell_length_a       8.155915429493424
_cell_length_b       8.686705914315393
_cell_length_c       11.030386991992327
_cell_angle_alpha    100.65706132398071
_cell_angle_beta     92.07385124783318
_cell_angle_gamma    95.68440896970395

_space_group_name_H-M_alt    "P 1"
_space_group_IT_number       1

loop_
  _space_group_symop_operation_xyz
  'x, y, z'

loop_
  _atom_site_type_symbol
  _atom_site_label
  _atom_site_symmetry_multiplicity
  _atom_site_fract_x
  _atom_site_fract_y
  _atom_site_fract_z
  _atom_site_occupancy
  H   H1        1.0  0.8088983998418654  0.12554702385883595  0.669127624961625  1.0000
  H   H2        1.0  0.19109527163730183  0.8744543669578136  0.33087212886067624  1.0000
  H   H3        1.0  0.2402837527942836  0.5122043284180153  0.25608556076508654  1.0000
  H   H4        1.0  0.759714086643754  0.4877900239705398  0.74391147529753  1.0000
  H   H5        1.0  0.1199293672157324  0.3837274626253375  0.42345659093253113  1.0000
  H   H6        1.0  0.8800687202294455  0.6162692461755414  0.5765407924483483  1.0000
  H   H7        1.0  0.2980105493813737  0.23568143145383397  0.538339461052395  1.0000
  H   H8        1.0  0.7019861865442536  0.7643140890080816  0.4616568074010559  1.0000
  H   H9        1.0  0.696191688899745  0.35918669132257014  0.3134879498253795  1.0000
  H   H10       1.0  0.3038036951869429  0.6408076424207679  0.6865081105136639  1.0000
  H   H11       1.0  0.8343629604006252  0.06142502142608211  0.48352882652081053  1.0000
  H   H12       1.0  0.16563414561936435  0.9385740433766686  0.5164734037881189  1.0000
  H   H13       1.0  0.8663079337411259  0.24369562704755768  0.4335436041866245  1.0000
  H   H14       1.0  0.1336927311426379  0.7563022883270634  0.5664603694550507  1.0000
  H   H15       1.0  0.7346429434274455  0.08427692842332851  0.3426234183990928  1.0000
  H   H16       1.0  0.2653578470568263  0.9157221570554838  0.6573761948366296  1.0000
  H   H17       1.0  0.9653518545810797  0.9991093963653199  0.7419657468583196  1.0000
  H   H18       1.0  0.0346495549628614  0.0008955850054662  0.2580374551120954  1.0000
  H   H19       1.0  0.12425543953466439  0.8353957549988564  0.8578673559558325  1.0000
  H   H20       1.0  0.8757501488908871  0.16461396797459577  0.1421384576429645  1.0000
  H   H21       1.0  0.9844574210376035  0.7036914322974968  0.014365225995938128  1.0000
  H   H22       1.0  0.015545093296317706  0.2963123745183652  0.9856351163315721  1.0000
  H   H23       1.0  0.5448845174914682  0.8850113880961104  0.949450380550168  1.0000
  H   H24       1.0  0.4551151688416085  0.114988868696841  0.050550278702417  1.0000
  Pb  Pb1       1.0  0.6207779673482037  0.6616254181248992  0.16291774389676314  1.0000
  Pb  Pb2       1.0  0.3792327769126871  0.3383867131348596  0.8370985297845833  1.0000
  C   C1        1.0  0.3148167207395219  0.4467876158706191  0.3086845982627651  1.0000
  C   C2        1.0  0.6851801395090575  0.5532090811770587  0.6913109370367961  1.0000
  C   C3        1.0  0.2480789301069919  0.3744224643318574  0.40125373572746537  1.0000
  C   C4        1.0  0.7519176818150655  0.625571877923896  0.5987423590668611  1.0000
  C   C5        1.0  0.3479186136938778  0.2924372026969593  0.46542417290841337  1.0000
  C   C6        1.0  0.652076646708629  0.7075559512198313  0.5345708069584845  1.0000
  C   C7        1.0  0.5130062103656599  0.2830043356813974  0.4355725611569524  1.0000
  C   C8        1.0  0.48699027787222343  0.7169888267478016  0.5644224531652284  1.0000
  C   C9        1.0  0.568840236285638  0.35932063581476115  0.340770055245585  1.0000
  C   C10       1.0  0.4311564996399894  0.6406748846471545  0.6592262132078658  1.0000
  C   C11       1.0  0.624939854659118  0.19820579765764282  0.5011622016982074  1.0000
  C   C12       1.0  0.37505577711531396  0.8017908941184049  0.4988351127721131  1.0000
  C   C13       1.0  0.774034134407849  0.1437983079066569  0.4375301918338365  1.0000
  C   C14       1.0  0.22596407576333627  0.8561995855819546  0.5624709924582376  1.0000
  C   C15       1.0  0.6231721725476189  0.036281833959947114  0.7700608786292023  1.0000
  C   C16       1.0  0.37682603826234384  0.9637160562878792  0.22993849203683686  1.0000
  C   C17       1.0  0.7396374820227295  0.9542468124416107  0.8361375984687386  1.0000
  C   C18       1.0  0.26036232831391704  0.04575462255750301  0.1638632344429709  1.0000
  C   C19       1.0  0.9052238008511964  0.9397016734147671  0.8100762414476677  1.0000
  C   C20       1.0  0.09477896117046208  0.060304491433811294  0.1899253550111197  1.0000
  C   C21       1.0  0.9951384332136541  0.8492922342654198  0.8742209506532036  1.0000
  C   C22       1.0  0.004865804011736003  0.15071629874867654  0.1257828412051509  1.0000
  C   C23       1.0  0.9183275805678262  0.7762796045618076  0.9627196081908664  1.0000
  C   C24       1.0  0.0816761606432976  0.2237242156276551  0.03728348903097611  1.0000
  C   C25       1.0  0.6735179090061223  0.878146893479233  0.927636951105022  1.0000
  C   C26       1.0  0.3264817770075723  0.1218533649341111  0.0723646149605841  1.0000
  Br  Br1       1.0  0.6986877821300864  0.3766772876595042  0.9970804225416146  1.0000
  Br  Br2       1.0  0.30132725856471154  0.6233289606928167  0.002920611656968217  1.0000
  Br  Br3       1.0  0.9494805800434492  0.6877504190781353  0.2993549822749131  1.0000
  Br  Br4       1.0  0.05052537138641361  0.3122510487606861  0.7006405820351062  1.0000
  N   N1        1.0  0.4728045264517461  0.43980082131061243  0.2799300337151323  1.0000
  N   N2        1.0  0.5271946651446342  0.5601947161761275  0.7200663036488777  1.0000
  N   N3        1.0  0.5798341640268561  0.1736156362218821  0.6085566182670235  1.0000
  N   N4        1.0  0.4201614677475689  0.8263810555541727  0.3914406962032971  1.0000
  N   N5        1.0  0.6830404522863702  0.10026878396332249  0.6743043182231999  1.0000
  N   N6        1.0  0.3169554265370209  0.899730269086227  0.3256960640044184  1.0000
  N   N7        1.0  0.7607081898985868  0.7921590914531083  0.9894777157975839  1.0000
  N   N8        1.0  0.23929284763465827  0.20784235529919937  0.01052496519545091  1.0000
  O   O1        1.0  0.4756219440174476  0.03713075463353731  0.7970439047922255  1.0000
  O   O2        1.0  0.524375162002535  0.9628683101692137  0.20295832551670406  1.0000
