data_image0
_chemical_formula_structural       Co2P4H18C6N2O14
_chemical_formula_sum              "Co2 P4 H18 C6 N2 O14"
_cell_length_a       5.459757646270467
_cell_length_b       8.580409497394498
_cell_length_c       8.462283120586902
_cell_angle_alpha    92.08256146308769
_cell_angle_beta     89.41719819961106
_cell_angle_gamma    96.09951481549022

_space_group_name_H-M_alt    "P 1"
_space_group_IT_number       1

loop_
  _space_group_symop_operation_xyz
  'x, y, z'

loop_
  _atom_site_type_symbol
  _atom_site_label
  _atom_site_symmetry_multiplicity
  _atom_site_fract_x
  _atom_site_fract_y
  _atom_site_fract_z
  _atom_site_occupancy
  Co  Co1       1.0  0.8384782482368963  0.9041592569790495  0.1337318674254675  1.0000
  Co  Co2       1.0  0.16152725780744961  0.0958407191222008  0.866268318817383  1.0000
  P   P1        1.0  0.28971601226614047  0.8746178892513897  0.3362681442692407  1.0000
  P   P2        1.0  0.7102860803401684  0.1253821691718073  0.663730622866467  1.0000
  P   P3        1.0  0.3044477975578985  0.7507372193272559  0.0010594892426568023  1.0000
  P   P4        1.0  0.6955556221908665  0.24926046173157354  0.9989392762286684  1.0000
  H   H1        1.0  0.2623987938810259  0.2573971175717062  0.19500499694323992  1.0000
  H   H2        1.0  0.7376047150852614  0.7426040305426228  0.804997478083429  1.0000
  H   H3        1.0  0.0983200009562992  0.21041048664660877  0.3577497952846187  1.0000
  H   H4        1.0  0.901673024557873  0.7895897361930153  0.6422483604481286  1.0000
  H   H5        1.0  0.3486366038719666  0.9003635647534481  0.5912712072793697  1.0000
  H   H6        1.0  0.6513673021527638  0.0996364607864635  0.4087276821369343  1.0000
  H   H7        1.0  0.0065021708786829795  0.6694333061184493  0.7750138336640262  1.0000
  H   H8        1.0  0.9934987187664533  0.3305656791689913  0.2249800510347626  1.0000
  H   H9        1.0  0.5590191392518165  0.6178803991767694  0.2850761680334061  1.0000
  H   H10       1.0  0.4409792193467866  0.3821195431313456  0.7149330477353502  1.0000
  H   H11       1.0  0.4161540991488978  0.4983801553621276  0.1357246710376785  1.0000
  H   H12       1.0  0.5838521533198391  0.5016197050789728  0.8642815102155623  1.0000
  H   H13       1.0  0.4404775662066243  0.39958055736104825  0.42463942485255757  1.0000
  H   H14       1.0  0.5595022908884388  0.6004219920395072  0.5753733902390934  1.0000
  H   H15       1.0  0.1626063893508913  0.4870883717096817  0.4559719695904008  1.0000
  H   H16       1.0  0.8373694150526063  0.5129145575546304  0.5440227381894829  1.0000
  H   H17       1.0  0.9021796442100083  0.5654866782937092  0.1521793033730034  1.0000
  H   H18       1.0  0.09782109151466047  0.4345146018086936  0.8478182289086362  1.0000
  C   C1        1.0  0.225637504307528  0.6971577720445838  0.20773794345885935  1.0000
  C   C2        1.0  0.7743641317619846  0.3028410975827001  0.7922619362503197  1.0000
  C   C3        1.0  0.3782970265223753  0.5629390578535053  0.24603958762953232  1.0000
  C   C4        1.0  0.6217021856714667  0.4370609506761057  0.7539649299553872  1.0000
  C   C5        1.0  0.2836974810145065  0.44129986573351937  0.3656168341643209  1.0000
  C   C6        1.0  0.7162913072055588  0.5587015288917243  0.6343858371635704  1.0000
  N   N1        1.0  0.1513920972988174  0.3013569376233107  0.2841763255599545  1.0000
  N   N2        1.0  0.8486041282545925  0.6986431863389982  0.7158244238259002  1.0000
  O   O1        1.0  0.0763682551653417  0.9730838535157247  0.3137951827428083  1.0000
  O   O2        1.0  0.9236354374605826  0.026916155468818193  0.6862048812194531  1.0000
  O   O3        1.0  0.2879673215958576  0.811623873045086  0.511477910780826  1.0000
  O   O4        1.0  0.7120365844288727  0.18837615249483267  0.48852097863547783  1.0000
  O   O5        1.0  0.5463024737869943  0.9561679100852557  0.2987730816583891  1.0000
  O   O6        1.0  0.45370140249855956  0.04383095976949389  0.7012245712394645  1.0000
  O   O7        1.0  0.15043794716883954  0.8897176537782202  0.9759098077366843  1.0000
  O   O8        1.0  0.849567529136344  0.11028116663786848  0.02408914198772291  1.0000
  O   O9        1.0  0.5853013241159745  0.7877565428348704  0.9874087069267574  1.0000
  O   O10       1.0  0.41470556854918794  0.21224336727235033  0.012593950688604106  1.0000
  O   O11       1.0  0.21028370007535802  0.6109007769482273  0.8936611070480254  1.0000
  O   O12       1.0  0.7897283429574955  0.3891003389652141  0.10633480982524189  1.0000
  O   O13       1.0  0.9602758537844663  0.6646465565692098  0.21519257856409976  1.0000
  O   O14       1.0  0.039724212004607254  0.33535351818190406  0.784807240836976  1.0000
