data_image0
_chemical_formula_structural       Gd2H40C42N8O18
_chemical_formula_sum              "Gd2 H40 C42 N8 O18"
_cell_length_a       9.888413572599575
_cell_length_b       11.530289003445326
_cell_length_c       13.537911874678498
_cell_angle_alpha    67.07115115482675
_cell_angle_beta     86.4645126995788
_cell_angle_gamma    76.39790207424961

_space_group_name_H-M_alt    "P 1"
_space_group_IT_number       1

loop_
  _space_group_symop_operation_xyz
  'x, y, z'

loop_
  _atom_site_type_symbol
  _atom_site_label
  _atom_site_symmetry_multiplicity
  _atom_site_fract_x
  _atom_site_fract_y
  _atom_site_fract_z
  _atom_site_occupancy
  Gd  Gd1       1.0  0.2367523453868046  0.029298731137977502  0.0026209332209887986  1.0000
  Gd  Gd2       1.0  0.7632458938261238  0.970701635963934  0.9973805938271594  1.0000
  H   H1        1.0  0.9928049863373118  0.6256484649831648  0.45111040579849515  1.0000
  H   H2        1.0  0.007190684613547685  0.37434213412495154  0.5488863898143775  1.0000
  H   H3        1.0  0.0368727161116027  0.7492571539815954  0.25974243814243897  1.0000
  H   H4        1.0  0.9631262821438185  0.2507402754570194  0.7402563523806618  1.0000
  H   H5        1.0  0.4530562637252089  0.5081846758921033  0.3132055094956882  1.0000
  H   H6        1.0  0.5469455358656888  0.491813723383288  0.6867920991860358  1.0000
  H   H7        1.0  0.293052514840447  0.3377052217910972  0.6623035362576741  1.0000
  H   H8        1.0  0.7069485210700677  0.6622921998319171  0.33769369456585  1.0000
  H   H9        1.0  0.7036836069127617  0.08698574340792929  0.7061814276496745  1.0000
  H   H10       1.0  0.2963159062748772  0.9130136382260049  0.29381816184069715  1.0000
  H   H11       1.0  0.7329578744168402  0.1958616743598469  0.5082250101688288  1.0000
  H   H12       1.0  0.2670454031039213  0.8041348140253531  0.4917753960384276  1.0000
  H   H13       1.0  0.3231941652140975  0.110995954988411  0.5434966126496122  1.0000
  H   H14       1.0  0.6768083660621755  0.8890034570255878  0.45650505688487186  1.0000
  H   H15       1.0  0.25235451465912473  0.0739065821473588  0.7328342557115661  1.0000
  H   H16       1.0  0.7476447067484672  0.9260899008173098  0.26716706009811025  1.0000
  H   H17       1.0  0.898738039581744  0.9542635237435703  0.6658500333229114  1.0000
  H   H18       1.0  0.10125800105281262  0.045741649808356  0.3341470131312789  1.0000
  H   H19       1.0  0.49321590712092694  0.3791567738660148  0.112887982881908  1.0000
  H   H20       1.0  0.5067868967383973  0.6208455578689824  0.8871141701300117  1.0000
  H   H21       1.0  0.32807356849478714  0.4896406917114859  0.0821111459510249  1.0000
  H   H22       1.0  0.6719325149993338  0.5103606818261568  0.9178911927981018  1.0000
  H   H23       1.0  0.3835755171017823  0.3853973904795467  0.009638044879380863  1.0000
  H   H24       1.0  0.616430622222218  0.614607842235799  0.9903615154616927  1.0000
  H   H25       1.0  0.23771160682316864  0.3802470701545814  0.2744647024637318  1.0000
  H   H26       1.0  0.7622879429973539  0.6197561917087953  0.7255343184153276  1.0000
  H   H27       1.0  0.41119755817410925  0.2852838203364811  0.3072748090919362  1.0000
  H   H28       1.0  0.5888034823742885  0.7147175166022065  0.6927255361148356  1.0000
  H   H29       1.0  0.26850025745621764  0.2076834898431414  0.3266673942041223  1.0000
  H   H30       1.0  0.7314990197812534  0.792316852299237  0.6733311431975011  1.0000
  H   H31       1.0  0.23309224503191936  0.13905209154349757  0.20729969700182238  1.0000
  H   H32       1.0  0.7669040315528053  0.8609521214999915  0.7926984015411093  1.0000
  H   H33       1.0  0.04069843585580198  0.2754400593227261  0.9712500505140581  1.0000
  H   H34       1.0  0.9592988595564621  0.7245641498129558  0.02874726817908882  1.0000
  H   H35       1.0  0.958008619705062  0.20822030427461868  0.9195315949457026  1.0000
  H   H36       1.0  0.041988135178989756  0.7917819807347399  0.08046787117581997  1.0000
  H   H37       1.0  0.4887163766514178  0.8937154291793872  0.9344870395112396  1.0000
  H   H38       1.0  0.5112801358834674  0.10628782335565748  0.065512111120448  1.0000
  H   H39       1.0  0.4061089889410495  0.7885294294486018  0.005692474096058167  1.0000
  H   H40       1.0  0.5938892630698832  0.2114709236188261  0.9943075797542633  1.0000
  C   C1        1.0  0.2849793921850647  0.7112274451698897  0.15771747007637762  1.0000
  C   C2        1.0  0.7150188470278637  0.2887729219320292  0.8422840569717706  1.0000
  C   C3        1.0  0.09462766698103309  0.6027435988538556  0.4183493787129891  1.0000
  C   C4        1.0  0.905370573993011  0.39725284591514753  0.5816482973530058  1.0000
  C   C5        1.0  0.11872330218956512  0.6718881599939622  0.3111336026725553  1.0000
  C   C6        1.0  0.881275198569526  0.3281112185305233  0.688866030068695  1.0000
  C   C7        1.0  0.24967430184462108  0.638186826010667  0.27147103515875415  1.0000
  C   C8        1.0  0.7503287571618601  0.36181452416415283  0.728529960145174  1.0000
  C   C9        1.0  0.3497584299893717  0.5367056868892277  0.34087569593197736  1.0000
  C   C10       1.0  0.6502451265134468  0.4632937141997218  0.6591244571538013  1.0000
  C   C11       1.0  0.31576648741953756  0.47201410875964456  0.4472389190960868  1.0000
  C   C12       1.0  0.684234784441138  0.5279823523549324  0.5527593638161862  1.0000
  C   C13       1.0  0.4193798629465205  0.36203231044750334  0.5224655294752623  1.0000
  C   C14       1.0  0.5806221853925422  0.6379651142849525  0.47753165809739073  1.0000
  C   C15       1.0  0.3921230037532484  0.30337640975999147  0.6316094142513506  1.0000
  C   C16       1.0  0.6078805655475676  0.6966229772944674  0.36838926563660823  1.0000
  C   C17       1.0  0.49445989201957735  0.2018849603247403  0.6990133735639645  1.0000
  C   C18       1.0  0.5055408695467704  0.7981134639101911  0.3009872247642846  1.0000
  C   C19       1.0  0.620431745186302  0.16318342343934938  0.655013853697902  1.0000
  C   C20       1.0  0.3795718415504012  0.8368198648962917  0.34498646737547745  1.0000
  C   C21       1.0  0.6368150905909075  0.22538429146695194  0.5451938188566814  1.0000
  C   C22       1.0  0.3631892295922867  0.7746160872743744  0.4548067120872973  1.0000
  C   C23       1.0  0.4712259448101577  0.1323502679370421  0.8163212568439562  1.0000
  C   C24       1.0  0.5287728349309901  0.8676520232911996  0.18367812277581658  1.0000
  C   C25       1.0  0.2293485842560656  0.0755537268916768  0.5735666740294574  1.0000
  C   C26       1.0  0.7706539598182047  0.9244456710878309  0.4264335223071996  1.0000
  C   C27       1.0  0.19121559848749572  0.0548094809441224  0.6790973546130202  1.0000
  C   C28       1.0  0.8087841570493098  0.9451889331641181  0.3209025503671938  1.0000
  C   C29       1.0  0.06977930660210771  0.010615087585115602  0.7140296223589147  1.0000
  C   C30       1.0  0.93022145496424  0.9893833366498159  0.2859709759693344  1.0000
  C   C31       1.0  0.9938040766544066  0.9884984988688996  0.6425708599829465  1.0000
  C   C32       1.0  0.006195964263440598  0.011502820925848298  0.35742805527687693  1.0000
  C   C33       1.0  0.040078729332094595  0.011556071542820201  0.5385008061011831  1.0000
  C   C34       1.0  0.9599200376110486  0.9884462337199197  0.4615000467164163  1.0000
  C   C35       1.0  0.01860111046985929  0.9905272833562434  0.824997139674153  1.0000
  C   C36       1.0  0.9814018624728507  0.009466320394189202  0.1750064660502346  1.0000
  C   C37       1.0  0.3851144469025627  0.39320933451082846  0.08755421246830511  1.0000
  C   C38       1.0  0.6148886121039256  0.6067920156639914  0.9124467828356302  1.0000
  C   C39       1.0  0.3093668541627039  0.2912833230195204  0.27485090428834263  1.0000
  C   C40       1.0  0.6906336778524821  0.7087160547066063  0.7251479053522445  1.0000
  C   C41       1.0  0.2772263108027602  0.20918658148678299  0.1403665128990426  1.0000
  C   C42       1.0  0.7227709718115065  0.7908176416833967  0.8596322789919313  1.0000
  N   N1        1.0  0.5394105331151734  0.3221032418159666  0.47964385150222444  1.0000
  N   N2        1.0  0.4605907387455019  0.6778932192986035  0.5203544314100554  1.0000
  N   N3        1.0  0.18975125059421324  0.5048820791202145  0.48562141260744346  1.0000
  N   N4        1.0  0.810245718166236  0.4951114287838438  0.5143743500341671  1.0000
  N   N5        1.0  0.156647060260056  0.055324629817775396  0.5038793110984727  1.0000
  N   N6        1.0  0.8433535019890076  0.9446786351550428  0.4961196665297082  1.0000
  N   N7        1.0  0.32263283862389613  0.2941053453549928  0.1661571331823524  1.0000
  N   N8        1.0  0.6773682019245015  0.705895991583688  0.8338432120244192  1.0000
  O   O1        1.0  0.3978002284793191  0.6692732094581829  0.12160420766338122  1.0000
  O   O2        1.0  0.6021972900851156  0.3307300532035526  0.8783956363163411  1.0000
  O   O3        1.0  0.19525311556085262  0.81626867323898  0.103138861587091  1.0000
  O   O4        1.0  0.8047453596022366  0.18373073335449422  0.896863717549806  1.0000
  O   O5        1.0  0.576656038920298  0.05274647356043969  0.8743092787881181  1.0000
  O   O6        1.0  0.4233422305265151  0.9472577807881637  0.1256924162476308  1.0000
  O   O7        1.0  0.3492366252825931  0.15117460100204033  0.8504581497436376  1.0000
  O   O8        1.0  0.6507616203293339  0.8488257590826292  0.1495426407055973  1.0000
  O   O9        1.0  0.051232710319496305  0.22450630214375883  0.927447004842044  1.0000
  O   O10       1.0  0.9487645228638896  0.7754940548314692  0.0725538288580695  1.0000
  O   O11       1.0  0.39634422518636814  0.8745180691207962  0.9430236688542522  1.0000
  O   O12       1.0  0.6036522745505195  0.1254851974487394  0.05697695497526211  1.0000
  O   O13       1.0  0.9012485822387571  0.9614212094758943  0.8474412763179728  1.0000
  O   O14       1.0  0.09875511135245317  0.0385694987147147  0.15256401247484064  1.0000
  O   O15       1.0  0.09385614952812922  0.005553871768462701  0.8894095055020657  1.0000
  O   O16       1.0  0.9061450839385473  0.9944426314495869  0.11059319700368068  1.0000
  O   O17       1.0  0.28137335530723107  0.20645592809858468  0.04807926989969501  1.0000
  O   O18       1.0  0.7186269645926728  0.79354830439992  0.9519193922386505  1.0000
