data_image0
_chemical_formula_structural       Al2H12C18O11
_chemical_formula_sum              "Al2 H12 C18 O11"
_cell_length_a       6.9187455940249265
_cell_length_b       11.132375203121162
_cell_length_c       11.048542301219603
_cell_angle_alpha    72.74910254153589
_cell_angle_beta     73.86936399227015
_cell_angle_gamma    72.07843325034213

_space_group_name_H-M_alt    "P 1"
_space_group_IT_number       1

loop_
  _space_group_symop_operation_xyz
  'x, y, z'

loop_
  _atom_site_type_symbol
  _atom_site_label
  _atom_site_symmetry_multiplicity
  _atom_site_fract_x
  _atom_site_fract_y
  _atom_site_fract_z
  _atom_site_occupancy
  Al  Al1       1.0  0.5016426446940089  0.4993974677444156  0.4990267123520909  1.0000
  Al  Al2       1.0  0.003455524357469951  0.4961226710917901  0.4984567872793023  1.0000
  H   H1        1.0  0.27060762789724185  0.6010620147515198  0.34413387459234474  1.0000
  H   H2        1.0  0.7780661402925942  0.3444176598184612  0.6067574874664815  1.0000
  H   H3        1.0  0.1353627200351397  0.11399475585228196  0.4947682148712362  1.0000
  H   H4        1.0  0.7511201435030159  0.1175698351045682  0.5067148475058121  1.0000
  H   H5        1.0  0.2594161675161359  0.8795436135079554  0.49293512249425236  1.0000
  H   H6        1.0  0.7798652501172469  0.4873838782125475  0.8656907453093939  1.0000
  H   H7        1.0  0.6398173515016836  0.4967829794166222  0.09846338456704731  1.0000
  H   H8        1.0  0.3321761789529488  0.6001034086044684  0.11353345037809245  1.0000
  H   H9        1.0  0.3942978440049245  0.42680212637164766  0.1624932487133749  1.0000
  H   H10       1.0  0.5359084719090461  0.41462488162257927  0.9286729236627455  1.0000
  H   H11       1.0  0.4735993605222433  0.5880423150217169  0.8802581499629982  1.0000
  H   H12       1.0  0.9369581327742086  0.7839660923988632  0.5040166312151018  1.0000
  C   C1        1.0  0.8449786121752182  0.5127121503797339  0.2697756189885112  1.0000
  C   C2        1.0  0.641840223719882  0.7268777904066964  0.49581516374075835  1.0000
  C   C3        1.0  0.1580978997751997  0.4889618854973536  0.7248386984648009  1.0000
  C   C4        1.0  0.36206950859900633  0.27016469532200205  0.5044053259844148  1.0000
  C   C5        1.0  0.5739731765551568  0.8655635301549651  0.4986018814339843  1.0000
  C   C6        1.0  0.43578703039894157  0.12962386977356027  0.5019542259001852  1.0000
  C   C7        1.0  0.7145475983572921  0.9336077366862128  0.5029003880160874  1.0000
  C   C8        1.0  0.29625123753180566  0.06267859463367385  0.49748938094029443  1.0000
  C   C9        1.0  0.6428458475328185  0.06552104619132848  0.5043701430387345  1.0000
  C   C10       1.0  0.36591554340446203  0.932396058870509  0.49596060651416024  1.0000
  C   C11       1.0  0.9218692948413574  0.5081261600234014  0.13128074671075052  1.0000
  C   C12       1.0  0.08336651581845445  0.49507354673404774  0.8630043237330727  1.0000
  C   C13       1.0  0.12529148214415622  0.509524322897093  0.06964178867374221  1.0000
  C   C14       1.0  0.8767136966102668  0.49358079433422125  0.9244138597015024  1.0000
  C   C15       1.0  0.20390151136366805  0.5030247955120757  0.9403755777537842  1.0000
  C   C16       1.0  0.7987675188092214  0.4995042260256141  0.05370391304584392  1.0000
  C   C17       1.0  0.3292763741268984  0.5110892439535776  0.09085850520908421  1.0000
  C   C18       1.0  0.4184007336448872  0.5037880172345481  0.9441715891174528  1.0000
  O   O1        1.0  0.656538362730899  0.5094850981866017  0.32179151704003334  1.0000
  O   O2        1.0  0.834431778064129  0.6699071953116303  0.5002179732343919  1.0000
  O   O3        1.0  0.026385884135379453  0.4793535534033779  0.6693058270732238  1.0000
  O   O4        1.0  0.4945360983303644  0.3247296668227904  0.5120909989971737  1.0000
  O   O5        1.0  0.34567412894960364  0.49373420745205004  0.6728810422831303  1.0000
  O   O6        1.0  0.17160338926547777  0.3238524571276357  0.49935082420370974  1.0000
  O   O7        1.0  0.9794135313922894  0.5200605893248493  0.3251461622853001  1.0000
  O   O8        1.0  0.5111610775481594  0.6721588296405657  0.48790256560653245  1.0000
  O   O9        1.0  0.24779645624114013  0.5627348584510868  0.4364839315796588  1.0000
  O   O10       1.0  0.7571264961123279  0.43400657157982886  0.5582891606509792  1.0000
  O   O11       1.0  0.916590346773269  0.8767134103826422  0.5053799928991938  1.0000
