data_image0
_chemical_formula_structural       Ag2H40C56S4N34O14
_chemical_formula_sum              "Ag2 H40 C56 S4 N34 O14"
_cell_length_a       7.292891309359228
_cell_length_b       15.111266284964541
_cell_length_c       15.111163170033338
_cell_angle_alpha    80.6099892042746
_cell_angle_beta     79.85552571300832
_cell_angle_gamma    79.85610929750843

_space_group_name_H-M_alt    "P 1"
_space_group_IT_number       1

loop_
  _space_group_symop_operation_xyz
  'x, y, z'

loop_
  _atom_site_type_symbol
  _atom_site_label
  _atom_site_symmetry_multiplicity
  _atom_site_fract_x
  _atom_site_fract_y
  _atom_site_fract_z
  _atom_site_occupancy
  Ag  Ag1       1.0  0.2499940123106583  0.7226019609852229  0.27739354538430666  1.0000
  Ag  Ag2       1.0  0.74999816192787  0.2774002697756899  0.7226009237570422  1.0000
  H   H1        1.0  0.9846123874355537  0.9635227528870445  0.7149413972806186  1.0000
  H   H2        1.0  0.5153895211697447  0.2850623123732347  0.036461570550294205  1.0000
  H   H3        1.0  0.015369977183702596  0.0364694837448525  0.285057785187135  1.0000
  H   H4        1.0  0.48459803283957115  0.7149370935024918  0.9635298359665326  1.0000
  H   H5        1.0  0.021332930392595914  0.9616564621670706  0.8753867254635211  1.0000
  H   H6        1.0  0.47865085263124735  0.12461520711526221  0.03833912184834531  1.0000
  H   H7        1.0  0.9786436601232608  0.0383513797513757  0.12460980938924848  1.0000
  H   H8        1.0  0.5213476589346372  0.8753789590177945  0.961659109138246  1.0000
  H   H9        1.0  0.9587083697360442  0.6778620992561031  0.9318003375083137  1.0000
  H   H10       1.0  0.5412867237242976  0.0682151948079692  0.3221369478060936  1.0000
  H   H11       1.0  0.04131481534100347  0.32213647541431817  0.0682090480784652  1.0000
  H   H12       1.0  0.45871763956832706  0.9317920119961371  0.6778642172950597  1.0000
  H   H13       1.0  0.9321217300671305  0.6783526917813631  0.7692375125052778  1.0000
  H   H14       1.0  0.5678754872442652  0.2307741523507545  0.3216339614526262  1.0000
  H   H15       1.0  0.06788806223190845  0.3216338613014075  0.2307765986600572  1.0000
  H   H16       1.0  0.43211745248136413  0.7692354627169921  0.6783576632552055  1.0000
  H   H17       1.0  0.15191659301989088  0.6814791850047328  0.04514430344528357  1.0000
  H   H18       1.0  0.34810059774981267  0.9548654367500402  0.3185286789423714  1.0000
  H   H19       1.0  0.8481032073991981  0.31853687694317767  0.9548585679693673  1.0000
  H   H20       1.0  0.6519286986915419  0.04513215577979679  0.6814738110873649  1.0000
  H   H21       1.0  0.21750872246942513  0.6695039523490894  0.5666583748713663  1.0000
  H   H22       1.0  0.28249392386582173  0.43333772722611025  0.33049333765846717  1.0000
  H   H23       1.0  0.7825125490275365  0.330487588153794  0.43334526275183555  1.0000
  H   H24       1.0  0.7175071000778032  0.5666576949976802  0.6695024659766133  1.0000
  H   H25       1.0  0.5400665695483724  0.668159755025748  0.4863682098054909  1.0000
  H   H26       1.0  0.9599282547532083  0.5136249665865407  0.3318410340363656  1.0000
  H   H27       1.0  0.4599545711802122  0.3318419860885271  0.5136347438892415  1.0000
  H   H28       1.0  0.04006019741076723  0.48636524457349856  0.6681594095039642  1.0000
  H   H29       1.0  0.4648421011409452  0.9615581898431034  0.45784961208431696  1.0000
  H   H30       1.0  0.0351734367772281  0.5421487317559581  0.038437641979378184  1.0000
  H   H31       1.0  0.53515895057631  0.03844040262208641  0.542157484579171  1.0000
  H   H32       1.0  0.9648218011532135  0.4578617740887481  0.9615595923555134  1.0000
  H   H33       1.0  0.1392022248130046  0.9641223766692519  0.5389634474339713  1.0000
  H   H34       1.0  0.3607962486142069  0.46104335877680575  0.03587769964644141  1.0000
  H   H35       1.0  0.8607928324993493  0.0358728540706394  0.4610441095012873  1.0000
  H   H36       1.0  0.6392098915172327  0.5389773648405409  0.9641206549989291  1.0000
  H   H37       1.0  0.8510311139444652  0.6763720163587691  0.43740001954977714  1.0000
  H   H38       1.0  0.6489593562799953  0.5625854550193309  0.3236235853327615  1.0000
  H   H39       1.0  0.14898788914017294  0.3236233946641036  0.5625977263076365  1.0000
  H   H40       1.0  0.3510297641575518  0.4374074312678787  0.6763756154673572  1.0000
  C   C1        1.0  0.9548820311125253  0.8205826829170205  0.733862274220563  1.0000
  C   C2        1.0  0.5451169487653614  0.26613972782160294  0.17940530181920164  1.0000
  C   C3        1.0  0.045124120617337775  0.179408794901164  0.2661378929081478  1.0000
  C   C4        1.0  0.4548770140660777  0.7338616576857859  0.8205852239506227  1.0000
  C   C5        1.0  0.9798865396899711  0.9008016688166837  0.7621270634861617  1.0000
  C   C6        1.0  0.5201047208469729  0.2378806012628871  0.09918477559947549  1.0000
  C   C7        1.0  0.020107323909087385  0.09919341645550622  0.2378766391441047  1.0000
  C   C8        1.0  0.47987249026728307  0.7621209148544709  0.900807002475709  1.0000
  C   C9        1.0  0.0009503399279111718  0.9001775922841304  0.851928448854963  1.0000
  C   C10       1.0  0.49905881282931813  0.14807695839539287  0.09981062166348659  1.0000
  C   C11       1.0  0.9990416240557208  0.09981948580742281  0.1480736796263855  1.0000
  C   C12       1.0  0.5009394152434011  0.8519232729523126  0.9001857683277237  1.0000
  C   C13       1.0  0.9951442404265762  0.8191427900547339  0.9115238302038052  1.0000
  C   C14       1.0  0.5048451504495474  0.08849075181701237  0.180853228087507  1.0000
  C   C15       1.0  0.0048496747657011795  0.18085650879012152  0.08848300882524997  1.0000
  C   C16       1.0  0.4951460482026633  0.911513825700105  0.8191487994282838  1.0000
  C   C17       1.0  0.9680280517457902  0.7393583300900771  0.8835938178914732  1.0000
  C   C18       1.0  0.5319671560392009  0.116413545411973  0.2606349084646027  1.0000
  C   C19       1.0  0.03197075727791087  0.26063879781523264  0.1164104279051585  1.0000
  C   C20       1.0  0.46802248999374985  0.8835916949481659  0.7393664439816447  1.0000
  C   C21       1.0  0.9506111129426454  0.739750928476319  0.7933251494713288  1.0000
  C   C22       1.0  0.5493971306217703  0.20667675961382062  0.2602397142955226  1.0000
  C   C23       1.0  0.04940277616472598  0.2602425702066569  0.20667535210619553  1.0000
  C   C24       1.0  0.45061195197676795  0.7933246885782738  0.7397542819687927  1.0000
  C   C25       1.0  0.09077969650729759  0.7485196411866041  0.06191330886795753  1.0000
  C   C26       1.0  0.40923005835868775  0.938098744654553  0.25148813762040595  1.0000
  C   C27       1.0  0.9092254719558637  0.2514986418313683  0.9380922265132838  1.0000
  C   C28       1.0  0.5907909257270773  0.06190364841856422  0.7485140366460001  1.0000
  C   C29       1.0  0.15936334977767785  0.8172724994204829  0.5591560302574266  1.0000
  C   C30       1.0  0.3406381438696612  0.4408509150978476  0.1827239891353329  1.0000
  C   C31       1.0  0.8406412592238722  0.18271857185080623  0.4408509586540603  1.0000
  C   C32       1.0  0.6593462097424804  0.5591536126055204  0.8172759210651819  1.0000
  C   C33       1.0  0.26946254512750295  0.7340803247949809  0.5440021891606293  1.0000
  C   C34       1.0  0.23052510158005649  0.4559947002959603  0.26592448247689043  1.0000
  C   C35       1.0  0.7305459029079912  0.2659184222112927  0.455992390066598  1.0000
  C   C36       1.0  0.7694453556150832  0.5439997877549559  0.7340784747944795  1.0000
  C   C37       1.0  0.45267985198628197  0.7330016464986501  0.4973711352891287  1.0000
  C   C38       1.0  0.047309065493862955  0.5026266856435058  0.2669989065152194  1.0000
  C   C39       1.0  0.547332633308592  0.2670014377796619  0.502630225924328  1.0000
  C   C40       1.0  0.9526683279819746  0.49736884343514026  0.7329966918872302  1.0000
  C   C41       1.0  0.5213906174411919  0.8151632789619753  0.4678076955857335  1.0000
  C   C42       1.0  0.9786068661440197  0.5321908958617102  0.18483470435625554  1.0000
  C   C43       1.0  0.47862473711852965  0.1848386620408107  0.5321996342078918  1.0000
  C   C44       1.0  0.021389821219244636  0.467810519994643  0.815156932250602  1.0000
  C   C45       1.0  0.40977375297529034  0.8984035327384136  0.4826088030805096  1.0000
  C   C46       1.0  0.09022596386435566  0.51738687540211  0.10159410995864698  1.0000
  C   C47       1.0  0.5902194503419481  0.10159418642783181  0.5173924416137368  1.0000
  C   C48       1.0  0.9097773068465498  0.48262010775837183  0.8984012215056295  1.0000
  C   C49       1.0  0.22723489709256461  0.8995942585183841  0.5284439432839605  1.0000
  C   C50       1.0  0.2727617513626582  0.4715567889643851  0.10040362544187788  1.0000
  C   C51       1.0  0.7727606757685734  0.10039951195193453  0.47156121384417554  1.0000
  C   C52       1.0  0.7272411604422826  0.5284510025068059  0.899594885257848  1.0000
  C   C53       1.0  0.8543397486104564  0.747940830932848  0.40986387133985147  1.0000
  C   C54       1.0  0.6456613391775502  0.5901334643413139  0.2520536650600462  1.0000
  C   C55       1.0  0.14567434873296037  0.25205622936394434  0.590140546064795  1.0000
  C   C56       1.0  0.35432768812017895  0.40986480914305196  0.7479438143957252  1.0000
  S   S1        1.0  0.9268022011805498  0.8210344024756183  0.6192330116787089  1.0000
  S   S2        1.0  0.5732014321978339  0.3807699742427815  0.17895616709493817  1.0000
  S   S3        1.0  0.07320835455072935  0.1789510295927101  0.3807700029236329  1.0000
  S   S4        1.0  0.4267840616351961  0.619236863766744  0.8210332634832226  1.0000
  N   N1        1.0  0.018350826435494003  0.8176177345537853  0.0028988292383828693  1.0000
  N   N2        1.0  0.4816470280518034  0.9971125294622069  0.18238295886310846  1.0000
  N   N3        1.0  0.9816489523933215  0.18239512662776042  0.9971068655904318  1.0000
  N   N4        1.0  0.5183587351352941  0.0028898791021419014  0.8176177242406908  1.0000
  N   N5        1.0  0.9641110344635562  0.8924155886538971  0.04616984934249762  1.0000
  N   N6        1.0  0.5358947165316437  0.9538295400736629  0.10758812904008154  1.0000
  N   N7        1.0  0.03589063017169989  0.10760113645378057  0.9538303004214868  1.0000
  N   N8        1.0  0.46411609712970386  0.046170045592283805  0.8924107402596206  1.0000
  N   N9        1.0  0.0013443743907117754  0.8680182448241496  0.1280554015230848  1.0000
  N   N10       1.0  0.4986671499543005  0.8719451956807659  0.13199673404582063  1.0000
  N   N11       1.0  0.998661664609159  0.1320025569691268  0.8719449324541699  1.0000
  N   N12       1.0  0.5013547184771525  0.1280538594221667  0.86800735803034  1.0000
  N   N13       1.0  0.08056591047657236  0.7786228417640898  0.14024931889280623  1.0000
  N   N14       1.0  0.41944466357511334  0.8597576826582767  0.22139252916571914  1.0000
  N   N15       1.0  0.9194427519235475  0.22139806855408042  0.8597541052533656  1.0000
  N   N16       1.0  0.5805823743448498  0.14024271100164043  0.7786115659505484  1.0000
  N   N17       1.0  0.7080896175257791  0.8161076640145241  0.4208140009492353  1.0000
  N   N18       1.0  0.7919095734826199  0.5791789478305772  0.1838840468857796  1.0000
  N   N19       1.0  0.29192225892480633  0.18388738399810484  0.5791909841260646  1.0000
  N   N20       1.0  0.20808276131676706  0.4208178436158931  0.8161108240453174  1.0000
  N   N21       1.0  0.7678681691979107  0.8958867626165414  0.38037176798953715  1.0000
  N   N22       1.0  0.7321374295994046  0.6196257916063744  0.10410327619579358  1.0000
  N   N23       1.0  0.2321338342860813  0.10410843976116978  0.6196359269291135  1.0000
  N   N24       1.0  0.26785931327511037  0.3803750504670589  0.8958911191712816  1.0000
  N   N25       1.0  0.9427223731345716  0.876262935237776  0.346223645048113  1.0000
  N   N26       1.0  0.5572874308396293  0.6537777720481728  0.12372775936751877  1.0000
  N   N27       1.0  0.05728245209476767  0.12373700666854863  0.6537835590142578  1.0000
  N   N28       1.0  0.4427072596946715  0.3462209274478809  0.876263904783741  1.0000
  N   N29       1.0  0.000817123238093056  0.7847358874801031  0.3632011359566151  1.0000
  N   N30       1.0  0.49918539207184404  0.6367993367257156  0.21525400240088294  1.0000
  N   N31       1.0  0.9991910094928966  0.2152625723883332  0.6368034595810884  1.0000
  N   N32       1.0  0.5008035618319441  0.3631952709102606  0.7847369221185829  1.0000
  N   N33       1.0  0.24999012349691435  0.5094350703054289  0.4905635306085045  1.0000
  N   N34       1.0  0.7499921816930524  0.4905625274649736  0.5094332707376168  1.0000
  O   O1        1.0  0.8568433381790114  0.7385713418046085  0.6131500022069004  1.0000
  O   O2        1.0  0.6431572022002142  0.3868543499043611  0.2614200604295149  1.0000
  O   O3        1.0  0.14317953140183445  0.261405147729846  0.3868525177928248  1.0000
  O   O4        1.0  0.3568293207115333  0.6131479765104899  0.7385761457015433  1.0000
  O   O5        1.0  0.8215362851244804  0.9090656227132854  0.5896737621083332  1.0000
  O   O6        1.0  0.678459618375143  0.4103298277751294  0.09091990038511712  1.0000
  O   O7        1.0  0.1784584686014696  0.0909080445562722  0.4103228509250556  1.0000
  O   O8        1.0  0.3215212731113723  0.5896784249805264  0.9090702637446171  1.0000
  O   O9        1.0  0.24997310115449523  0.5738675826634462  0.4261346115260595  1.0000
  O   O10       1.0  0.7499902275074178  0.42613292078836196  0.5738643874346536  1.0000
  O   O11       1.0  0.20890433806054173  0.4336272748517658  0.48023188301592507  1.0000
  O   O12       1.0  0.2910884375472592  0.5197694391035483  0.5663703048940717  1.0000
  O   O13       1.0  0.791079710102025  0.5663689820581298  0.5197657130507736  1.0000
  O   O14       1.0  0.7089031913499966  0.4802294906299807  0.43362684619310693  1.0000
