data_image0
_chemical_formula_structural       Cu2H18C22N6O6F6
_chemical_formula_sum              "Cu2 H18 C22 N6 O6 F6"
_cell_length_a       8.734415389579071
_cell_length_b       9.10625448735178
_cell_length_c       9.134487208638497
_cell_angle_alpha    68.12413431393101
_cell_angle_beta     85.7493224576948
_cell_angle_gamma    70.07465904150234

_space_group_name_H-M_alt    "P 1"
_space_group_IT_number       1

loop_
  _space_group_symop_operation_xyz
  'x, y, z'

loop_
  _atom_site_type_symbol
  _atom_site_label
  _atom_site_symmetry_multiplicity
  _atom_site_fract_x
  _atom_site_fract_y
  _atom_site_fract_z
  _atom_site_occupancy
  Cu  Cu1       1.0  0.1695589251952256  0.49320666219372106  0.3909447853153551  1.0000
  Cu  Cu2       1.0  0.8304385145957552  0.5067950265132667  0.6090525773484502  1.0000
  H   H1        1.0  0.5101690286840963  0.8888117309205159  0.17195736453826532  1.0000
  H   H2        1.0  0.4898342370574085  0.11118617193978511  0.8280409547745152  1.0000
  H   H3        1.0  0.7647622559507569  0.9626799276460578  0.1447672208041054  1.0000
  H   H4        1.0  0.235238380321924  0.0373191633362424  0.8552429008672036  1.0000
  H   H5        1.0  0.7859694914039538  0.17831207808700367  0.23586650424569913  1.0000
  H   H6        1.0  0.21403238145271786  0.8216832333936496  0.7641460103723219  1.0000
  H   H7        1.0  0.5469867597858951  0.3429875564697229  0.3472205635447096  1.0000
  H   H8        1.0  0.45300925139297016  0.6570115754196454  0.6527855104896146  1.0000
  H   H9        1.0  0.3330592339695855  0.751935370810195  0.37677999890511416  1.0000
  H   H10       1.0  0.6669377960085541  0.24806757542653915  0.6232169317054357  1.0000
  H   H11       1.0  0.1502334550236953  0.8086125535654746  0.48039769541902194  1.0000
  H   H12       1.0  0.8497668017284851  0.19138407405853297  0.5196056977278829  1.0000
  H   H13       1.0  0.9849365909111608  0.7893047651127321  0.2788619164025619  1.0000
  H   H14       1.0  0.015065869495565215  0.21069563898225147  0.7211377323775991  1.0000
  H   H15       1.0  0.32709649502939453  0.6379085221471714  0.16598159469736368  1.0000
  H   H16       1.0  0.6729037402864152  0.3620881262140544  0.8340185080887109  1.0000
  H   H17       1.0  0.1272640152342532  0.6516927603579961  0.0936744724558594  1.0000
  H   H18       1.0  0.8727334317021871  0.34830892143658343  0.9063239869948916  1.0000
  C   C1        1.0  0.25946421788404445  0.4364056904982833  0.6940514333264645  1.0000
  C   C2        1.0  0.7405335156819675  0.5635985445158697  0.3059394964184109  1.0000
  C   C3        1.0  0.2325683264910906  0.41570532832800944  0.8700017775111418  1.0000
  C   C4        1.0  0.7674343991088436  0.5842976497237659  0.12998705120230614  1.0000
  C   C5        1.0  0.3912921970855264  0.07322497054990865  0.2785616570106058  1.0000
  C   C6        1.0  0.6087076284174415  0.9267729353410705  0.7214380137222135  1.0000
  C   C7        1.0  0.520768954293672  0.983752744499228  0.21178637715581755  1.0000
  C   C8        1.0  0.47923279537972974  0.016246377730745103  0.7882181757030793  1.0000
  C   C9        1.0  0.6607929518850426  0.0262160172356758  0.1983233633837074  1.0000
  C   C10       1.0  0.3392072245566027  0.9737843796632151  0.8016786487257334  1.0000
  C   C11       1.0  0.6719918580308574  0.15170547838345533  0.2492870473665079  1.0000
  C   C12       1.0  0.32801075414096903  0.8482910873125821  0.7507249503205599  1.0000
  C   C13       1.0  0.5417481008737326  0.24236419835363426  0.3123937078370815  1.0000
  C   C14       1.0  0.45825028172620813  0.7576311645445348  0.6876124806923652  1.0000
  C   C15       1.0  0.399108487582474  0.2013367452668434  0.3257232356880309  1.0000
  C   C16       1.0  0.600888234329723  0.7986636684875351  0.6742779342675576  1.0000
  C   C17       1.0  0.1998145863402599  0.8116766737060958  0.36564282150561683  1.0000
  C   C18       1.0  0.8001855901013856  0.1883237231928021  0.6343591906038313  1.0000
  C   C19       1.0  0.11812470490157524  0.7416198040432962  0.2837588516316743  1.0000
  C   C20       1.0  0.8818801483625976  0.2583768103232772  0.7162442020044395  1.0000
  C   C21       1.0  0.1967636093680056  0.6613035393811375  0.1818579310275367  1.0000
  C   C22       1.0  0.8032373581175065  0.3386943701078878  0.8181405580406391  1.0000
  N   N1        1.0  0.23482383917151856  0.0747247531089528  0.3071848646692814  1.0000
  N   N2        1.0  0.7651736149103741  0.9252769217732252  0.6928146915684154  1.0000
  N   N3        1.0  0.14875987620630582  0.19322681935175728  0.3632098488314028  1.0000
  N   N4        1.0  0.8512371537718337  0.8067761268849767  0.6367870817791469  1.0000
  N   N5        1.0  0.24722401358196322  0.27173140075003493  0.3739643723698549  1.0000
  N   N6        1.0  0.7527726940393223  0.7282690268291604  0.6260346040118492  1.0000
  O   O1        1.0  0.13188288811404897  0.45511341108584  0.618759247138499  1.0000
  O   O2        1.0  0.8681172740366848  0.5448869996378677  0.3812405713970577  1.0000
  O   O3        1.0  0.39616428111872193  0.4333735111728033  0.6443438653054372  1.0000
  O   O4        1.0  0.6038381006879873  0.5666269689586585  0.3556437188183281  1.0000
  O   O5        1.0  0.15644134522639758  0.9924454100450153  0.2593149247125269  1.0000
  O   O6        1.0  0.8435565258137957  0.007555000395001303  0.7406861603653638  1.0000
  F   F1        1.0  0.1168088227097996  0.5548207557946939  0.8827080019264885  1.0000
  F   F2        1.0  0.8831878563296557  0.44517969943412095  0.11728658730743288  1.0000
  F   F3        1.0  0.18136590467852892  0.2815134807749546  0.949287074152572  1.0000
  F   F4        1.0  0.8186418558280621  0.7184881988400138  0.050706234251116145  1.0000
  F   F5        1.0  0.3710057353728546  0.3896473494795743  0.9488965409882155  1.0000
  F   F6        1.0  0.6289958982627298  0.6103555765873099  0.05110114689848899  1.0000
