data_image0
_chemical_formula_structural       Cu4H48C80I4N8
_chemical_formula_sum              "Cu4 H48 C80 I4 N8"
_cell_length_a       10.970767640470624
_cell_length_b       12.17180538
_cell_length_c       13.2421
_cell_angle_alpha    90.0
_cell_angle_beta     106.41371130979479
_cell_angle_gamma    90.0

_space_group_name_H-M_alt    "P 1"
_space_group_IT_number       1

loop_
  _space_group_symop_operation_xyz
  'x, y, z'

loop_
  _atom_site_type_symbol
  _atom_site_label
  _atom_site_symmetry_multiplicity
  _atom_site_fract_x
  _atom_site_fract_y
  _atom_site_fract_z
  _atom_site_occupancy
  Cu  Cu1       1.0  0.87334083457511  0.0165283615469676  0.9931970705054598  1.0000
  Cu  Cu2       1.0  0.6266597614147429  0.5165256758319927  0.5068024271256562  1.0000
  Cu  Cu3       1.0  0.1266592460051541  0.983475304301983  0.006800003206450399  1.0000
  Cu  Cu4       1.0  0.3733365182098396  0.4834722390212889  0.4931967774384276  1.0000
  H   H1        1.0  0.9408144495038968  0.19372721846789895  0.15395779752195443  1.0000
  H   H2        1.0  0.5591889972027104  0.6937286406069703  0.34604387780618856  1.0000
  H   H3        1.0  0.059189432032042105  0.80627069638539  0.8460439418428649  1.0000
  H   H4        1.0  0.4408101331386263  0.3062733821003647  0.6539575044549224  1.0000
  H   H5        1.0  0.8477062392544498  0.2784344552180116  0.2879231499172974  1.0000
  H   H6        1.0  0.652298157691078  0.7784391636403214  0.21208176853397023  1.0000
  H   H7        1.0  0.1523004929982434  0.7215601733520317  0.7120815223117847  1.0000
  H   H8        1.0  0.3477019228891862  0.2215636806378214  0.7879205913485663  1.0000
  H   H9        1.0  0.6475697688296123  0.1977635958553279  0.3140023019262017  1.0000
  H   H10       1.0  0.8524346281159083  0.6977699474192534  0.18600110619059507  1.0000
  H   H11       1.0  0.3524360131841604  0.8022302111439146  0.6860013926814617  1.0000
  H   H12       1.0  0.1475654524643488  0.30223207528808166  0.8140012536919343  1.0000
  H   H13       1.0  0.5540301501108971  0.031051268747774  0.20661187424781247  1.0000
  H   H14       1.0  0.9459732965957103  0.531055155599276  0.2933875355786384  1.0000
  H   H15       1.0  0.44597373142503477  0.9689450029638922  0.7933875996153148  1.0000
  H   H16       1.0  0.0540248835067132  0.46894604553725133  0.7066121138938186  1.0000
  H   H17       1.0  0.6721572008614203  0.7294037098710149  0.8759057428936218  1.0000
  H   H18       1.0  0.8278471960841074  0.22940228773194354  0.6240984203904105  1.0000
  H   H19       1.0  0.3278447801966777  0.27059913440712796  0.1240978170645235  1.0000
  H   H20       1.0  0.1721557352129111  0.7705956271213381  0.3759030965202257  1.0000
  H   H21       1.0  0.5603986513467305  0.5627784692692828  0.7851048993397216  1.0000
  H   H22       1.0  0.9396057455987972  0.0627770471302114  0.7148962432753834  1.0000
  H   H23       1.0  0.4396042799502879  0.4372227318672444  0.2148973727381431  1.0000
  H   H24       1.0  0.0603971856982213  0.9372192245814546  0.2851030081335608  1.0000
  H   H25       1.0  0.3744663522846565  0.48811986509104344  0.8349169358240616  1.0000
  H   H26       1.0  0.1255398645584478  0.9881204656592999  0.6650830469841155  1.0000
  H   H27       1.0  0.6255403799680366  0.5118788713330531  0.1650862260705566  1.0000
  H   H28       1.0  0.8744649672164045  0.0118790923356045  0.3349158941659666  1.0000
  H   H29       1.0  0.2922754369767944  0.5837194876344611  0.9673397718195956  1.0000
  H   H30       1.0  0.2077250784327944  0.08371970863701252  0.5326573659289906  1.0000
  H   H31       1.0  0.7077246436034699  0.4162800703604432  0.032659567394013246  1.0000
  H   H32       1.0  0.7922750021474628  0.916279849357892  0.4673389526156839  1.0000
  H   H33       1.0  0.43788244702886914  0.8318100465717464  0.33995248346719364  1.0000
  H   H34       1.0  0.062107615752609  0.3318176617115753  0.1600422072853291  1.0000
  H   H35       1.0  0.5621081311621978  0.1681845819983039  0.6600423657028358  1.0000
  H   H36       1.0  0.9378858131552192  0.668188468849806  0.8399555747489631  1.0000
  H   H37       1.0  0.4022351842176164  0.9796147430677993  0.4578161710010847  1.0000
  H   H38       1.0  0.0977615302362906  0.47962153663682733  0.0421823424324401  1.0000
  H   H39       1.0  0.5977610954069661  0.0203798855022441  0.5421837887302274  1.0000
  H   H40       1.0  0.9022366498661256  0.5203837723537461  0.9578180622072524  1.0000
  H   H41       1.0  0.2738379512294244  0.14660109526003853  0.37523681284752547  1.0000
  H   H42       1.0  0.226166365135839  0.6466041605407256  0.12476499055397032  1.0000
  H   H43       1.0  0.7261659303065073  0.8533968195932504  0.6247656816845293  1.0000
  H   H44       1.0  0.7738375164000999  0.3533986837374173  0.8752375039780845  1.0000
  H   H45       1.0  0.1684241469775927  0.1443614932331414  0.18132081713154238  1.0000
  H   H46       1.0  0.3315763684319961  0.6443604506597822  0.3186808516204351  1.0000
  H   H47       1.0  0.8315768838415849  0.8556421726158094  0.8186817652051773  1.0000
  H   H48       1.0  0.6684256126261019  0.3556391073351222  0.6813219531704747  1.0000
  C   C1        1.0  0.8561196546441963  0.1596665358446572  0.1697841662507997  1.0000
  C   C2        1.0  0.643883792062411  0.6596679579837286  0.3302159987428794  1.0000
  C   C3        1.0  0.1438842268917426  0.8403322005794324  0.8302153076123275  1.0000
  C   C4        1.0  0.3561153382789257  0.34033242158198374  0.6697838731837678  1.0000
  C   C5        1.0  0.8031466856209307  0.2068846749831934  0.24324552688057827  1.0000
  C   C6        1.0  0.6968558108467633  0.7068877402638876  0.256756681160617  1.0000
  C   C7        1.0  0.1968571959150083  0.7931115967284726  0.7567562124842484  1.0000
  C   C8        1.0  0.3031423692556601  0.29311263930183173  0.7432444786463108  1.0000
  C   C9        1.0  0.6924695079961793  0.16142716208957353  0.258051971866081  1.0000
  C   C10       1.0  0.8075348889493483  0.6614318705118833  0.2419491707490238  1.0000
  C   C11       1.0  0.30753532377868  0.8385682880512846  0.7419492347857002  1.0000
  C   C12       1.0  0.19246519163090883  0.3385701521954516  0.758051678799049  1.0000
  C   C13       1.0  0.6405646075179874  0.0696199104031336  0.19904348518456058  1.0000
  C   C14       1.0  0.8594378889497065  0.5696229756838278  0.3009572125221639  1.0000
  C   C15       1.0  0.3594392740179515  0.9303771828793403  0.800956743845795  1.0000
  C   C16       1.0  0.1405593409137964  0.43037740388189155  0.6990444799978022  1.0000
  C   C17       1.0  0.6998775706095088  0.0256321876878403  0.12657321469544056  1.0000
  C   C18       1.0  0.8001239756192575  0.5256336098269117  0.37342575022263697  1.0000
  C   C19       1.0  0.3001244104485892  0.9743665487362563  0.8734250590920782  1.0000
  C   C20       1.0  0.1998732542442454  0.4743659481679927  0.6265751871301006  1.0000
  C   C21       1.0  0.6490245846147644  0.9319217360013355  0.0666110240688411  1.0000
  C   C22       1.0  0.8509798123307634  0.4319219570038869  0.43338860821179276  1.0000
  C   C23       1.0  0.3509802471600949  0.06807946513518462  0.9333886722484694  1.0000
  C   C24       1.0  0.1490164672938192  0.5680825304158788  0.5666113515195192  1.0000
  C   C25       1.0  0.6022234173710714  0.8488937899859863  0.02001534805975779  1.0000
  C   C26       1.0  0.8977781288576949  0.34889483255934556  0.4799836168583199  1.0000
  C   C27       1.0  0.3977766632091857  0.1511049464381102  0.9799839911538513  1.0000
  C   C28       1.0  0.1022248024393235  0.6511014391523275  0.5200216758884721  1.0000
  C   C29       1.0  0.5438939515608183  0.7522318763857855  0.9706876304824377  1.0000
  C   C30       1.0  0.9561056941901073  0.252230454246714  0.5293101343600242  1.0000
  C   C31       1.0  0.45610422854159793  0.24776932475073477  0.029312018990019294  1.0000
  C   C32       1.0  0.04389438639015  0.7477691037481905  0.4706892048535778  1.0000
  C   C33       1.0  0.588863058168478  0.6969344099059214  0.8950806780228575  1.0000
  C   C34       1.0  0.9111394382992088  0.19693298776685  0.6049192645166386  1.0000
  C   C35       1.0  0.4111379726506996  0.30306679123060587  0.10491963881217  1.0000
  C   C36       1.0  0.0888615925199687  0.8030649270864387  0.3950795419839253  1.0000
  C   C37       1.0  0.5269796988007798  0.6034010379485722  0.8455349327414865  1.0000
  C   C38       1.0  0.9730227976669069  0.10339879423869291  0.6544634994635389  1.0000
  C   C39       1.0  0.4730213320184049  0.3966009847587628  0.15446538409353391  1.0000
  C   C40       1.0  0.026979183391191  0.896598299043788  0.3455340191567444  1.0000
  C   C41       1.0  0.4211677444418385  0.5623989035552555  0.8722981137653676  1.0000
  C   C42       1.0  0.0788346714455912  0.062397481416184106  0.6276994688915991  1.0000
  C   C43       1.0  0.5788342366162595  0.4376014760104567  0.1277016703566147  1.0000
  C   C44       1.0  0.9211663593735936  0.9375996118662897  0.372297827274501  1.0000
  C   C45       1.0  0.3751980362523639  0.6155487839389053  0.9471474910732525  1.0000
  C   C46       1.0  0.1248015289183044  0.1155473617998339  0.5528486690539154  1.0000
  C   C47       1.0  0.6248010940889728  0.3844524171976218  0.05285162568616642  1.0000
  C   C48       1.0  0.8751985516619527  0.8844513746242628  0.4471484046579945  1.0000
  C   C49       1.0  0.4344511342919901  0.7112313851340917  0.996930066966641  1.0000
  C   C50       1.0  0.0655465304008445  0.2112299629950201  0.5030671585866102  1.0000
  C   C51       1.0  0.5655460955715128  0.2887706375732435  0.0030686048843974957  1.0000
  C   C52       1.0  0.9344516497015789  0.7887695949998844  0.49693173571861854  1.0000
  C   C53       1.0  0.3877031804277706  0.7716234122041145  0.069517523738142  1.0000
  C   C54       1.0  0.1122954345039844  0.2716228116358508  0.4304799242692994  1.0000
  C   C55       1.0  0.6122949996746527  0.22837861050322064  0.9304806153998515  1.0000
  C   C56       1.0  0.8877055963151931  0.7283792110714771  0.5695181270640362  1.0000
  C   C57       1.0  0.3521518917473472  0.8333932135217879  0.1281132342760216  1.0000
  C   C58       1.0  0.1478438724676465  0.3333934345243392  0.37188505670332017  1.0000
  C   C59       1.0  0.6478462883550762  0.16660963075635493  0.8718856600292071  1.0000
  C   C60       1.0  0.8521533573958564  0.6666053018997574  0.6281151254821893  1.0000
  C   C61       1.0  0.3237150418542569  0.9111368160899715  0.19814405779778346  1.0000
  C   C62       1.0  0.1762778716439826  0.4111386802341386  0.3018520554845239  1.0000
  C   C63       1.0  0.6762802875314122  0.0888635634757406  0.8018534139776464  1.0000
  C   C64       1.0  0.8237193582195202  0.5888633424731965  0.6981458611992863  1.0000
  C   C65       1.0  0.3800233494835723  0.9030016219335908  0.30720809870710747  1.0000
  C   C66       1.0  0.1199686137757467  0.40300595079018825  0.1927885472882451  1.0000
  C   C67       1.0  0.619970079424256  0.0969962929196981  0.6927896833271774  1.0000
  C   C68       1.0  0.8800267156099225  0.5969977150587695  0.8072104348216486  1.0000
  C   C69       1.0  0.3608152199728138  0.9862842548999069  0.3729079797792921  1.0000
  C   C70       1.0  0.1391805442421798  0.4862885837565046  0.1270903112000497  1.0000
  C   C71       1.0  0.6391820098906891  0.0137128383825669  0.6270914472389819  1.0000
  C   C72       1.0  0.8608176358602435  0.5137150820924461  0.8729100934396428  1.0000
  C   C73       1.0  0.2878929350818851  0.0771003126242888  0.3280804513261089  1.0000
  C   C74       1.0  0.21210567984986278  0.5771025563341681  0.1719185070157963  1.0000
  C   C75       1.0  0.7121071454983721  0.9228992453706155  0.6719203982219568  1.0000
  C   C76       1.0  0.7878944007303943  0.4229002879439748  0.8280815873650412  1.0000
  C   C77       1.0  0.2304262862101822  0.0773246014553024  0.21994293399109927  1.0000
  C   C78       1.0  0.2695723287215728  0.577325202023566  0.2800560243508059  1.0000
  C   C79       1.0  0.7695737943700819  0.9226765996812248  0.7800571603897383  1.0000
  C   C80       1.0  0.7304287020976119  0.4226751775421534  0.7199442924842216  1.0000
  I   I1        1.0  0.976800947609263  0.8184956700318226  0.03957555451239611  1.0000
  I   I2        1.0  0.5231939469470674  0.318494247892751  0.46042336356082814  1.0000
  I   I3        1.0  0.0231943817763991  0.18150635267551254  0.9604226724302691  1.0000
  I   I4        1.0  0.47680233267751504  0.6815036669605377  0.539576596170491  1.0000
  N   N1        1.0  0.8071082316746683  0.0712080067780363  0.11134732915959937  1.0000
  N   N2        1.0  0.6928933145540981  0.571207785775492  0.3886523909257066  1.0000
  N   N3        1.0  0.1928937493834297  0.928792372787676  0.8886516997951475  1.0000
  N   N4        1.0  0.3071029650704844  0.4287917722194123  0.6113475688056128  1.0000
  N   N5        1.0  0.24448507101831754  0.9960576612505747  0.1551399592468954  1.0000
  N   N6        1.0  0.2555125936745171  0.4960587038239339  0.34485877664082654  1.0000
  N   N7        1.0  0.7555150095619396  0.003944361456753101  0.8448593799667138  1.0000
  N   N8        1.0  0.7444874869057472  0.5039416757417783  0.6551413177400107  1.0000
