data_image0
_chemical_formula_structural       Ag4H32C36N24
_chemical_formula_sum              "Ag4 H32 C36 N24"
_cell_length_a       5.339645825310716
_cell_length_b       12.291748754816604
_cell_length_c       14.816519955845163
_cell_angle_alpha    91.0673471240727
_cell_angle_beta     89.99884040145344
_cell_angle_gamma    90.00045899678607

_space_group_name_H-M_alt    "P 1"
_space_group_IT_number       1

loop_
  _space_group_symop_operation_xyz
  'x, y, z'

loop_
  _atom_site_type_symbol
  _atom_site_label
  _atom_site_symmetry_multiplicity
  _atom_site_fract_x
  _atom_site_fract_y
  _atom_site_fract_z
  _atom_site_occupancy
  Ag  Ag1       1.0  0.18641499893922744  0.5974415518569102  0.002593519474750403  1.0000
  Ag  Ag2       1.0  0.6864082251698137  0.90256231811459  0.9974039432353267  1.0000
  Ag  Ag3       1.0  0.8135879166103381  0.4025618165080756  0.9974076148262869  1.0000
  Ag  Ag4       1.0  0.31359094492506057  0.09743458272601656  0.002590986013885301  1.0000
  H   H1        1.0  0.6618900186042114  0.693229212093321  0.1140977113092205  1.0000
  H   H2        1.0  0.16187189888831455  0.8067639783795213  0.8859030900119651  1.0000
  H   H3        1.0  0.3381185152400264  0.3067700832124841  0.8859040156155448  1.0000
  H   H4        1.0  0.8381122888812343  0.19323696754834424  0.11409529568300772  1.0000
  H   H5        1.0  0.5010614805974997  0.6447805069850501  0.3478147393214855  1.0000
  H   H6        1.0  0.0010648722501188001  0.855217865688125  0.6521873448042046  1.0000
  H   H7        1.0  0.49893768947867323  0.355226943761096  0.6521844526705254  1.0000
  H   H8        1.0  0.9989249337832575  0.14476925697826454  0.3478094117284699  1.0000
  H   H9        1.0  0.4555768212809853  0.7378220701042506  0.2590025000816567  1.0000
  H   H10       1.0  0.955568623673827  0.7621809761561733  0.7410010733865847  1.0000
  H   H11       1.0  0.5444373310390136  0.2621869987102911  0.7409980744124952  1.0000
  H   H12       1.0  0.044430546243177105  0.2378150690672456  0.25899991297683306  1.0000
  H   H13       1.0  0.44235145844140095  0.7827624262335672  0.4665352714697662  1.0000
  H   H14       1.0  0.9423690130645215  0.7172438651761581  0.5334637398184512  1.0000
  H   H15       1.0  0.5576477115516668  0.2172441921928651  0.5334666034402106  1.0000
  H   H16       1.0  0.05764139362428011  0.28275382140714805  0.466535254864482  1.0000
  H   H17       1.0  0.625366071693101  0.9256505256332586  0.5605873585048258  1.0000
  H   H18       1.0  0.12538913129654364  0.5743580548139204  0.43940727182378947  1.0000
  H   H19       1.0  0.37461624338806854  0.07436099815413397  0.4394112409042422  1.0000
  H   H20       1.0  0.8746156570274837  0.42563800439695126  0.5605916900014877  1.0000
  H   H21       1.0  0.22304179719800032  0.96090578462055  0.3662548042911951  1.0000
  H   H22       1.0  0.72301849379857  0.5390900095610218  0.6337503262048401  1.0000
  H   H23       1.0  0.776955499931546  0.03910243786888399  0.6337504776998699  1.0000
  H   H24       1.0  0.2769825488609571  0.4609035899607007  0.36625128567396104  1.0000
  H   H25       1.0  0.027187475035454208  0.8211194447603134  0.2699045129618797  1.0000
  H   H26       1.0  0.5271614424031414  0.6788740919329254  0.7301026816441978  1.0000
  H   H27       1.0  0.9728191860197061  0.17888553233613885  0.730099353560597  1.0000
  H   H28       1.0  0.47283772742047603  0.3211178709033503  0.26990024704184634  1.0000
  H   H29       1.0  0.2521448096898455  0.4996071171527063  0.21051423742181197  1.0000
  H   H30       1.0  0.7521626064700799  0.00038420379593869837  0.7894847108817731  1.0000
  H   H31       1.0  0.7478581058131513  0.5003994873012231  0.7894896619923133  1.0000
  H   H32       1.0  0.24784592750791035  0.9996005104716301  0.210507272391105  1.0000
  C   C1        1.0  0.7907134368809283  0.6480616570368551  0.15601058069796644  1.0000
  C   C2        1.0  0.29071163763561014  0.8519360272469283  0.843987342827731  1.0000
  C   C3        1.0  0.2092913515045396  0.35194334801357025  0.8439892367958209  1.0000
  C   C4        1.0  0.7092894053054409  0.14806576034655444  0.15600701020958502  1.0000
  C   C5        1.0  0.5964684568069815  0.7032157998466672  0.30447569230230453  1.0000
  C   C6        1.0  0.09645894046806096  0.7967820731254562  0.6955243329828493  1.0000
  C   C7        1.0  0.40354194988778175  0.2967867595080448  0.6955247506932666  1.0000
  C   C8        1.0  0.9035346112065313  0.20320912727456886  0.3044711560528484  1.0000
  C   C9        1.0  0.720809286076872  0.7911427473918374  0.3612499445387415  1.0000
  C   C10       1.0  0.2208050171745129  0.7088530443500927  0.638754527259664  1.0000
  C   C11       1.0  0.27920112055372936  0.2088589843026512  0.638752506535539  1.0000
  C   C12       1.0  0.7791997710138931  0.29114054585861737  0.3612484342840362  1.0000
  C   C13       1.0  0.6118056780666452  0.8230247685231685  0.4433805219365611  1.0000
  C   C14       1.0  0.11180540233488052  0.6769747994445863  0.556616725469347  1.0000
  C   C15       1.0  0.38818600072870896  0.17698102223108944  0.5566233610793321  1.0000
  C   C16       1.0  0.888195640431036  0.323018014352371  0.4433808209349409  1.0000
  C   C17       1.0  0.7182333631254639  0.9049191828856559  0.4970673056588383  1.0000
  C   C18       1.0  0.21825325930178255  0.5950806830557906  0.5029352424335232  1.0000
  C   C19       1.0  0.2817564429652819  0.09508906288929346  0.5029346021631796  1.0000
  C   C20       1.0  0.7817534016962642  0.4049137254971313  0.4970670607031523  1.0000
  C   C21       1.0  0.940945988306311  0.9572543471672147  0.47118926425095964  1.0000
  C   C22       1.0  0.4409428347249787  0.5427486943131397  0.5288083418832629  1.0000
  C   C23       1.0  0.05903819940665042  0.042757139347202176  0.5288147338652962  1.0000
  C   C24       1.0  0.5590619535508666  0.45724410551131445  0.47119122902517324  1.0000
  C   C25       1.0  0.04862663688363261  0.9241523438139582  0.3883742474275139  1.0000
  C   C26       1.0  0.5486183840816068  0.5758428887371208  0.6116328243178516  1.0000
  C   C27       1.0  0.9513706602838143  0.07585588799446435  0.6116296848850525  1.0000
  C   C28       1.0  0.45138078572603774  0.42415150582535677  0.3883715033637643  1.0000
  C   C29       1.0  0.9399224567249083  0.8434556946168923  0.3341100169626827  1.0000
  C   C30       1.0  0.4398931948547258  0.6565416011860491  0.6658942300177132  1.0000
  C   C31       1.0  0.06007858593785191  0.15655089585555967  0.6658959069759762  1.0000
  C   C32       1.0  0.56010410220879  0.34344874360276373  0.3341073161185903  1.0000
  C   C33       1.0  0.08535338710244392  0.5499917425933843  0.20845508581058433  1.0000
  C   C34       1.0  0.5853665447801861  0.9500028541705131  0.7915429298272445  1.0000
  C   C35       1.0  0.9146532739497321  0.4500107981173613  0.7915480565555699  1.0000
  C   C36       1.0  0.41464573479245115  0.04998917391963428  0.20845055106174476  1.0000
  N   N1        1.0  0.9584994529721418  0.5818068834688571  0.2811660687494638  1.0000
  N   N2        1.0  0.4585059312792624  0.9181896953110422  0.7188326280567454  1.0000
  N   N3        1.0  0.041505335321552615  0.41820053466979346  0.7188378470968858  1.0000
  N   N4        1.0  0.5414894932618283  0.08180233741168047  0.2811601780541864  1.0000
  N   N5        1.0  0.9894945820954181  0.589040169631154  0.12979764557308476  1.0000
  N   N6        1.0  0.48949618671409223  0.9109508170113187  0.8702000362763231  1.0000
  N   N7        1.0  0.010508333427885902  0.41096238039260385  0.8702041471281704  1.0000
  N   N8        1.0  0.5105067289299614  0.08904202008610436  0.12979413592492514  1.0000
  N   N9        1.0  0.7715298190540597  0.6439782929925284  0.24636922721460056  1.0000
  N   N10       1.0  0.27152941488395754  0.85601849771087  0.7536315185202371  1.0000
  N   N11       1.0  0.22847496924099192  0.3560250660564605  0.7536332567581355  1.0000
  N   N12       1.0  0.728460391218164  0.14397838447681005  0.24636611011997195  1.0000
  N   N13       1.0  0.46951162175824385  0.5967386835124129  0.900146542798183  1.0000
  N   N14       1.0  0.9694877306989371  0.9032660718631786  0.09985156370762382  1.0000
  N   N15       1.0  0.530483802707309  0.4032638851373631  0.09985255057328153  1.0000
  N   N16       1.0  0.030507693846743705  0.09673489272061178  0.9001441225895592  1.0000
  N   N17       1.0  0.6548106510722392  0.6500184184489726  0.9103615613693352  1.0000
  N   N18       1.0  0.15479676964360328  0.849982886239985  0.08963945573145791  1.0000
  N   N19       1.0  0.3451997556371398  0.34998576826919947  0.08963891450428461  1.0000
  N   N20       1.0  0.845208018778145  0.15001563265406756  0.9103568560539019  1.0000
  N   N21       1.0  0.8419769136303048  0.7008987581576703  0.9173241887194977  1.0000
  N   N22       1.0  0.34194372286292934  0.7991039392598862  0.08267818519428262  1.0000
  N   N23       1.0  0.15802600193226377  0.2990997420954073  0.08267482242965232  1.0000
  N   N24       1.0  0.658049828830876  0.2008978203646662  0.9173202169057078  1.0000
