data_image0
_chemical_formula_structural       Mn4H40C64N16O16
_chemical_formula_sum              "Mn4 H40 C64 N16 O16"
_cell_length_a       7.463410933288819
_cell_length_b       14.157030857244772
_cell_length_c       17.991202912803985
_cell_angle_alpha    90.0182255441074
_cell_angle_beta     89.99946430661866
_cell_angle_gamma    90.00204682915111

_space_group_name_H-M_alt    "P 1"
_space_group_IT_number       1

loop_
  _space_group_symop_operation_xyz
  'x, y, z'

loop_
  _atom_site_type_symbol
  _atom_site_label
  _atom_site_symmetry_multiplicity
  _atom_site_fract_x
  _atom_site_fract_y
  _atom_site_fract_z
  _atom_site_occupancy
  Mn  Mn1       1.0  0.48219658379082386  0.2571762376082134  0.5231669116205921  1.0000
  Mn  Mn2       1.0  0.0183943699942333  0.7426690492497342  0.023078021520149206  1.0000
  Mn  Mn3       1.0  0.5183915732899251  0.7573385662092208  0.976923945379717  1.0000
  Mn  Mn4       1.0  0.9821945426317457  0.2428119581244843  0.4768314868218937  1.0000
  H   H1        1.0  0.13847262843146524  0.7444342796604888  0.8317626871832646  1.0000
  H   H2        1.0  0.3614093702248198  0.2553295677047061  0.3319734740998613  1.0000
  H   H3        1.0  0.8613938258903674  0.24465987213031326  0.6680298459341217  1.0000
  H   H4        1.0  0.6384917018868776  0.7555699595918525  0.1682360281102575  1.0000
  H   H5        1.0  0.08838246096618009  0.48910531051725303  0.5825056950860985  1.0000
  H   H6        1.0  0.41187757129845437  0.5109017120002193  0.08245394619402191  1.0000
  H   H7        1.0  0.9119305588388685  0.9890773342356738  0.9175448028318057  1.0000
  H   H8        1.0  0.5883634388791138  0.010907918182859097  0.4175031477661762  1.0000
  H   H9        1.0  0.5770649427697448  0.7490982508355587  0.789537883113141  1.0000
  H   H10       1.0  0.9227267733927462  0.2510309033457432  0.2894810660381779  1.0000
  H   H11       1.0  0.4227120392515147  0.24895898963093538  0.7105108964796402  1.0000
  H   H12       1.0  0.07707753006709342  0.7509288401134243  0.2104555181625543  1.0000
  H   H13       1.0  0.8566630016556473  0.9549809490319275  0.5065631170415941  1.0000
  H   H14       1.0  0.6434391410149871  0.044840285713078694  0.006640367604923401  1.0000
  H   H15       1.0  0.1434226297132071  0.4551485555017507  0.9933604741923504  1.0000
  H   H16       1.0  0.3566728527120305  0.5450366077830324  0.4934397447165538  1.0000
  H   H17       1.0  0.15067737933981817  0.6415586432294093  0.6517457034357365  1.0000
  H   H18       1.0  0.34914030172065214  0.35860635312520367  0.15176167225322254  1.0000
  H   H19       1.0  0.849170071346748  0.1413687266412964  0.8482378033316352  1.0000
  H   H20       1.0  0.6506739243719224  0.858462074177204  0.3482568567799974  1.0000
  H   H21       1.0  0.5833857511425364  0.6893853542924903  0.671377096656997  1.0000
  H   H22       1.0  0.9163442656548211  0.31045094396955614  0.17144248708532936  1.0000
  H   H23       1.0  0.4163711424681367  0.1895536623199234  0.8285506139347305  1.0000
  H   H24       1.0  0.08338365497775871  0.8106100702836797  0.3286179433206656  1.0000
  H   H25       1.0  0.5243705690497649  0.5321356191642153  0.6114821603716365  1.0000
  H   H26       1.0  0.9757412973240848  0.46754789562569243  0.1114799355068996  1.0000
  H   H27       1.0  0.4757817189358279  0.032461367516688704  0.8885107092819882  1.0000
  H   H28       1.0  0.0243616542662579  0.9678579809716793  0.38851366719580244  1.0000
  H   H29       1.0  0.7080270989375707  0.0668729566795179  0.7189600242703804  1.0000
  H   H30       1.0  0.7916053959374166  0.9331683675059351  0.21910335695657324  1.0000
  H   H31       1.0  0.2915875501878844  0.5668324161199293  0.7808980910045309  1.0000
  H   H32       1.0  0.20803029184890684  0.4331298239733955  0.2810455677944006  1.0000
  H   H33       1.0  0.9235809332300134  0.7991449536973221  0.5645885203234684  1.0000
  H   H34       1.0  0.576101880583103  0.20066511929276493  0.06463833564767901  1.0000
  H   H35       1.0  0.0761002808208886  0.2993210326401581  0.9353583238560575  1.0000
  H   H36       1.0  0.4235784515371819  0.700868924741819  0.43540629637599443  1.0000
  H   H37       1.0  0.7929760129131297  0.9171399224617645  0.7798037193727796  1.0000
  H   H38       1.0  0.706360359436431  0.0829146887528438  0.27991078650129714  1.0000
  H   H39       1.0  0.2063594151918338  0.4170824081435712  0.7200886973126901  1.0000
  H   H40       1.0  0.29297706543247404  0.5828644189008116  0.22019661195432155  1.0000
  C   C1        1.0  0.9940893750502228  0.7445244767477988  0.8395092481496391  1.0000
  C   C2        1.0  0.5058151074426503  0.25530493810472166  0.33964360270545063  1.0000
  C   C3        1.0  0.005790480949798401  0.24468270827898658  0.6603577799321912  1.0000
  C   C4        1.0  0.494123478185351  0.7554857947275266  0.1604919607977919  1.0000
  C   C5        1.0  0.8031939977364076  0.5020056522634917  0.5946184910650133  1.0000
  C   C6        1.0  0.6969932812900269  0.49781866653693635  0.0945737842904677  1.0000
  C   C7        1.0  0.19702592873886  0.0021846100213239  0.9054235137421642  1.0000
  C   C8        1.0  0.3031786983556374  0.9979925256098098  0.40538346683962356  1.0000
  C   C9        1.0  0.7654873144776887  0.408568756913894  0.558300239420568  1.0000
  C   C10       1.0  0.7348736143498941  0.59124582668327  0.0582654277567372  1.0000
  C   C11       1.0  0.23490470041386405  0.9087588283189092  0.9417423576938193  1.0000
  C   C12       1.0  0.2654679434240066  0.09142451708409281  0.4417067931153725  1.0000
  C   C13       1.0  0.7308683539628049  0.1131706351416213  0.5738048269893454  1.0000
  C   C14       1.0  0.7696958913000956  0.8867413861476051  0.07400000868703671  1.0000
  C   C15       1.0  0.2696565100547446  0.61325686420313  0.9260070833935927  1.0000
  C   C16       1.0  0.2308920005848663  0.3868297531256388  0.4262012307784389  1.0000
  C   C17       1.0  0.8712804088125736  0.6724838854556906  0.6667560475447802  1.0000
  C   C18       1.0  0.6285046501966675  0.32749322816493975  0.16681069813911625  1.0000
  C   C19       1.0  0.1285289358286974  0.17249462299511006  0.8331846438866253  1.0000
  C   C20       1.0  0.3712806885602547  0.827524764600163  0.3332423090416797  1.0000
  C   C21       1.0  0.9799519123645056  0.5328610919012391  0.6042972890586213  1.0000
  C   C22       1.0  0.5201775413658539  0.4670907550258007  0.10426280151504842  1.0000
  C   C23       1.0  0.020209793287485008  0.0328943377752964  0.8957346334447893  1.0000
  C   C24       1.0  0.47994144962883223  0.9671482056092132  0.3957073103894687  1.0000
  C   C25       1.0  0.7053289448942125  0.7461793444501764  0.8174047746079796  1.0000
  C   C26       1.0  0.794526460894616  0.25382476155231604  0.3174108732852616  1.0000
  C   C27       1.0  0.29450545976939685  0.24616199561840088  0.6825793694747021  1.0000
  C   C28       1.0  0.205355746426271  0.7538388746321089  0.18258645386652722  1.0000
  C   C29       1.0  0.8613845407524893  0.8469028856234003  0.6760029573966477  1.0000
  C   C30       1.0  0.6382140706687308  0.1530744365617949  0.17607561392190266  1.0000
  C   C31       1.0  0.13821145318649286  0.34691783726545106  0.8239235813347393  1.0000
  C   C32       1.0  0.3613906971672378  0.6531069898350735  0.3239959940575973  1.0000
  C   C33       1.0  0.776640168560384  0.020766139744090098  0.6089520240429495  1.0000
  C   C34       1.0  0.7233190160428365  0.9791713726008383  0.10907324663734391  1.0000
  C   C35       1.0  0.2232996464669057  0.5208238789402202  0.8909279132280618  1.0000
  C   C36       1.0  0.2766507218622253  0.47924147231388753  0.3910510755981633  1.0000
  C   C37       1.0  0.8397568605217246  0.9448982117504843  0.5661915875081294  1.0000
  C   C38       1.0  0.6601845137088206  0.05495701960524  0.0662757462423826  1.0000
  C   C39       1.0  0.16016864618139692  0.4450314322926586  0.933723918027603  1.0000
  C   C40       1.0  0.33976335602748264  0.5551147860957713  0.4338091168321015  1.0000
  C   C41       1.0  0.014095692872011503  0.6173588671329  0.6417330513656695  1.0000
  C   C42       1.0  0.4858200166426414  0.3826692846014978  0.1417428501710418  1.0000
  C   C43       1.0  0.985847943166668  0.11730979701222569  0.858253865347379  1.0000
  C   C44       1.0  0.5140923051880719  0.8826550240291198  0.3582683773907506  1.0000
  C   C45       1.0  0.6940804560373552  0.6441580191285823  0.6540394154300275  1.0000
  C   C46       1.0  0.80574909744216  0.35570163927705767  0.15408098994952724  1.0000
  C   C47       1.0  0.3057819197669077  0.14429804590011494  0.8459108776900025  1.0000
  C   C48       1.0  0.19407432153632703  0.8558437411894743  0.3459568577101848  1.0000
  C   C49       1.0  0.6605771690760279  0.5580161614216692  0.6196457863752016  1.0000
  C   C50       1.0  0.8394608263364275  0.44176318564632305  0.1196381876738073  1.0000
  C   C51       1.0  0.33950048593575843  0.0582420830760313  0.8803546597910099  1.0000
  C   C52       1.0  0.16056401298688883  0.9419807261109625  0.3803517295185231  1.0000
  C   C53       1.0  0.7587690528836646  0.008362917372664898  0.6856852326011593  1.0000
  C   C54       1.0  0.7408949973901643  0.9916437602352988  0.18581338916609272  1.0000
  C   C55       1.0  0.2408778329199848  0.5083525306910417  0.8141877017371969  1.0000
  C   C56       1.0  0.2587754471624351  0.4916422371888486  0.314319048642986  1.0000
  C   C57       1.0  0.8786339277062966  0.8582407831368357  0.5986570951634607  1.0000
  C   C58       1.0  0.6210990458707926  0.14162827601384012  0.0987297472463737  1.0000
  C   C59       1.0  0.1210941405642387  0.35835872898383053  0.9012695146313519  1.0000
  C   C60       1.0  0.3786376019654299  0.6417729509260539  0.401341788974456  1.0000
  C   C61       1.0  0.8040710133577419  0.9233537545739521  0.7196756433511242  1.0000
  C   C62       1.0  0.6954301580414111  0.0766652462183259  0.21978008250248854  1.0000
  C   C63       1.0  0.19542561870457578  0.423328818217115  0.7802199997308463  1.0000
  C   C64       1.0  0.3040756708645418  0.5766536225967657  0.28032520056365945  1.0000
  N   N1        1.0  0.9082176980325727  0.7583396465872668  0.7078801457398997  1.0000
  N   N2        1.0  0.5913976253249232  0.24169223681610674  0.20794180851557806  1.0000
  N   N3        1.0  0.09140448601537801  0.25829773703512154  0.7920559029795484  1.0000
  N   N4        1.0  0.40822650792213006  0.741669703153306  0.29211695406946353  1.0000
  N   N5        1.0  0.870055724021057  0.7495363650259534  0.7836328096356908  1.0000
  N   N6        1.0  0.6297053021217708  0.25050707501056013  0.2836965267882192  1.0000
  N   N7        1.0  0.12967975573041463  0.24948291751393734  0.7162988108838917  1.0000
  N   N8        1.0  0.37010566641042436  0.7504750870741645  0.21636221705454525  1.0000
  N   N9        1.0  0.9097061181631503  0.7381581950933838  0.9036894294991528  1.0000
  N   N10       1.0  0.5903858555506715  0.2615347008512999  0.4037983485113301  1.0000
  N   N11       1.0  0.0903582153250611  0.238449603275221  0.5962027012824436  1.0000
  N   N12       1.0  0.4097501155528463  0.7618568353193352  0.0963137792005284  1.0000
  N   N13       1.0  0.728476862665623  0.7397789277881798  0.8893868868959203  1.0000
  N   N14       1.0  0.7715551396697293  0.2600353145674675  0.38941744322502814  1.0000
  N   N15       1.0  0.27153933971762717  0.239946769813514  0.6105756683719366  1.0000
  N   N16       1.0  0.22849229608544167  0.7602404363436649  0.1106053624085703  1.0000
  O   O1        1.0  0.8851062486804936  0.3756468831843236  0.5156633817270021  1.0000
  O   O2        1.0  0.6149501414850392  0.6243878547180585  0.0159118865115744  1.0000
  O   O3        1.0  0.1149619761111822  0.8756230035511692  0.9840924803589887  1.0000
  O   O4        1.0  0.38508010807476717  0.12434230118048357  0.48434985003769543  1.0000
  O   O5        1.0  0.7948846332225727  0.1309600097223935  0.5095577483687279  1.0000
  O   O6        1.0  0.706326855458521  0.8688744581974531  0.0096536720705629  1.0000
  O   O7        1.0  0.2062524108133985  0.6311134075903836  0.990349221253453  1.0000
  O   O8        1.0  0.29492039287683985  0.36904512278996293  0.4904452791970401  1.0000
  O   O9        1.0  0.6313188871024594  0.17049902403833533  0.6098348021993517  1.0000
  O   O10       1.0  0.8691427309220288  0.8295625065625813  0.11016922788166991  1.0000
  O   O11       1.0  0.36911872340589014  0.6704404554547736  0.8898469229142806  1.0000
  O   O12       1.0  0.1313434926748513  0.32949594643226016  0.3901722020258377  1.0000
  O   O13       1.0  0.6162270100105901  0.3701366755676504  0.5743263360944371  1.0000
  O   O14       1.0  0.8845247974638114  0.6293869662568028  0.07406373666538002  1.0000
  O   O15       1.0  0.38455500566952594  0.870619818511834  0.925947351593507  1.0000
  O   O16       1.0  0.11621460313972422  0.12985659487868872  0.4256757248691657  1.0000
