data_image0
_chemical_formula_structural       Zn2H26C26N2O10
_chemical_formula_sum              "Zn2 H26 C26 N2 O10"
_cell_length_a       9.69493718900284
_cell_length_b       11.270881006229756
_cell_length_c       11.054451897392042
_cell_angle_alpha    89.65628792341005
_cell_angle_beta     113.71295604807517
_cell_angle_gamma    100.02818392849929

_space_group_name_H-M_alt    "P 1"
_space_group_IT_number       1

loop_
  _space_group_symop_operation_xyz
  'x, y, z'

loop_
  _atom_site_type_symbol
  _atom_site_label
  _atom_site_symmetry_multiplicity
  _atom_site_fract_x
  _atom_site_fract_y
  _atom_site_fract_z
  _atom_site_occupancy
  Zn  Zn1       1.0  0.6491344845423441  0.49584684501945725  0.5499936573345681  1.0000
  Zn  Zn2       1.0  0.3305486723290159  0.48658196459172126  0.43238178939505195  1.0000
  H   H1        1.0  0.34019375759970677  0.3359272838679743  0.8187657007262887  1.0000
  H   H2        1.0  0.2982135246346331  0.07908657406893128  0.40586076418669853  1.0000
  H   H3        1.0  0.8370494057231284  0.5338615779047869  0.39391551175741313  1.0000
  H   H4        1.0  0.14890411178289753  0.46131598695591686  0.5924802015842304  1.0000
  H   H5        1.0  0.9482100978030132  0.45793812640881276  0.6649641002165867  1.0000
  H   H6        1.0  0.030973245146903115  0.5250439976133947  0.3170486222989126  1.0000
  H   H7        1.0  0.6917770167269452  0.704754757281627  0.8476035511265965  1.0000
  H   H8        1.0  0.8290910870434587  0.8749383758360948  0.017148367008467003  1.0000
  H   H9        1.0  0.8077030707207982  0.8696984667562121  0.23512439893303153  1.0000
  H   H10       1.0  0.6477650152791412  0.6962154508815743  0.2818259797296819  1.0000
  H   H11       1.0  0.3547476608065665  0.8829869363605525  0.4756509841233696  1.0000
  H   H12       1.0  0.7051730405141897  0.8979561111514871  0.5967826216164911  1.0000
  H   H13       1.0  0.2891846275275399  0.18776595851532824  0.16966071347466286  1.0000
  H   H14       1.0  0.4764162669483199  0.2709863856159842  0.20702685507906451  1.0000
  H   H15       1.0  0.29624403496800505  0.07842842478422088  0.9762219495380294  1.0000
  H   H16       1.0  0.480030908459632  0.1643037459855847  0.008805154074927704  1.0000
  H   H17       1.0  0.5898550318152971  0.0748277128988306  0.22981392571472992  1.0000
  H   H18       1.0  0.49971815769888644  0.9586437447085245  0.09997603153118464  1.0000
  H   H19       1.0  0.40609523981287055  0.9904678436968908  0.20130571061032046  1.0000
  H   H20       1.0  0.8121127192302923  0.03581324726150111  0.7943537501148443  1.0000
  H   H21       1.0  0.619939762993674  0.005727655489089003  0.7814101362842083  1.0000
  H   H22       1.0  0.8261324134805649  0.2568806486792639  0.8409620972513709  1.0000
  H   H23       1.0  0.6390726452514315  0.2254251497867088  0.8351388450606338  1.0000
  H   H24       1.0  0.7282638394577319  0.09299643561128333  0.029157399713803014  1.0000
  H   H25       1.0  0.8365610517651092  0.2423792618186411  0.07117760772370475  1.0000
  H   H26       1.0  0.9164927754747368  0.1253861324339596  0.03345199441724135  1.0000
  C   C1        1.0  0.43627644762586476  0.2587527095967843  0.47924125601613116  1.0000
  C   C2        1.0  0.5886732900260371  0.6010368299599024  0.965578432264721  1.0000
  C   C3        1.0  0.5021692613142221  0.5033440404125571  0.8680117633783484  1.0000
  C   C4        1.0  0.406712090417436  0.40998545271548176  0.8935972187952931  1.0000
  C   C5        1.0  0.3958643499402186  0.4058569327505308  0.017046411231802897  1.0000
  C   C6        1.0  0.478300019913128  0.49888056939772685  0.11455077213101826  1.0000
  C   C7        1.0  0.41043311050476217  0.1258786919416863  0.4756877798380971  1.0000
  C   C8        1.0  0.513112523919922  0.056883922301601296  0.5483434707151248  1.0000
  C   C9        1.0  0.5837130494353886  0.8570807390584534  0.5528548818446313  1.0000
  C   C10       1.0  0.47550148028896194  0.9257532799759575  0.5248126987340029  1.0000
  C   C11       1.0  0.06688988966413945  0.4867563468014495  0.49829882014210386  1.0000
  C   C12       1.0  0.5094957253775476  0.4971145469022531  0.7353841381051114  1.0000
  C   C13       1.0  0.9166166092427305  0.5053798090220596  0.48728727245097764  1.0000
  C   C14       1.0  0.5480624634151923  0.7250842719838672  0.5212673636468567  1.0000
  C   C15       1.0  0.4691911422717683  0.49469097280332636  0.24701869049842176  1.0000
  C   C16       1.0  0.6817558538003752  0.7028887630943926  0.9422053249043076  1.0000
  C   C17       1.0  0.7589014267976495  0.7973441235707596  0.037340190590519726  1.0000
  C   C18       1.0  0.7469889625617228  0.7942522741154007  0.16068928840371655  1.0000
  C   C19       1.0  0.6574137346679053  0.697081869936838  0.18681876332188818  1.0000
  C   C20       1.0  0.575383754383651  0.598239339237459  0.09061770387131671  1.0000
  C   C21       1.0  0.37058562486931396  0.22358527153357954  0.12625532249524707  1.0000
  C   C22       1.0  0.40428698450833883  0.12355163837017358  0.05625959601590583  1.0000
  C   C23       1.0  0.4790274453477537  0.03190784516122851  0.15183861441945376  1.0000
  C   C24       1.0  0.7085070143284257  0.0751520137497863  0.7704352795227296  1.0000
  C   C25       1.0  0.7439868208467714  0.18780590447907733  0.8607290369409387  1.0000
  C   C26       1.0  0.8096125735521298  0.16044422279804138  0.006533652301584442  1.0000
  N   N1        1.0  0.10988637538331154  0.4994265109220991  0.402687277871813  1.0000
  N   N2        1.0  0.8707488573222052  0.4866806241774383  0.5806742093160795  1.0000
  O   O1        1.0  0.5711837583323742  0.3181233482490242  0.545197737061038  1.0000
  O   O2        1.0  0.3180781922473487  0.3049570518125577  0.4130224841976543  1.0000
  O   O3        1.0  0.6404467636844089  0.5223643149230313  0.7307286273057729  1.0000
  O   O4        1.0  0.381938160905527  0.4646568383112922  0.6362095244155342  1.0000
  O   O5        1.0  0.6621442572890573  0.6769120089831305  0.5310104689755591  1.0000
  O   O6        1.0  0.41075682691786153  0.6691454320974229  0.4884501745685272  1.0000
  O   O7        1.0  0.5888384823123757  0.4746584541705373  0.3429880247688928  1.0000
  O   O8        1.0  0.3464498655170872  0.5114107258767645  0.25400923711507073  1.0000
  O   O9        1.0  0.2983916799150776  0.30949242181640807  0.034441009616685406  1.0000
  O   O10       1.0  0.6582300072998989  0.10731684773841717  0.6339221159165762  1.0000
