data_image0
_chemical_formula_structural       Zn4H38C92N4Cl10O20
_chemical_formula_sum              "Zn4 H38 C92 N4 Cl10 O20"
_cell_length_a       16.625772130869944
_cell_length_b       17.846342131478185
_cell_length_c       33.10619230399401
_cell_angle_alpha    90.23473325827088
_cell_angle_beta     89.89660668635337
_cell_angle_gamma    89.95651680493833

_space_group_name_H-M_alt    "P 1"
_space_group_IT_number       1

loop_
  _space_group_symop_operation_xyz
  'x, y, z'

loop_
  _atom_site_type_symbol
  _atom_site_label
  _atom_site_symmetry_multiplicity
  _atom_site_fract_x
  _atom_site_fract_y
  _atom_site_fract_z
  _atom_site_occupancy
  Zn  Zn1       1.0  0.5817825034478683  0.5057057762571945  0.5017166316908827  1.0000
  Zn  Zn2       1.0  0.41220763274763067  0.488587065358651  0.5003616599444599  1.0000
  Zn  Zn3       1.0  0.4184320016919256  0.5086368199859024  0.9605198835331876  1.0000
  Zn  Zn4       1.0  0.5880634354020202  0.4914630563299696  0.9618678241889215  1.0000
  H   H1        1.0  0.289653145529492  0.5748500661476046  0.5370717583866593  1.0000
  H   H2        1.0  0.13957125404439097  0.5877494044015423  0.5413103091635918  1.0000
  H   H3        1.0  0.12302128992558886  0.3951831055562068  0.4615783693590174  1.0000
  H   H4        1.0  0.869522969370841  0.5958512562938199  0.5459778725950741  1.0000
  H   H5        1.0  0.7064189972874432  0.4214089672719155  0.46508810507120296  1.0000
  H   H6        1.0  0.8567395989583133  0.4104120224114285  0.4612706055537004  1.0000
  H   H7        1.0  0.6009873702122164  0.724443398629582  0.4970085307577961  1.0000
  H   H8        1.0  0.6166452346310008  0.8632168833704768  0.49434437713551194  1.0000
  H   H9        1.0  0.3580091376679704  0.8848320850948712  0.4975513787783399  1.0000
  H   H10       1.0  0.6411875661761998  0.11401660468359151  0.5025889146368456  1.0000
  H   H11       1.0  0.3919566601453539  0.26544500957263034  0.4960052146176395  1.0000
  H   H12       1.0  0.382554524748997  0.12611558011258955  0.4928778328460056  1.0000
  H   H13       1.0  0.3645587970513872  0.5007622349919104  0.6307762972025657  1.0000
  H   H14       1.0  0.2936529263764526  0.5004423236686508  0.6967760063743498  1.0000
  H   H15       1.0  0.6207635454891828  0.4902367097346316  0.6256139513769766  1.0000
  H   H16       1.0  0.6353605252653692  0.5012455276651907  0.8314985137686932  1.0000
  H   H17       1.0  0.7062685343390882  0.5004116948878734  0.7655437043832122  1.0000
  H   H18       1.0  0.37917185828622013  0.4906623467612478  0.8366702951867069  1.0000
  H   H19       1.0  0.37221833404055354  0.4860041870788834  0.0891388916424845  1.0000
  H   H20       1.0  0.3704343289259029  0.48274401127883254  0.1645606031311715  1.0000
  H   H21       1.0  0.6230329394503469  0.5386186242371594  0.1647745264881095  1.0000
  H   H22       1.0  0.37613716578059087  0.5363748826089961  0.2978490686002857  1.0000
  H   H23       1.0  0.6273628150513417  0.4832036557934317  0.3728414092141747  1.0000
  H   H24       1.0  0.6290598959551446  0.48150815220083143  0.29738841912073616  1.0000
  H   H25       1.0  0.710626044542984  0.5767868041820493  0.9250430293900607  1.0000
  H   H26       1.0  0.8606896208187678  0.5892704647401674  0.9206829580212031  1.0000
  H   H27       1.0  0.8772956871902481  0.39791318534664566  0.0004349826611189999  1.0000
  H   H28       1.0  0.13040147852503028  0.5972700814614955  0.9158074702653706  1.0000
  H   H29       1.0  0.29417236604744806  0.42499357202303406  0.9970912520561798  1.0000
  H   H30       1.0  0.1439254216521206  0.41333448870542366  0.0006408122156714002  1.0000
  H   H31       1.0  0.3993310494140586  0.7273672914167619  0.9645729476651681  1.0000
  H   H32       1.0  0.38341870754659607  0.8662104454800217  0.9667710983483674  1.0000
  H   H33       1.0  0.6419829116019925  0.8877982332432384  0.9626862522905029  1.0000
  H   H34       1.0  0.3586550149013873  0.11740030450948072  0.9587454589076003  1.0000
  H   H35       1.0  0.6082634393497982  0.2679982835789759  0.9657727776919103  1.0000
  H   H36       1.0  0.6173416746477329  0.12862785490763431  0.9682144611096746  1.0000
  H   H37       1.0  0.3170887687031366  0.5757868793775744  0.8130413742661062  1.0000
  H   H38       1.0  0.6827874614312321  0.575376550857051  0.649556997638335  1.0000
  C   C1        1.0  0.47315004572774905  0.641317593154078  0.5002209018238943  1.0000
  C   C2        1.0  0.4918697804013659  0.49658825776123916  0.579199334578675  1.0000
  C   C3        1.0  0.5159986660100556  0.3531910368804248  0.5007927055166093  1.0000
  C   C4        1.0  0.5058824545237994  0.50259685224664  0.4230968724427484  1.0000
  C   C5        1.0  0.5272342933622909  0.6441679741521471  0.9614875997225526  1.0000
  C   C6        1.0  0.508171696219911  0.49772261885800634  0.883052791090563  1.0000
  C   C7        1.0  0.48433718425644656  0.35612063876274663  0.9615099282491287  1.0000
  C   C8        1.0  0.4938778072045692  0.5065209223120349  0.0391248044112231  1.0000
  C   C9        1.0  0.24973472446497164  0.536286556608488  0.5212679185580384  1.0000
  C   C10       1.0  0.16690145769145204  0.5433203271817394  0.5233416023968616  1.0000
  C   C11       1.0  0.1188621652790189  0.492068161661891  0.50163952320937  1.0000
  C   C12       1.0  0.1574075390923255  0.4359821038243582  0.4788451458377949  1.0000
  C   C13       1.0  0.24120590190570104  0.43359202138658776  0.478630108287696  1.0000
  C   C14       1.0  0.03394563422575201  0.4963752557761723  0.5023987850799188  1.0000
  C   C15       1.0  0.9607102414836675  0.4993220299985596  0.5027175689016589  1.0000
  C   C16       1.0  0.8757339791770704  0.502953894173615  0.5032567271980781  1.0000
  C   C17       1.0  0.836086889558352  0.55657288795679  0.5272677794170235  1.0000
  C   C18       1.0  0.7522959182633359  0.5583471055664406  0.5268945642108918  1.0000
  C   C19       1.0  0.7456539528572392  0.45929455284928633  0.4817943288853499  1.0000
  C   C20       1.0  0.8286087697834644  0.45319097701511873  0.4800690121161679  1.0000
  C   C21       1.0  0.4726801064614676  0.7255595256366619  0.49835570717542055  1.0000
  C   C22       1.0  0.5484056930258276  0.76081010123513  0.49685061133268954  1.0000
  C   C23       1.0  0.5571286938046427  0.8378116040550342  0.49547050973249906  1.0000
  C   C24       1.0  0.48831699211837787  0.8841551827585338  0.49587202494187466  1.0000
  C   C25       1.0  0.4119256517995069  0.85015585403103  0.49712712068323134  1.0000
  C   C26       1.0  0.4042636248500173  0.7722723202865822  0.4982679815107574  1.0000
  C   C27       1.0  0.49640696807693274  0.963066450724455  0.4956889792270828  1.0000
  C   C28       1.0  0.505745502770395  0.03092388395980091  0.49630530700197545  1.0000
  C   C29       1.0  0.5113338063559352  0.11001294567022772  0.4972748863112599  1.0000
  C   C30       1.0  0.5860010316102304  0.14668777034865604  0.5005966666881392  1.0000
  C   C31       1.0  0.5902266210113111  0.22482373937715042  0.5017193286836276  1.0000
  C   C32       1.0  0.5199959563422141  0.26897399280113643  0.4998454447053859  1.0000
  C   C33       1.0  0.4460137876652935  0.23105017066366437  0.4968814840789406  1.0000
  C   C34       1.0  0.4407316906531733  0.15378048910350375  0.4953247358432691  1.0000
  C   C35       1.0  0.421835640611107  0.5001095998477398  0.6467403827737996  1.0000
  C   C36       1.0  0.423689995014378  0.5004642614689773  0.6891204254082197  1.0000
  C   C37       1.0  0.3513715317334273  0.5007310257840062  0.7123985511208559  1.0000
  C   C38       1.0  0.5674091323746282  0.49656941057666887  0.644478572459768  1.0000
  C   C39       1.0  0.5727133308602603  0.500957878459545  0.6867665779043648  1.0000
  C   C40       1.0  0.64818813895279  0.5023196090543538  0.7085020599471079  1.0000
  C   C41       1.0  0.5780908621426945  0.500421656888591  0.8155327045818552  1.0000
  C   C42       1.0  0.5762240949975561  0.5005629010701541  0.7731688614216452  1.0000
  C   C43       1.0  0.6485675165902691  0.5006923003958194  0.7499081886410366  1.0000
  C   C44       1.0  0.4325194067052464  0.4968365182983518  0.8178236472546985  1.0000
  C   C45       1.0  0.4272077788274514  0.5010969560333933  0.7755460913562899  1.0000
  C   C46       1.0  0.35175785302195806  0.5025033228827313  0.7538160281128724  1.0000
  C   C47       1.0  0.49317598425485437  0.497722055089348  0.6246140133670011  1.0000
  C   C48       1.0  0.49931240370144525  0.5014919289326158  0.7096772985710729  1.0000
  C   C49       1.0  0.506765001471919  0.4981835644703453  0.8376622416187871  1.0000
  C   C50       1.0  0.5005970947667037  0.5015513515853841  0.7526284809564388  1.0000
  C   C51       1.0  0.49762034478614925  0.510894541352208  0.0843585643813043  1.0000
  C   C52       1.0  0.4269277257667736  0.49651377052892826  0.1063301173968938  1.0000
  C   C53       1.0  0.425784932090714  0.49499413004199516  0.14821078619599604  1.0000
  C   C54       1.0  0.4971048033424238  0.5092338024360786  0.1699778252982043  1.0000
  C   C55       1.0  0.5679571403540677  0.5257696840964885  0.1484291661884001  1.0000
  C   C56       1.0  0.5682216461785713  0.5265575251355514  0.10634543292920282  1.0000
  C   C57       1.0  0.49841276540161067  0.5078693748468768  0.2127247012672555  1.0000
  C   C58       1.0  0.5008597091375223  0.5073757779900634  0.249572492396112  1.0000
  C   C59       1.0  0.50221331442129  0.5076195352029347  0.2923167938939883  1.0000
  C   C60       1.0  0.4313018424943633  0.5234255864488305  0.3140555006276031  1.0000
  C   C61       1.0  0.4310987014650322  0.5233807592863543  0.3561386792601553  1.0000
  C   C62       1.0  0.5018486781452649  0.50755296828752  0.37791914347018013  1.0000
  C   C63       1.0  0.5725712270563433  0.4938291268560847  0.3557695510638368  1.0000
  C   C64       1.0  0.573659794700113  0.49318023861303584  0.3138851062192174  1.0000
  C   C65       1.0  0.7505457287614519  0.538362452526286  0.9408121450381799  1.0000
  C   C66       1.0  0.833393296376698  0.5451551560866577  0.9386689804697639  1.0000
  C   C67       1.0  0.881465256877277  0.49413170951537927  0.9603308840382424  1.0000
  C   C68       1.0  0.8429107379586469  0.4384869229756277  0.9831553874193091  1.0000
  C   C69       1.0  0.7591124157851254  0.4362833109999187  0.9834081120722259  1.0000
  C   C70       1.0  0.9663925087877981  0.4982757116217656  0.9594873783899942  1.0000
  C   C71       1.0  0.03962685585082679  0.5011480979313563  0.9590616965030563  1.0000
  C   C72       1.0  0.12458034633569068  0.5050371689475739  0.9585447356317474  1.0000
  C   C73       1.0  0.1640111704087133  0.5584427046641308  0.9345669079125827  1.0000
  C   C74       1.0  0.24778886994796073  0.5606273276622816  0.935092869532781  1.0000
  C   C75       1.0  0.2548080846885057  0.46241649060159057  0.9802845185262683  1.0000
  C   C76       1.0  0.1718902192726333  0.4558994318768228  0.9818471983824678  1.0000
  C   C77       1.0  0.5276104990872525  0.7284902713143425  0.9628845342255019  1.0000
  C   C78       1.0  0.45182982235208874  0.7637740832458492  0.9644598457825353  1.0000
  C   C79       1.0  0.44296994817185  0.840795908929728  0.9655707301196728  1.0000
  C   C80       1.0  0.5117124863589025  0.8871056933430524  0.9648519091602807  1.0000
  C   C81       1.0  0.5881496180317994  0.8531162656415605  0.9633953376381682  1.0000
  C   C82       1.0  0.5959384827388303  0.7752097070546926  0.9625171252855225  1.0000
  C   C83       1.0  0.5034894179487851  0.9660090630808043  0.9650670149433367  1.0000
  C   C84       1.0  0.49402885281199355  0.033872567951597404  0.9646879976048268  1.0000
  C   C85       1.0  0.4885148098074195  0.11296462261243793  0.9640005636294191  1.0000
  C   C86       1.0  0.4139254846104734  0.14987302151872936  0.9608745338514239  1.0000
  C   C87       1.0  0.4099103944154691  0.2280236445741154  0.9600545043518451  1.0000
  C   C88       1.0  0.4802111103351335  0.2719571883698251  0.9621226071013568  1.0000
  C   C89       1.0  0.5541185277038138  0.23379864974183556  0.9648367213914428  1.0000
  C   C90       1.0  0.5592181894683604  0.15650871100437774  0.9660081930105235  1.0000
  C   C91       1.0  0.27069526001611166  0.5079291569891922  0.7737202950585527  1.0000
  C   C92       1.0  0.7292260680773808  0.5075694449156032  0.6886181263798221  1.0000
  N   N1        1.0  0.28684018134445916  0.482277803339841  0.49933410143540874  1.0000
  N   N2        1.0  0.7074625840749745  0.5112379902324451  0.5047218571027443  1.0000
  N   N3        1.0  0.7134495103295038  0.4847706531400748  0.9627642524690927  1.0000
  N   N4        1.0  0.2927810435877305  0.514116468478271  0.9573828286829738  1.0000
  Cl  Cl1       1.0  0.2886143895583757  0.36585069055703917  0.4504845130710819  1.0000
  Cl  Cl2       1.0  0.7038620776011371  0.6242253982406396  0.555976556397809  1.0000
  Cl  Cl3       1.0  0.3067148743802193  0.7381089599052901  0.5006904369481688  1.0000
  Cl  Cl4       1.0  0.6856538408744797  0.2628485493820706  0.5070695106346861  1.0000
  Cl  Cl5       1.0  0.6578121356042884  0.5515118998626962  0.08323222186243132  1.0000
  Cl  Cl6       1.0  0.34136314183440664  0.5474716105678468  0.3795183988171615  1.0000
  Cl  Cl7       1.0  0.7117209318065035  0.369039904554981  0.0115741050059555  1.0000
  Cl  Cl8       1.0  0.2960232075776261  0.6262801999426558  0.9061127388283197  1.0000
  Cl  Cl9       1.0  0.6935056956096517  0.7409690987829409  0.9599137613234916  1.0000
  Cl  Cl10      1.0  0.31456002307454156  0.2663210044823927  0.9547299592027513  1.0000
  O   O1        1.0  0.5409502757277664  0.6125045915239371  0.5093004849575138  1.0000
  O   O2        1.0  0.4093496822363676  0.6048881072265645  0.49269155418122773  1.0000
  O   O3        1.0  0.4243605470353842  0.5071496501646211  0.5620073594153824  1.0000
  O   O4        1.0  0.5591526671463142  0.48576802900551286  0.5617128737354378  1.0000
  O   O5        1.0  0.44789337627006626  0.38048759418801137  0.5107431219602319  1.0000
  O   O6        1.0  0.5780073934790336  0.3908413201625225  0.49121558582462643  1.0000
  O   O7        1.0  0.5721445235053864  0.5209575886958648  0.4397111692986115  1.0000
  O   O8        1.0  0.44357221208627345  0.4784330387444271  0.4410726036574104  1.0000
  O   O9        1.0  0.4593855154465272  0.6150935756363725  0.9526851223753141  1.0000
  O   O10       1.0  0.5911095504934066  0.6079511502546637  0.9691169878690006  1.0000
  O   O11       1.0  0.5756838134792729  0.5086044545937228  0.9002022113927312  1.0000
  O   O12       1.0  0.4409400039575217  0.4871685401544428  0.9005815990808798  1.0000
  O   O13       1.0  0.5524891955350455  0.38320544360055214  0.951687358227268  1.0000
  O   O14       1.0  0.42234404987810586  0.3939497749246712  0.9711707144495846  1.0000
  O   O15       1.0  0.4276961318464813  0.524960754259631  0.022512002711415804  1.0000
  O   O16       1.0  0.556368617326214  0.48253943868959953  0.0211080174333347  1.0000
  O   O17       1.0  0.2645752074181402  0.553861668213493  0.8068610355233048  1.0000
  O   O18       1.0  0.21087752810876023  0.4767669252550348  0.7609168245484383  1.0000
  O   O19       1.0  0.735315801386008  0.5534150778068466  0.6556483678698727  1.0000
  O   O20       1.0  0.7890431089950308  0.47631946585200086  0.7012710187078922  1.0000
