data_image0
_chemical_formula_structural       K4Li4H24C16O28
_chemical_formula_sum              "K4 Li4 H24 C16 O28"
_cell_length_a       9.580527457726765
_cell_length_b       9.696300137606357
_cell_length_c       10.328162177089435
_cell_angle_alpha    117.98980033605473
_cell_angle_beta     113.26733970913631
_cell_angle_gamma    89.99823441069141

_space_group_name_H-M_alt    "P 1"
_space_group_IT_number       1

loop_
  _space_group_symop_operation_xyz
  'x, y, z'

loop_
  _atom_site_type_symbol
  _atom_site_label
  _atom_site_symmetry_multiplicity
  _atom_site_fract_x
  _atom_site_fract_y
  _atom_site_fract_z
  _atom_site_occupancy
  K   K1        1.0  0.7498399335329892  0.9587902694592003  3.8549456128526645e-05  1.0000
  K   K2        1.0  0.25015830352271706  0.0412162530143974  0.9999627195249307  1.0000
  K   K3        1.0  0.7498544352715443  0.48170642930647745  0.9998355948267132  1.0000
  K   K4        1.0  0.2501386555919538  0.5182820941341362  0.00014715021817578958  1.0000
  Li  Li1       1.0  0.9237701132755305  0.4238677149382469  0.32842247125908136  1.0000
  Li  Li2       1.0  0.5762480518591531  0.0954625681148826  0.6716373786982501  1.0000
  Li  Li3       1.0  0.07622959286084809  0.5761352078801849  0.6715796883689364  1.0000
  Li  Li4       1.0  0.4237517205663508  0.9045355546240756  0.3283617241037433  1.0000
  H   H1        1.0  0.9199920059155957  0.750593009799303  0.7589784989285846  1.0000
  H   H2        1.0  0.5800097460375113  0.991587935050333  0.24099258423004935  1.0000
  H   H3        1.0  0.08000830147823018  0.24940751227903488  0.2410218561856396  1.0000
  H   H4        1.0  0.4199902936425488  0.008411387897155  0.7590081131076616  1.0000
  H   H5        1.0  0.11776514628456165  0.1229789321619492  0.679174953003681  1.0000
  H   H6        1.0  0.38226348763768675  0.4437290684866326  0.32080234722222667  1.0000
  H   H7        1.0  0.8822357619075164  0.877019190253968  0.3208255343559543  1.0000
  H   H8        1.0  0.6177368197561465  0.5562714535917055  0.6791980078919908  1.0000
  H   H9        1.0  0.7345124698219223  0.8562947415560345  0.5991277443210237  1.0000
  H   H10       1.0  0.7655550208577111  0.25711253750662877  0.4009417229635091  1.0000
  H   H11       1.0  0.2654878371127012  0.14370578159996944  0.4008745475524051  1.0000
  H   H12       1.0  0.2344447515677928  0.7428855852323294  0.5990573798384844  1.0000
  H   H13       1.0  0.8566115745259638  0.0464529026739129  0.5685898375851296  1.0000
  H   H14       1.0  0.6434169217890683  0.4778172193448782  0.4314397022676601  1.0000
  H   H15       1.0  0.1433896013798801  0.9535464188728541  0.43141030755101906  1.0000
  H   H16       1.0  0.3565833853751598  0.5221833032722926  0.5685616212261664  1.0000
  H   H17       1.0  0.14788472414927156  0.5061792220702229  0.2884810244916807  1.0000
  H   H18       1.0  0.3520548706258637  0.21764130907250487  0.7114999811125245  1.0000
  H   H19       1.0  0.8521164515269676  0.4938201000153768  0.711520089024063  1.0000
  H   H20       1.0  0.6479482437286492  0.78236161062145  0.28850245866999563  1.0000
  H   H21       1.0  0.0380707491754393  0.36421391709404827  0.10718230773758113  1.0000
  H   H22       1.0  0.4618891009509554  0.2569778441731997  0.8928344198659348  1.0000
  H   H23       1.0  0.9619292902750228  0.6357854063922729  0.8928193579797393  1.0000
  H   H24       1.0  0.5381123424390565  0.7430226770432569  0.10716635142632203  1.0000
  C   C1        1.0  0.8817111933499291  0.7376398670233258  0.4919980995660467  1.0000
  C   C2        1.0  0.6183014552841684  0.24552317859630796  0.508051738546378  1.0000
  C   C3        1.0  0.11828650873745516  0.26236425611088515  0.5080019171027885  1.0000
  C   C4        1.0  0.38169885210966464  0.75447734348203  0.4919486165678392  1.0000
  C   C5        1.0  0.861335169587072  0.8692119695567085  0.6377126529058402  1.0000
  C   C6        1.0  0.6387435250681932  0.2314437840319813  0.36237236362163133  1.0000
  C   C7        1.0  0.1386640015809775  0.1307885539223435  0.3622882544099468  1.0000
  C   C8        1.0  0.36125651484147175  0.768555538376667  0.6376273653364707  1.0000
  C   C9        1.0  0.9297093035625181  0.0329577703399195  0.6737465094527838  1.0000
  C   C10       1.0  0.570351444628173  0.35916194257566764  0.3263334873832591  1.0000
  C   C11       1.0  0.07028986760553117  0.9670427531391326  0.32625439786300336  1.0000
  C   C12       1.0  0.429648862765653  0.6408385795026702  0.6736668677309581  1.0000
  C   C13       1.0  0.9192145405757229  0.1675730457821842  0.8254909480585584  1.0000
  C   C14       1.0  0.5808482275586471  0.3419662260620485  0.1745588683960548  1.0000
  C   C15       1.0  0.08078663510052309  0.8324262763034156  0.17451016545719247  1.0000
  C   C16       1.0  0.4191520796055812  0.6580342965551296  0.8254424550977718  1.0000
  O   O1        1.0  0.8161390884175148  0.7330614659689588  0.3555100133486421  1.0000
  O   O2        1.0  0.6839031485366149  0.3773505001131383  0.6445794833040567  1.0000
  O   O3        1.0  0.1838628899408263  0.2669414545868776  0.6444920102558385  1.0000
  O   O4        1.0  0.3160988958812467  0.6226476209020575  0.3554204518540161  1.0000
  O   O5        1.0  0.9590563261951459  0.6378728005616238  0.5128048673271621  1.0000
  O   O6        1.0  0.5408283015513932  0.12497326544543341  0.48715641549891603  1.0000
  O   O7        1.0  0.040943112457071586  0.36212892258711793  0.4871966661447331  1.0000
  O   O8        1.0  0.45917173835827185  0.8750260569632147  0.5128433134591858  1.0000
  O   O9        1.0  0.936359364902934  0.8634644721513568  0.7842241012264425  1.0000
  O   O10       1.0  0.5636984341386295  0.0792703130389043  0.2158076636402698  1.0000
  O   O11       1.0  0.06363953855134948  0.13653485219683859  0.2157771483128315  1.0000
  O   O12       1.0  0.4363016057710354  0.9207290093697439  0.7841920653178394  1.0000
  O   O13       1.0  0.0851433634482532  0.03554325730510039  0.6925120902685009  1.0000
  O   O14       1.0  0.4149083585036096  0.34300003860296613  0.3075707940840857  1.0000
  O   O15       1.0  0.914856943715975  0.9644572653120775  0.30748923322531835  1.0000
  O   O16       1.0  0.5850916811764576  0.6569992843445219  0.6924299032536324  1.0000
  O   O17       1.0  0.043670994294664894  0.2737142559302157  0.938888365710213  1.0000
  O   O18       1.0  0.4564001762164764  0.3347774822678957  0.06117424634781792  1.0000
  O   O19       1.0  0.9563281768733846  0.7262862675488434  0.061112541605574285  1.0000
  O   O20       1.0  0.5435998636931885  0.6652218401407595  0.9388254826102909  1.0000
  O   O21       1.0  0.7881215022363932  0.16492718622240693  0.8279969623564726  1.0000
  O   O22       1.0  0.7119172717992726  0.336703260672067  0.17200865462044113  1.0000
  O   O23       1.0  0.21187826950030336  0.8350709381330575  0.17200504558434204  1.0000
  O   O24       1.0  0.28808303559455345  0.6632972614062709  0.8279917004937758  1.0000
  O   O25       1.0  0.04876983454815328  0.42201722741125275  0.22347398291939405  1.0000
  O   O26       1.0  0.45113976659924043  0.19842483688567814  0.7765273860362144  1.0000
  O   O27       1.0  0.9512313408984882  0.5779820952131873  0.7765280989759591  1.0000
  O   O28       1.0  0.5488630805007162  0.8015768825997469  0.22347345921058098  1.0000
