data_image0
_chemical_formula_structural       Zn2Si2H48C48S8N8F12
_chemical_formula_sum              "Zn2 Si2 H48 C48 S8 N8 F12"
_cell_length_a       7.715102414715011
_cell_length_b       11.478662346606466
_cell_length_c       22.403224495249944
_cell_angle_alpha    84.33516744931805
_cell_angle_beta     80.07999438632088
_cell_angle_gamma    70.35995334072784

_space_group_name_H-M_alt    "P 1"
_space_group_IT_number       1

loop_
  _space_group_symop_operation_xyz
  'x, y, z'

loop_
  _atom_site_type_symbol
  _atom_site_label
  _atom_site_symmetry_multiplicity
  _atom_site_fract_x
  _atom_site_fract_y
  _atom_site_fract_z
  _atom_site_occupancy
  Zn  Zn1       1.0  0.47336552789666797  0.25003923304862496  0.7499784424938059  1.0000
  Zn  Zn2       1.0  0.5266341734178823  0.7499607331085087  0.2500221223477085  1.0000
  Si  Si1       1.0  0.9744300916348432  0.24999289072569292  0.7500213612980249  1.0000
  Si  Si2       1.0  0.025571403309442086  0.750005223717892  0.24997835032982618  1.0000
  H   H1        1.0  0.3097713539464235  0.037094428519345995  0.7624553745259065  1.0000
  H   H2        1.0  0.10898371103115742  0.46313082856585913  0.7374214885799406  1.0000
  H   H3        1.0  0.6902272105144789  0.9629046118715506  0.2375441630354801  1.0000
  H   H4        1.0  0.8910151953517415  0.536869137653852  0.2625785526558105  1.0000
  H   H5        1.0  0.40238797437208973  0.81134829691549  0.7863046008502154  1.0000
  H   H6        1.0  5.156730993839731e-05  0.6889241687068263  0.7135680052084157  1.0000
  H   H7        1.0  0.5976126237573283  0.18865074338486917  0.21369553738446714  1.0000
  H   H8        1.0  0.9999464422580929  0.3110767233696591  0.2864324626341671  1.0000
  H   H9        1.0  0.9124045343288293  0.8339703515837656  0.8336225025480389  1.0000
  H   H10       1.0  0.5802812358046199  0.665911653818135  0.6665500422574271  1.0000
  H   H11       1.0  0.08759390983998121  0.1660314664533402  0.16637705228668412  1.0000
  H   H12       1.0  0.4197192512371473  0.3340892382024236  0.3334505797202142  1.0000
  H   H13       1.0  0.7980546953166435  0.057676322185884  0.80850443216292  1.0000
  H   H14       1.0  0.6641099422768801  0.4421842656920915  0.6915751157027545  1.0000
  H   H15       1.0  0.2019451078811229  0.9423227181770528  0.19149518246599945  1.0000
  H   H16       1.0  0.33589054476488656  0.5578166263284671  0.30842550627489373  1.0000
  H   H17       1.0  0.9905607228213071  0.49797171100566817  0.8568321608426006  1.0000
  H   H18       1.0  0.34571582160752  0.0020770859489119  0.6432247854116825  1.0000
  H   H19       1.0  0.00943942229846332  0.502028255186076  0.14316795746068325  1.0000
  H   H20       1.0  0.6542847673174562  0.9979228802774497  0.3567748863533709  1.0000
  H   H21       1.0  0.03742880193093588  0.6372248802360828  0.8336519195770153  1.0000
  H   H22       1.0  0.5087247509018057  0.8627748137701017  0.6663416314216308  1.0000
  H   H23       1.0  0.9625713431888344  0.3627750859556613  0.16634819872626855  1.0000
  H   H24       1.0  0.4912753942179648  0.13722515242164224  0.33365848688164595  1.0000
  H   H25       1.0  0.8079951838003717  0.7368918236551848  0.9287944265038708  1.0000
  H   H26       1.0  0.4736851761646149  0.7631307460294962  0.5713140623503676  1.0000
  H   H27       1.0  0.19200327877731374  0.26310814252990866  0.07120606127011092  1.0000
  H   H28       1.0  0.5263149689551553  0.23686922016224793  0.42868605595291615  1.0000
  H   H29       1.0  0.021590711295572985  0.6212868969725988  0.9430786890404622  1.0000
  H   H30       1.0  0.5859388116926352  0.8787423269823902  0.5568939544435524  1.0000
  H   H31       1.0  0.9784094338241971  0.3787130692191454  0.05692142926282172  1.0000
  H   H32       1.0  0.4140600854858291  0.1212585651633233  0.4431056203225695  1.0000
  H   H33       1.0  0.8711177684122974  0.7324061366273255  0.03014410372018262  1.0000
  H   H34       1.0  0.6336118807524611  0.7674855567513035  0.4699410202452017  1.0000
  H   H35       1.0  0.12888329193120956  0.2675910518556321  0.969856520915528  1.0000
  H   H36       1.0  0.366387820562096  0.23251440940582307  0.5300595445963128  1.0000
  H   H37       1.0  0.7774932768991866  0.7968677816020314  0.13643329571189614  1.0000
  H   H38       1.0  0.7109381613990492  0.7030556647798959  0.3636461636406524  1.0000
  H   H39       1.0  0.2225090221811923  0.203129406852959  0.8635674059913473  1.0000
  H   H40       1.0  0.28906164179871774  0.29694337558304074  0.636353450988267  1.0000
  H   H41       1.0  0.4386729011152041  0.5764005231756997  0.17645196141238276  1.0000
  H   H42       1.0  0.19170852575575031  0.9235057928087256  0.32358340798703733  1.0000
  H   H43       1.0  0.5613251176572616  0.4235994429747833  0.8235489728998362  1.0000
  H   H44       1.0  0.8082940784288796  0.07649602517910378  0.6764159315120468  1.0000
  H   H45       1.0  0.5286982429338638  0.4937996749935322  0.07345894666489275  1.0000
  H   H46       1.0  0.09596474282623288  0.0061533164873637  0.42656390117934967  1.0000
  H   H47       1.0  0.4713027155264337  0.5061984392836223  0.9265426281834126  1.0000
  H   H48       1.0  0.9040341543522316  0.9938475756583571  0.5734356735867722  1.0000
  C   C1        1.0  0.4427240387456161  0.9883483149876254  0.7781482143329871  1.0000
  C   C2        1.0  0.20899037299671616  0.5118264639591955  0.7217781454579751  1.0000
  C   C3        1.0  0.5572779000038821  0.011649799490577099  0.22185105075663364  1.0000
  C   C4        1.0  0.791008977191403  0.488173502295126  0.2782214492395455  1.0000
  C   C5        1.0  0.49518476465736644  0.8620280843341632  0.791750618618828  1.0000
  C   C6        1.0  0.1489415191547748  0.638162561485224  0.7081755677026325  1.0000
  C   C7        1.0  0.5048167302869258  0.13797003010941467  0.20824909300902314  1.0000
  C   C8        1.0  0.8510581729553407  0.3618383305979123  0.29182453066925274  1.0000
  C   C9        1.0  0.6681255165076505  0.800672539315407  0.8115576511723293  1.0000
  C   C10       1.0  0.28050939788865037  0.6994074562618806  0.6884612479738977  1.0000
  C   C11       1.0  0.3318755162225527  0.1993274269455725  0.18844157405449385  1.0000
  C   C12       1.0  0.7194898412118105  0.3005943617126476  0.3115388304665886  1.0000
  C   C13       1.0  0.7770614530377601  0.8735684542106196  0.8184893177652343  1.0000
  C   C14       1.0  0.4692630102326802  0.6264074886977864  0.6815968651145143  1.0000
  C   C15       1.0  0.2229395796924364  0.1264315120503596  0.1815099074615817  1.0000
  C   C16       1.0  0.5307366818774355  0.3735934033853495  0.3184032332573708  1.0000
  C   C17       1.0  0.7133973561255046  0.00019105081882030004  0.804286498388045  1.0000
  C   C18       1.0  0.5177835443274791  0.4997817301539411  0.6957593591849831  1.0000
  C   C19       1.0  0.28660323279947153  0.9998089154075415  0.1957131733770084  1.0000
  C   C20       1.0  0.48221604589942035  0.5002200877233919  0.3042416893994969  1.0000
  C   C21       1.0  0.9330620626998252  0.5991259250740554  0.85975429708126  1.0000
  C   C22       1.0  0.39223402439230154  0.9009246233119796  0.6402951573244665  1.0000
  C   C23       1.0  0.06693886814715468  0.40087496698112085  0.14024587835815797  1.0000
  C   C24       1.0  0.6077648819905903  0.0990753429077316  0.35970488391129163  1.0000
  C   C25       1.0  0.8906630603332032  0.6383658256473481  0.9252558688387541  1.0000
  C   C26       1.0  0.45429725417766026  0.8616695802733361  0.5747892829554788  1.0000
  C   C27       1.0  0.10933664098135408  0.3616341405097855  0.07474469600276022  1.0000
  C   C28       1.0  0.5457011991955836  0.1383313118377671  0.4252107383488736  1.0000
  C   C29       1.0  0.7067325090603445  0.6071914850374397  0.04210864387300012  1.0000
  C   C30       1.0  0.3559812923277335  0.8926900081708027  0.45795865344591413  1.0000
  C   C31       1.0  0.2932655005076865  0.3928094070390457  0.9578918239695825  1.0000
  C   C32       1.0  0.6440180578603784  0.10730995808351909  0.5420409412516066  1.0000
  C   C33       1.0  0.7753048399320194  0.6946900000383138  0.06056274452247831  1.0000
  C   C34       1.0  0.5305362904124422  0.8052216859457602  0.43950556402967333  1.0000
  C   C35       1.0  0.22469700613870455  0.3053081143080688  0.9394379372493591  1.0000
  C   C36       1.0  0.4694609242239309  0.1947792061933099  0.5604943802071463  1.0000
  C   C37       1.0  0.7219757746948546  0.732191845435544  0.12002656736155613  1.0000
  C   C38       1.0  0.5742928630096313  0.7677283341000276  0.3800356342780376  1.0000
  C   C39       1.0  0.27802267867839  0.2678090466755592  0.8799734539427961  1.0000
  C   C40       1.0  0.4257055903636128  0.23227255801106847  0.6199643870263147  1.0000
  C   C41       1.0  0.5379163250334428  0.6059598631014467  0.14305271822885154  1.0000
  C   C42       1.0  0.2869946815892844  0.8939246808082971  0.3570056377873315  1.0000
  C   C43       1.0  0.46208630676449747  0.39403917710836106  0.8569480206791272  1.0000
  C   C44       1.0  0.7130054451216093  0.10607713723545942  0.6429935475766869  1.0000
  C   C45       1.0  0.5868908214070457  0.5614147538376811  0.08521154185688573  1.0000
  C   C46       1.0  0.2335260853055062  0.9385059757637889  0.4148344834463203  1.0000
  C   C47       1.0  0.413110238936461  0.4385824346452836  0.9147890827788249  1.0000
  C   C48       1.0  0.7664732648826057  0.0614939904905398  0.5851651112512004  1.0000
  S   S1        1.0  0.731949476580496  0.639859698277533  0.8210660651308218  1.0000
  S   S2        1.0  0.19316845125815985  0.8602512350760988  0.6790537509384224  1.0000
  S   S3        1.0  0.26805110314005287  0.3601411938748313  0.17893314016460246  1.0000
  S   S4        1.0  0.8068312408519488  0.13974965700703726  0.32094634743346273  1.0000
  S   S5        1.0  0.760796002464801  0.5466847744764537  0.9703438565509759  1.0000
  S   S6        1.0  0.2776993902060381  0.9532353884843727  0.5297224077814706  1.0000
  S   S7        1.0  0.23920504867427178  0.45331333993251377  0.02965630161509841  1.0000
  S   S8        1.0  0.7222982774399894  0.046764577763305185  0.4702775563867549  1.0000
  N   N1        1.0  0.5501104750359789  0.05737170984314588  0.7836607219708259  1.0000
  N   N2        1.0  0.3908794643810649  0.4427059253438799  0.7163069133871148  1.0000
  N   N3        1.0  0.4498897627625664  0.9426282564804113  0.21633797965023405  1.0000
  N   N4        1.0  0.6091214756703566  0.5572940407852868  0.2836937285219322  1.0000
  N   N5        1.0  0.6045610370522283  0.6896577540279978  0.16056071299572497  1.0000
  N   N6        1.0  0.4549118547204074  0.8102469417877884  0.3394919735721517  1.0000
  N   N7        1.0  0.3954386642623221  0.3103422121291358  0.8394398518457891  1.0000
  N   N8        1.0  0.545088281194921  0.18975395032996545  0.660507678261496  1.0000
  F   F1        1.0  0.7483227473364593  0.2501105626313205  0.7499340688966641  1.0000
  F   F2        1.0  0.2516765009684363  0.7498903294172051  0.25006647601345133  1.0000
  F   F3        1.0  0.9568682853051627  0.3503655264558246  0.6882607211735988  1.0000
  F   F4        1.0  0.9949584723393771  0.14961557593667146  0.8117825544585104  1.0000
  F   F5        1.0  0.0431296223796522  0.6496362914148577  0.3117406968815786  1.0000
  F   F6        1.0  0.005041330858382928  0.850383464426258  0.18821706017040907  1.0000
  F   F7        1.0  0.8915131130207213  0.37205168072879485  0.796656666055654  1.0000
  F   F8        1.0  0.06017941157686806  0.12792392144167763  0.7033860768367648  1.0000
  F   F9        1.0  0.10848828004034769  0.6279473595089797  0.2033439957847848  1.0000
  F   F10       1.0  0.93981825606916  0.8720760448059932  0.29661388733146066  1.0000
  F   F11       1.0  0.20073946884892224  0.24988175022920694  0.7500997516338119  1.0000
  F   F12       1.0  0.7992586518067599  0.7501172901270791  0.24990023246581225  1.0000
