data_image0
_chemical_formula_structural       Sr4H56C16N32O20
_chemical_formula_sum              "Sr4 H56 C16 N32 O20"
_cell_length_a       7.186113784001334
_cell_length_b       11.319833382000896
_cell_length_c       13.82901494800213
_cell_angle_alpha    90.00002577649998
_cell_angle_beta     90.00005829785916
_cell_angle_gamma    90.00003793252516

_space_group_name_H-M_alt    "P 1"
_space_group_IT_number       1

loop_
  _space_group_symop_operation_xyz
  'x, y, z'

loop_
  _atom_site_type_symbol
  _atom_site_label
  _atom_site_symmetry_multiplicity
  _atom_site_fract_x
  _atom_site_fract_y
  _atom_site_fract_z
  _atom_site_occupancy
  Sr  Sr1       1.0  0.4999999658960448  0.5810750890129484  0.6392995700226152  1.0000
  Sr  Sr2       1.0  0.4999996099532282  0.4189259825575319  0.36070052109024436  1.0000
  Sr  Sr3       1.0  6.116979278999998e-07  0.9189252246946538  0.1393000400356641  1.0000
  Sr  Sr4       1.0  8.822943726999999e-07  0.08107475180703719  0.8606997859827104  1.0000
  H   H1        1.0  0.6201861349103268  0.4702422854991467  0.9098380120543509  1.0000
  H   H2        1.0  0.620181190731685  0.5297544199235701  0.09016648148177349  1.0000
  H   H3        1.0  0.8798139267111651  0.029756037364947495  0.4098349247830839  1.0000
  H   H4        1.0  0.8798131980571993  0.9702443115858796  0.5901646445856629  1.0000
  H   H5        1.0  0.3798176156600519  0.5297534856424304  0.090167863997074  1.0000
  H   H6        1.0  0.37981281882861134  0.4702422346207769  0.9098379483326298  1.0000
  H   H7        1.0  0.12018704070967347  0.9702441508003969  0.5901644432126858  1.0000
  H   H8        1.0  0.1201863777909082  0.029755876579173394  0.4098347234097375  1.0000
  H   H9        1.0  0.6200649698114518  0.923363702074212  0.5689316737260839  1.0000
  H   H10       1.0  0.6200657884639539  0.0766374203233866  0.43106848104431345  1.0000
  H   H11       1.0  0.8799349438052387  0.5766367845563564  0.0689300499881256  1.0000
  H   H12       1.0  0.8799343146152339  0.4233609142294411  0.9310673500924054  1.0000
  H   H13       1.0  0.3799346060378284  0.0766373694962681  0.4310684173867756  1.0000
  H   H14       1.0  0.3799351789573464  0.9233636512471861  0.5689308869516125  1.0000
  H   H15       1.0  0.12006463203938719  0.4233607533924086  0.9310671486548756  1.0000
  H   H16       1.0  0.12006665280212299  0.5766366237196151  0.0689298485509653  1.0000
  H   H17       1.0  0.8475411966952605  0.5395454379515813  0.7794998066850383  1.0000
  H   H18       1.0  0.8475406099862183  0.46045578074256327  0.2204997455732354  1.0000
  H   H19       1.0  0.6524591280905058  0.9604551646054632  0.2795003727977914  1.0000
  H   H20       1.0  0.6524590819266719  0.0395450880998709  0.7204990760299665  1.0000
  H   H21       1.0  0.1524597707260398  0.4604556336189915  0.2204995613108878  1.0000
  H   H22       1.0  0.1524589658630546  0.5395452908279167  0.7795003455396312  1.0000
  H   H23       1.0  0.34754044775830545  0.039545023559782094  0.7204997183149118  1.0000
  H   H24       1.0  0.3475418854948771  0.9604551000656724  0.2795010150831061  1.0000
  H   H25       1.0  0.8357391543314064  0.4165312431373848  0.7279465790221025  1.0000
  H   H26       1.0  0.8357387956485596  0.5834690871556346  0.2720536900960511  1.0000
  H   H27       1.0  0.664260552122492  0.0834687463996886  0.2279462896822295  1.0000
  H   H28       1.0  0.6642601230232542  0.9165306278962073  0.7720531654022551  1.0000
  H   H29       1.0  0.16426181309014248  0.5834689450281585  0.2720535120909631  1.0000
  H   H30       1.0  0.1642607802002516  0.41653110100961044  0.7279464010166521  1.0000
  H   H31       1.0  0.3357390237263259  0.9165314417655565  0.7720538014304666  1.0000
  H   H32       1.0  0.3357394528255639  0.0834695602690374  0.2279469257104481  1.0000
  H   H33       1.0  0.1571123086022581  0.751108424021183  0.5889907933369685  1.0000
  H   H34       1.0  0.157110483280789  0.24889250239485955  0.41100839286270485  1.0000
  H   H35       1.0  0.3428881707566021  0.7488927453947551  0.0889913826357827  1.0000
  H   H36       1.0  0.34288732405666866  0.2511091430710337  0.9110086251780629  1.0000
  H   H37       1.0  0.8428886588190423  0.24889264754938975  0.4110085746589577  1.0000
  H   H38       1.0  0.8428877009950427  0.7511085691751233  0.5889909751324893  1.0000
  H   H39       1.0  0.6571114050931328  0.25110920958094596  0.9110087084772474  1.0000
  H   H40       1.0  0.6571122517926042  0.7488919284994465  0.08899146593480371  1.0000
  H   H41       1.0  0.1591204588044234  0.7520386812411816  0.7019308700958361  1.0000
  H   H42       1.0  0.1591198035595767  0.24796224602521727  0.29806831716884835  1.0000
  H   H43       1.0  0.3408788495147234  0.7479625503523265  0.2019314579876479  1.0000
  H   H44       1.0  0.34087917481784297  0.25203845385807705  0.798069271878326  1.0000
  H   H45       1.0  0.8408791170441459  0.24796239032909279  0.2980684978997274  1.0000
  H   H46       1.0  0.8408797722889858  0.752038825545064  0.7019310508267083  1.0000
  H   H47       1.0  0.6591207263345567  0.2520385212181466  0.7980686331252117  1.0000
  H   H48       1.0  0.6591204010309751  0.747961734307168  0.20193081923437722  1.0000
  H   H49       1.0  0.17855205695683907  0.5598149448238559  0.47251247483585257  1.0000
  H   H50       1.0  0.17855204870268443  0.44018599066881586  0.5274874458487417  1.0000
  H   H51       1.0  0.32144777971457467  0.9401864357351781  0.9725127652947166  1.0000
  H   H52       1.0  0.321447792895448  0.05981367684422171  0.0274879542688566  1.0000
  H   H53       1.0  0.8214489104651647  0.44018612674691576  0.5274876162773836  1.0000
  H   H54       1.0  0.8214475271454234  0.5598141974962373  0.47251192214665855  1.0000
  H   H55       1.0  0.6785517961349469  0.05981375243027291  0.0274880489352896  1.0000
  H   H56       1.0  0.6785517829529083  0.9401856279157954  0.9725121368436831  1.0000
  C   C1        1.0  0.4999988778445683  0.6391643603421924  0.9193802671816798  1.0000
  C   C2        1.0  0.50000069800641  0.36083317760836314  0.0806234395170549  1.0000
  C   C3        1.0  8.550748872999998e-07  0.8608334573442418  0.41937926960449096  1.0000
  C   C4        1.0  6.389167168999998e-07  0.1391665191572429  0.5806198332965806  1.0000
  C   C5        1.0  0.5000002288608982  0.5115326302793974  0.9455129799543516  1.0000
  C   C6        1.0  0.4999993469915295  0.48846225745626976  0.0544936192131047  1.0000
  C   C7        1.0  9.466545662999996e-07  0.9884652017930192  0.44550696747732127  1.0000
  C   C8        1.0  5.473351621e-07  0.011533891302846695  0.5544906891889738  1.0000
  C   C9        1.0  0.49999991332521887  0.8421636846770894  0.4470205576481661  1.0000
  C   C10       1.0  0.5000010540963372  0.1578365034884541  0.5529795334649066  1.0000
  C   C11       1.0  0.9999993469952243  0.6578361267003883  0.9470186696205047  1.0000
  C   C12       1.0  2.2884985639999998e-07  0.34216229465361175  0.052978529022659905  1.0000
  C   C13       1.0  0.5000000351282806  0.9376562767051198  0.5211451606366708  1.0000
  C   C14       1.0  0.5000009322921102  0.062343028054996794  0.4788542073589355  1.0000
  C   C15       1.0  3.117498010999999e-07  0.5623448553587238  0.0211440533242069  1.0000
  C   C16       1.0  0.9999992640976032  0.43765533280613056  0.9788545915538907  1.0000
  N   N1        1.0  0.4999998729054197  0.7254499582830573  0.4675042800520188  1.0000
  N   N2        1.0  0.5000010945161293  0.274550229882486  0.5324958110610538  1.0000
  N   N3        1.0  0.9999994274134136  0.7745498643717141  0.9675031580494959  1.0000
  N   N4        1.0  0.9999996218627771  0.22544965205176476  0.0324957519231432  1.0000
  N   N5        1.0  0.4999997603502635  0.6703113138290816  0.3814554801456325  1.0000
  N   N6        1.0  0.49999981549971295  0.3296897577415975  0.618545334084537  1.0000
  N   N7        1.0  0.9999993719458686  0.8296902282629687  0.8814543784142188  1.0000
  N   N8        1.0  2.0390199039999994e-07  0.1703108433071137  0.1185442664640419  1.0000
  N   N9        1.0  0.4999997329962297  0.7494096319579668  0.31149895738751354  1.0000
  N   N10       1.0  0.4999998428530431  0.2505914396125135  0.6885011337253529  1.0000
  N   N11       1.0  0.9999992626996245  0.7505918716205076  0.8114985496942281  1.0000
  N   N12       1.0  3.1314894499999995e-07  0.24940919994976699  0.18850081830132842  1.0000
  N   N13       1.0  0.4999998279368326  0.858870617853029  0.35070350523772487  1.0000
  N   N14       1.0  0.49999974791173685  0.14113045371724547  0.6492958627578389  1.0000
  N   N15       1.0  1.1624549713999998e-06  0.6411298122402583  0.850702792208466  1.0000
  N   N16       1.0  3.3153592230000006e-07  0.3588701642610347  0.1492955875752955  1.0000
  N   N17       1.0  0.49999898668610837  0.728919232591494  0.9832713130356083  1.0000
  N   N18       1.0  0.5000005891629584  0.2710800721687291  0.0167295011942414  1.0000
  N   N19       1.0  8.709933112999998e-07  0.7710786202702166  0.48327317493077265  1.0000
  N   N20       1.0  6.229982858000001e-07  0.22892135623127527  0.5167259279702919  1.0000
  N   N21       1.0  0.5000003775983686  0.8284701531212733  0.929811269083352  1.0000
  N   N22       1.0  0.5000005898225196  0.171527384828785  0.0701895451465333  1.0000
  N   N23       1.0  0.9999988491195779  0.6715287653770972  0.4298111901225142  1.0000
  N   N24       1.0  7.267289916999998e-07  0.3284723061931842  0.5701881778730495  1.0000
  N   N25       1.0  0.500000272221854  0.7997241214579915  0.8371213647125302  1.0000
  N   N26       1.0  0.5000006951992759  0.20027253308703047  0.1628801726345017  1.0000
  N   N27       1.0  6.916490775999998e-07  0.7002763011579062  0.33712103122566367  1.0000
  N   N28       1.0  8.023436776999997e-07  0.2997245587490056  0.6628787947928672  1.0000
  N   N29       1.0  0.49999881066231916  0.6817179650661771  0.8280064494093794  1.0000
  N   N30       1.0  0.5000007651849216  0.31827780607312656  0.1719943648198168  1.0000
  N   N31       1.0  7.438381430999998e-07  0.8182806857212696  0.3280076055401366  1.0000
  N   N32       1.0  7.501539159e-07  0.18172017418545036  0.6719914973610913  1.0000
  O   O1        1.0  0.7613415536018664  0.48659675083235493  0.7443743510810066  1.0000
  O   O2        1.0  0.7613410903007248  0.513404431371292  0.2556258785924399  1.0000
  O   O3        1.0  0.7386581849309835  0.013404131154274499  0.24437479854506713  1.0000
  O   O4        1.0  0.7386591878657852  0.986596158041749  0.755624695984821  1.0000
  O   O5        1.0  0.2386594138201374  0.5134043207384167  0.2556257400322224  1.0000
  O   O6        1.0  0.2386584855485481  0.48659664019918825  0.7443742125204267  1.0000
  O   O7        1.0  0.26134139091900005  0.9865969404163974  0.7556260156851023  1.0000
  O   O8        1.0  0.2613417795550603  0.013404030123595598  0.24437467201094887  1.0000
  O   O9        1.0  0.24008627324860038  0.7395022791539386  0.6451813663894725  1.0000
  O   O10       1.0  0.2400843502225882  0.26049868238727913  0.3548178638021184  1.0000
  O   O11       1.0  0.2599129242575913  0.7604989211965716  0.1451811928455129  1.0000
  O   O12       1.0  0.25991473896591794  0.23950116533338664  0.8548180478587923  1.0000
  O   O13       1.0  0.7599146941726999  0.2604987924166338  0.3548180016064606  1.0000
  O   O14       1.0  0.7599138340532434  0.7395023891827037  0.6451815041930757  1.0000
  O   O15       1.0  0.7400852600177854  0.23950126696818325  0.8548181751495179  1.0000
  O   O16       1.0  0.7400876200272037  0.7604981394270283  0.1451813201371834  1.0000
  O   O17       1.0  0.2640502815616372  0.5000004858431311  0.4999996214487865  1.0000
  O   O18       1.0  0.2359495063626511  4.994200959999999e-08  6.254899890000001e-08  1.0000
  O   O19       1.0  0.7359506858596631  0.5000005857274414  0.49999974654714663  1.0000
  O   O20       1.0  0.7640495518203778  4.3699053259999994e-07  0.9999991216298981  1.0000
