data_image0
_chemical_formula_structural       Zn2H32C38N2O12
_chemical_formula_sum              "Zn2 H32 C38 N2 O12"
_cell_length_a       10.898806665770067
_cell_length_b       16.38109541041212
_cell_length_c       17.85401886460024
_cell_angle_alpha    84.81608984617297
_cell_angle_beta     86.87706594827952
_cell_angle_gamma    87.86407073112638

_space_group_name_H-M_alt    "P 1"
_space_group_IT_number       1

loop_
  _space_group_symop_operation_xyz
  'x, y, z'

loop_
  _atom_site_type_symbol
  _atom_site_label
  _atom_site_symmetry_multiplicity
  _atom_site_fract_x
  _atom_site_fract_y
  _atom_site_fract_z
  _atom_site_occupancy
  Zn  Zn1       1.0  0.49630912625061546  0.5849790605090632  0.4963418378150949  1.0000
  Zn  Zn2       1.0  0.5049151990579334  0.41535984687989463  0.50229302240934  1.0000
  H   H1        1.0  0.3793597144664743  0.2871527986962406  0.42938600579370967  1.0000
  H   H2        1.0  0.3821160535992547  0.1358513663458965  0.43111981331886545  1.0000
  H   H3        1.0  0.6638472570418872  0.131741631639116  0.5956237889288332  1.0000
  H   H4        1.0  0.6470778374735959  0.28056474273855503  0.5850328553186088  1.0000
  H   H5        1.0  0.3362351329174658  0.8684019442223203  0.40439912997955935  1.0000
  H   H6        1.0  0.6176989200548136  0.8642990980243608  0.5690863939147874  1.0000
  H   H7        1.0  0.6211737424268335  0.7129905709830877  0.5703906258227391  1.0000
  H   H8        1.0  0.35353385380723534  0.7195583637086215  0.4147233587296952  1.0000
  H   H9        1.0  0.5067231581011314  0.3825671086026858  0.2616781278355873  1.0000
  H   H10       1.0  0.5065767702369329  0.3892884647051531  0.1233839928533058  1.0000
  H   H11       1.0  0.49085686667075396  0.6552459702701725  0.11805992966476  1.0000
  H   H12       1.0  0.49131816920822774  0.6446058653811804  0.2535993268154257  1.0000
  H   H13       1.0  0.5091355910223501  0.3449758042264079  0.8813606063489772  1.0000
  H   H14       1.0  0.49338773008146564  0.6109152987396625  0.8756048601548728  1.0000
  H   H15       1.0  0.4934716178377628  0.6174502034123603  0.7373748995993951  1.0000
  H   H16       1.0  0.5089314842898532  0.35532704709532936  0.7459176960210457  1.0000
  H   H17       1.0  0.12515310396706522  0.4853084548550368  0.38377883041042793  1.0000
  H   H18       1.0  0.11588732815259557  0.5881392193654095  0.4066780164150927  1.0000
  H   H19       1.0  0.9013294528479606  0.5876798709562931  0.4014463384601897  1.0000
  H   H20       1.0  0.9116467673434843  0.4843001938474032  0.38003454372360324  1.0000
  H   H21       1.0  0.8817315941994581  0.6210574124244914  0.5367730255074363  1.0000
  H   H22       1.0  0.8750136262705794  0.5420423931801962  0.6106720842928439  1.0000
  H   H23       1.0  0.09677227778484374  0.619824984442033  0.5428224402462121  1.0000
  H   H24       1.0  0.08872044701021763  0.5395190789208754  0.6154097975808385  1.0000
  H   H25       1.0  0.11669859553689578  0.36959487821607684  0.4887532169374538  1.0000
  H   H26       1.0  0.10215536238633403  0.3920451611506977  0.5832695000326993  1.0000
  H   H27       1.0  0.8877126541413888  0.3924940053784737  0.578993568011974  1.0000
  H   H28       1.0  0.9022997595187335  0.370499893077671  0.484238496480728  1.0000
  H   H29       1.0  0.6558221322459661  0.031903404849281  0.5918638565224086  1.0000
  H   H30       1.0  0.3441993678186608  0.9682046306765739  0.40819981558669843  1.0000
  H   H31       1.0  0.49121387578914993  0.6473522511748796  0.029833274614368615  1.0000
  H   H32       1.0  0.508827897872628  0.3529019650914833  0.9694827249205248  1.0000
  C   C1        1.0  0.49851357745282604  0.5080348823879886  0.3510694009047839  1.0000
  C   C2        1.0  0.26023514523338065  0.5002315006072634  0.5043330682570473  1.0000
  C   C3        1.0  0.5022897142631919  0.4909961075726486  0.6479589347141186  1.0000
  C   C4        1.0  0.7406861732854181  0.501465415628381  0.4956109553600784  1.0000
  C   C5        1.0  0.4407132354319857  0.24898347443710378  0.46515937508798555  1.0000
  C   C6        1.0  0.44274009703687517  0.16413687662793555  0.46648404510077773  1.0000
  C   C7        1.0  0.5229420330686878  0.1159476133975375  0.5134716104458407  1.0000
  C   C8        1.0  0.5974457739834663  0.1604731405245019  0.5568283983419207  1.0000
  C   C9        1.0  0.5900373197008835  0.24548872042213793  0.5521151890051073  1.0000
  C   C10       1.0  0.5327430561316505  0.026049672065099092  0.5193561905778736  1.0000
  C   C11       1.0  0.4671790453294448  0.974095211943137  0.4807697621621827  1.0000
  C   C12       1.0  0.4027085267139229  0.8396875714946146  0.4431482264843609  1.0000
  C   C13       1.0  0.47707192261639625  0.8842009117083689  0.48661021467376026  1.0000
  C   C14       1.0  0.5572875094701145  0.8360147100173165  0.5335926077573208  1.0000
  C   C15       1.0  0.5596996106900961  0.7511777476726775  0.5347042014183785  1.0000
  C   C16       1.0  0.4104475659475427  0.754689009341426  0.4476735765796604  1.0000
  C   C17       1.0  0.4983662250669101  0.5129408308962055  0.2669631840956015  1.0000
  C   C18       1.0  0.5028429067361132  0.4418490079418902  0.2287039306934844  1.0000
  C   C19       1.0  0.5028719856914208  0.44577624492038836  0.15067392377321906  1.0000
  C   C20       1.0  0.4984203027387368  0.5220158167710736  0.106325342094145  1.0000
  C   C21       1.0  0.49413879713740994  0.5931232838560944  0.1463839319709308  1.0000
  C   C22       1.0  0.49416515733047833  0.588907769057144  0.22439248640949933  1.0000
  C   C23       1.0  0.49811609371040794  0.5309857868896444  0.023715530591587698  1.0000
  C   C24       1.0  0.5018609136661  0.46931992511571247  0.9755377605899511  1.0000
  C   C25       1.0  0.5059040248203389  0.40706900701984233  0.8529685567958794  1.0000
  C   C26       1.0  0.5015951153182528  0.47823714201243206  0.892924392999774  1.0000
  C   C27       1.0  0.4971647449122545  0.5543735691645819  0.848379283555964  1.0000
  C   C28       1.0  0.49730361052848343  0.5581425370501805  0.7703191798049218  1.0000
  C   C29       1.0  0.5019049545739237  0.4869568968820345  0.7321360061618805  1.0000
  C   C30       1.0  0.5059928957160623  0.41112504481726836  0.7749667985834208  1.0000
  C   C31       1.0  0.08097103105379236  0.5266704107587188  0.423196533816423  1.0000
  C   C32       1.0  0.938882141752437  0.5265185171545212  0.42026295841906597  1.0000
  C   C33       1.0  0.8805973081967764  0.49955372614461874  0.49910413480662197  1.0000
  C   C34       1.0  0.9187204353214825  0.5595688314858408  0.5547902971098112  1.0000
  C   C35       1.0  0.06037454356921763  0.5586231520759949  0.5580717047898035  1.0000
  C   C36       1.0  0.12013389605625953  0.49885070481257543  0.503824887983825  1.0000
  C   C37       1.0  0.07254048902197503  0.4125070281857646  0.5265338255042735  1.0000
  C   C38       1.0  0.9309569244180977  0.4129334616011632  0.5237073186770402  1.0000
  N   N1        1.0  0.5127583236522  0.2894785211385269  0.5069941792492259  1.0000
  N   N2        1.0  0.48793120696820597  0.7107322253223671  0.4926665518851435  1.0000
  O   O1        1.0  0.4951925363497482  0.5757846224136712  0.38135729673835084  1.0000
  O   O2        1.0  0.5019832164466111  0.43659320492621834  0.3857846499272171  1.0000
  O   O3        1.0  0.3189171792298852  0.43142235656920747  0.5071318953898682  1.0000
  O   O4        1.0  0.30877122515818206  0.5701275341751781  0.5007211473874449  1.0000
  O   O5        1.0  0.5062931388313745  0.42294239023821223  0.6183096869688214  1.0000
  O   O6        1.0  0.49868318929649286  0.5621540320230166  0.6124444272850482  1.0000
  O   O7        1.0  0.6852697633934357  0.5714550555781058  0.49128139834574813  1.0000
  O   O8        1.0  0.6890790869599783  0.4328058099316934  0.4970863665062666  1.0000
  O   O9        1.0  0.6158266450242851  0.9895810027508744  0.5681593268681199  1.0000
  O   O10       1.0  0.3841030315763589  0.0105423987695517  0.4319379273645794  1.0000
  O   O11       1.0  0.4936510479596309  0.6102899035114788  0.990177625718367  1.0000
  O   O12       1.0  0.5063639659739894  0.3900072283212523  0.009099248994381502  1.0000
