data_image0
_chemical_formula_structural       Ag2H24C14S2N2O6
_chemical_formula_sum              "Ag2 H24 C14 S2 N2 O6"
_cell_length_a       4.764903732799471
_cell_length_b       8.370455268509804
_cell_length_c       13.872353176245596
_cell_angle_alpha    83.91914230467003
_cell_angle_beta     80.11611226336159
_cell_angle_gamma    73.53217445934357

_space_group_name_H-M_alt    "P 1"
_space_group_IT_number       1

loop_
  _space_group_symop_operation_xyz
  'x, y, z'

loop_
  _atom_site_type_symbol
  _atom_site_label
  _atom_site_symmetry_multiplicity
  _atom_site_fract_x
  _atom_site_fract_y
  _atom_site_fract_z
  _atom_site_occupancy
  Ag  Ag1       1.0  0.1173717090720956  0.6413612572490026  0.4316357882813762  1.0000
  Ag  Ag2       1.0  0.18676908966781297  0.35778294480243733  0.5688306504829227  1.0000
  H   H1        1.0  0.7337566299400536  0.2372598278330571  0.3087757136849518  1.0000
  H   H2        1.0  0.2832090777266958  0.7614638073299529  0.6916052870321607  1.0000
  H   H3        1.0  0.9620063688784268  0.9811209497487425  0.3962881419162372  1.0000
  H   H4        1.0  0.33970712024711963  0.0183233031339682  0.6035612876463006  1.0000
  H   H5        1.0  0.01605540837795849  0.9461746403088327  0.2694948224964548  1.0000
  H   H6        1.0  0.23340380428981428  0.0531230888711818  0.7302904274585272  1.0000
  H   H7        1.0  0.47004863291832066  0.9885275148440796  0.39072170624151437  1.0000
  H   H8        1.0  0.8481803327574152  0.014132459482546298  0.6077968082589109  1.0000
  H   H9        1.0  0.5395796471294431  0.9910830563756008  0.26015726177961085  1.0000
  H   H10       1.0  0.7935764418620935  0.009686075026749596  0.7383903778728252  1.0000
  H   H11       1.0  0.3353709427547855  0.7369862290459819  0.1896981375645126  1.0000
  H   H12       1.0  0.26986891829977805  0.25484741395504784  0.8116426874340734  1.0000
  H   H13       1.0  0.5605475737101173  0.5347193384979789  0.21906798238976682  1.0000
  H   H14       1.0  0.2981816408556811  0.4622165610857182  0.7817031996974961  1.0000
  H   H15       1.0  0.7317752671249095  0.6959786024186345  0.16507411989842075  1.0000
  H   H16       1.0  0.5898523681069252  0.30974436086664536  0.8348238562582607  1.0000
  H   H17       1.0  0.07843172607253736  0.18635600230039268  0.9734887273567239  1.0000
  H   H18       1.0  0.24575999297477574  0.8157994990405085  0.02608963379501014  1.0000
  H   H19       1.0  0.31532841047845045  0.2815737691859539  0.020941326048181032  1.0000
  H   H20       1.0  0.6234285128872016  0.7181723883815819  0.9785069111634427  1.0000
  H   H21       1.0  0.9584960946710837  0.40222978170932316  0.9935530961461368  1.0000
  H   H22       1.0  0.3563993625744004  0.5993919141752073  0.007305849531015047  1.0000
  H   H23       1.0  0.2940923807818621  0.2571685571140847  0.18217470748851383  1.0000
  H   H24       1.0  0.7367973927746407  0.7440512908718375  0.8175705065670157  1.0000
  C   C1        1.0  0.07263285194515844  0.295729057020381  0.369819123720788  1.0000
  C   C2        1.0  0.740952896013994  0.7043935132352033  0.6303651260916752  1.0000
  C   C3        1.0  0.9774214337736139  0.19889101483689592  0.29886709162126124  1.0000
  C   C4        1.0  0.47789310660792206  0.8009290980039483  0.7011838471282914  1.0000
  C   C5        1.0  0.08045365277128266  0.00961104588756  0.3241459372931886  1.0000
  C   C6        1.0  0.4154904291862918  0.9900830542956598  0.6755149356366913  1.0000
  C   C7        1.0  0.41211922926333244  0.9467985762938512  0.3261644757582475  1.0000
  C   C8        1.0  0.6854627713822552  0.0542399620308345  0.6729210896333555  1.0000
  C   C9        1.0  0.5444307367751264  0.6682874840130139  0.21508803968099244  1.0000
  C   C10       1.0  0.4243398134542246  0.33069120098358706  0.7855176205437288  1.0000
  C   C11       1.0  0.9373911155537373  0.24055311571061813  0.12343695432166166  1.0000
  C   C12       1.0  0.30554087337928576  0.7591499128009646  0.876668659336744  1.0000
  C   C13       1.0  0.08539782591657993  0.28028882821010376  0.02192658045058951  1.0000
  C   C14       1.0  0.3924309418343269  0.7204825732644552  0.9780981283529754  1.0000
  S   S1        1.0  0.5483264444425444  0.7209961699851206  0.3376585232752092  1.0000
  S   S2        1.0  0.6037373430502341  0.2803896577022797  0.6625894175987952  1.0000
  N   N1        1.0  0.08488157312984872  0.24088440308581482  0.1977094348914576  1.0000
  N   N2        1.0  0.5266608365658735  0.7601470048758117  0.8023005357846175  1.0000
  O   O1        1.0  0.21387388000403723  0.4007469090226293  0.3349234431645485  1.0000
  O   O2        1.0  0.951682905111923  0.5994541628513232  0.6654318659548083  1.0000
  O   O3        1.0  0.9993186486792067  0.2576319969702682  0.46033306061141843  1.0000
  O   O4        1.0  0.7206684356642158  0.7423402442779192  0.5398525918621785  1.0000
  O   O5        1.0  0.6901194218243417  0.21018079916028404  0.13550565525054034  1.0000
  O   O6        1.0  0.04022573247988248  0.7878311329875487  0.8647855595340203  1.0000
