data_image0
_chemical_formula_structural       Ni2H44C44N8O12
_chemical_formula_sum              "Ni2 H44 C44 N8 O12"
_cell_length_a       8.523515126102836
_cell_length_b       10.911169862441623
_cell_length_c       11.313172106142208
_cell_angle_alpha    93.28197427418942
_cell_angle_beta     90.00049513647376
_cell_angle_gamma    90.00022891566147

_space_group_name_H-M_alt    "P 1"
_space_group_IT_number       1

loop_
  _space_group_symop_operation_xyz
  'x, y, z'

loop_
  _atom_site_type_symbol
  _atom_site_label
  _atom_site_symmetry_multiplicity
  _atom_site_fract_x
  _atom_site_fract_y
  _atom_site_fract_z
  _atom_site_occupancy
  Ni  Ni1       1.0  0.7425911708025126  0.4984210148870005  0.7482797767943054  1.0000
  Ni  Ni2       1.0  0.24258925263707454  0.5015789638264537  0.2517207797402321  1.0000
  H   H1        1.0  0.7178641724751885  0.5004858612882686  0.5207334669927022  1.0000
  H   H2        1.0  0.21786482234272594  0.49951496999631934  0.47926961859224093  1.0000
  H   H3        1.0  0.8818878538113211  0.4232137895483348  0.5212433707370039  1.0000
  H   H4        1.0  0.3818900690013578  0.5767884917898201  0.47875556547102605  1.0000
  H   H5        1.0  0.768362312461356  0.4872861269760806  0.9752157255179341  1.0000
  H   H6        1.0  0.268364919248441  0.5127130240365931  0.02478496194023451  1.0000
  H   H7        1.0  0.6005033658720151  0.5613312333255892  0.9773854995668003  1.0000
  H   H8        1.0  0.1005067400055282  0.43866824067698956  0.02261320900142041  1.0000
  H   H9        1.0  0.27334958323202596  0.1963846757299947  0.5175936361844293  1.0000
  H   H10       1.0  0.7733500599089568  0.8036098675595511  0.4824024442369251  1.0000
  H   H11       1.0  0.170592164612188  0.16512614010157023  0.6475019856773088  1.0000
  H   H12       1.0  0.6705925032881976  0.8348698650935946  0.3524917169872097  1.0000
  H   H13       1.0  0.6107604719135509  0.24757565077276672  0.6354081170767144  1.0000
  H   H14       1.0  0.1107622977489129  0.752422037344985  0.3645923418694608  1.0000
  H   H15       1.0  0.383552030904319  0.5433978244605486  0.8201953730439157  1.0000
  H   H16       1.0  0.8835508111694778  0.4566043990976284  0.1797956158349834  1.0000
  H   H17       1.0  0.15774992702349516  0.37252202225855074  0.7394838985246324  1.0000
  H   H18       1.0  0.6577493285868529  0.6274793963097809  0.2605037902997083  1.0000
  H   H19       1.0  0.31359604782625894  0.8234308727204863  0.8817895984377344  1.0000
  H   H20       1.0  0.8135985543123992  0.176574876647166  0.1182134715632017  1.0000
  H   H21       1.0  0.1757004306855947  0.7922140564131156  0.9916650635169262  1.0000
  H   H22       1.0  0.6756983330904374  0.20778939523615494  0.008339636311497103  1.0000
  H   H23       1.0  0.9463384091957393  0.6517653793318702  0.9409082202334318  1.0000
  H   H24       1.0  0.44633821139586166  0.34823716307068514  0.0590955745421908  1.0000
  H   H25       1.0  0.0076377636014654995  0.5907538658574012  0.5720865567544635  1.0000
  H   H26       1.0  0.5076367653033741  0.4092407566323076  0.42791926114460205  1.0000
  H   H27       1.0  0.22521440658419323  0.7629003324367292  0.6555256274089984  1.0000
  H   H28       1.0  0.7252104030669883  0.23709595593211225  0.3444799414723008  1.0000
  H   H29       1.0  0.46548869077437866  0.0781446448805809  0.7905812724282343  1.0000
  H   H30       1.0  0.9654890291910476  0.9218551965502901  0.2094207520101605  1.0000
  H   H31       1.0  0.5852981009693252  0.8697192416620327  0.7895238185612782  1.0000
  H   H32       1.0  0.08529263025978649  0.13028293298092564  0.21047491849383704  1.0000
  H   H33       1.0  0.4137633746474236  0.7873603108398937  0.4369672454193961  1.0000
  H   H34       1.0  0.9137546825802116  0.21264113588279804  0.563028325904618  1.0000
  H   H35       1.0  0.29445750053491787  0.9964699736663649  0.4367285061135959  1.0000
  H   H36       1.0  0.7944489076422627  0.0035292475224935017  0.56326970542613  1.0000
  H   H37       1.0  0.9510027201567649  0.8978000381517292  0.7530209846273833  1.0000
  H   H38       1.0  0.45101042398173513  0.10219789541412891  0.24697820095501297  1.0000
  H   H39       1.0  0.8404359343155363  0.10809484478023285  0.7459506180913777  1.0000
  H   H40       1.0  0.34044426501131386  0.8919027156677544  0.2540495861649106  1.0000
  H   H41       1.0  0.14961391378483307  0.23671647532955126  0.0261400949345187  1.0000
  H   H42       1.0  0.6496220986465886  0.7632832130896716  0.9738642524732767  1.0000
  H   H43       1.0  0.2667845418518836  0.0282840407681775  0.030171530657476405  1.0000
  H   H44       1.0  0.7667878881742353  0.971716954794552  0.9698310024442235  1.0000
  C   C1        1.0  0.2889292992939545  0.1729607918819482  0.6099315067315274  1.0000
  C   C2        1.0  0.7889311966169926  0.827037449590925  0.3900613177313232  1.0000
  C   C3        1.0  0.5197479336687892  0.3039792975078939  0.6771473307123728  1.0000
  C   C4        1.0  0.0197478228130095  0.6960189615436434  0.3228490176687799  1.0000
  C   C5        1.0  0.39640772400638014  0.45610016476644694  0.7707162808116267  1.0000
  C   C6        1.0  0.8964086877247579  0.5439002608139349  0.22927382321431372  1.0000
  C   C7        1.0  0.284588406210993  0.37200032550128986  0.7334246420086927  1.0000
  C   C8        1.0  0.784589052375516  0.6280043053578768  0.2665658073115864  1.0000
  C   C9        1.0  0.1871999441543153  0.8221204846443089  0.9009887288654851  1.0000
  C   C10       1.0  0.6872010665796254  0.17788481495992406  0.0990125995737259  1.0000
  C   C11       1.0  0.9929301965221669  0.6559642398294444  0.8521199188229217  1.0000
  C   C12       1.0  0.4929309832813047  0.3440357118481927  0.1478840603147731  1.0000
  C   C13       1.0  0.026089674953119896  0.6290437444720497  0.6612293017667383  1.0000
  C   C14       1.0  0.5260862960761586  0.37095553249228175  0.338776860680511  1.0000
  C   C15       1.0  0.1352739471743192  0.7140705906801443  0.7011888137485656  1.0000
  C   C16       1.0  0.6352743705140327  0.28592629358939103  0.2988153047287412  1.0000
  C   C17       1.0  0.3722443958425642  0.05138522360653042  0.6131125579129701  1.0000
  C   C18       1.0  0.8722386706089366  0.9486151880012701  0.3868862250991612  1.0000
  C   C19       1.0  0.45475542508258837  0.015287313754960502  0.7124573857196026  1.0000
  C   C20       1.0  0.9547511063514661  0.9847106258664837  0.2875409409849325  1.0000
  C   C21       1.0  0.5218591230216347  0.8987930614576388  0.7123716719142054  1.0000
  C   C22       1.0  0.021848510794995904  0.10120523323764272  0.287628227907831  1.0000
  C   C23       1.0  0.5075156756611463  0.8156352334520565  0.6136960554623769  1.0000
  C   C24       1.0  0.007506609898548798  0.1843712798098451  0.386305026306232  1.0000
  C   C25       1.0  0.42563231911869787  0.8517989597255777  0.513860247015387  1.0000
  C   C26       1.0  0.9256200774237797  0.14820346773240803  0.4861381015462385  1.0000
  C   C27       1.0  0.35913658153423  0.9685305216275211  0.5141337720267031  1.0000
  C   C28       1.0  0.8591284285290897  0.0314688978284963  0.48586134103565837  1.0000
  C   C29       1.0  0.578041429337837  0.6887819514548995  0.6160157317267618  1.0000
  C   C30       1.0  0.07803064402678218  0.31122021189666077  0.3839847246715493  1.0000
  C   C31       1.0  0.11650286294435828  0.9485592132001487  0.892380250594961  1.0000
  C   C32       1.0  0.616505778314064  0.0514412842779635  0.1076248003939568  1.0000
  C   C33       1.0  0.9966053238639816  0.9717571927558312  0.812228655630193  1.0000
  C   C34       1.0  0.4966131491414742  0.0282418397016713  0.18777353599708846  1.0000
  C   C35       1.0  0.9342590307245754  0.0895626108757526  0.8078211762597363  1.0000
  C   C36       1.0  0.43427027538963603  0.9104371141274256  0.1921797521145265  1.0000
  C   C37       1.0  0.9875299902606828  0.1854829789825772  0.8849375022334344  1.0000
  C   C38       1.0  0.4875398671028107  0.8145151178562388  0.1150663525455045  1.0000
  C   C39       1.0  0.1071107641430373  0.16227081190690032  0.9660696041967968  1.0000
  C   C40       1.0  0.6071180664759908  0.8377278167428204  0.03393529534283601  1.0000
  C   C41       1.0  0.1721270776430615  0.04528616373743691  0.9681149563460422  1.0000
  C   C42       1.0  0.6721349591726095  0.9547145003016909  0.03188693476722192  1.0000
  C   C43       1.0  0.9129894509625344  0.31016981811107774  0.8818221163704365  1.0000
  C   C44       1.0  0.4129952013680977  0.6898261675723845  0.11817937648944368  1.0000
  N   N1        1.0  0.3643659475497643  0.2759906253279496  0.6751848074983471  1.0000
  N   N2        1.0  0.8643642284221543  0.7240106271948367  0.3248077759485142  1.0000
  N   N3        1.0  0.5420351212573493  0.4123642530019681  0.7351649563925875  1.0000
  N   N4        1.0  0.042034968040432795  0.5876349950123796  0.264830702741051  1.0000
  N   N5        1.0  0.1134632489453296  0.7294893973005402  0.8222210074081743  1.0000
  N   N6        1.0  0.6134610480768004  0.27051106832168875  0.17778137007935163  1.0000
  N   N7        1.0  0.9385000698473291  0.5934375544668029  0.756131120906339  1.0000
  N   N8        1.0  0.43849991990375503  0.4065594597269141  0.243873241706325  1.0000
  O   O1        1.0  0.6359687257636961  0.6614985158882335  0.715113568194262  1.0000
  O   O2        1.0  0.1359593043876828  0.33850386448617803  0.2848890496729766  1.0000
  O   O3        1.0  0.5760732171747446  0.6201102684640603  0.5212016022380226  1.0000
  O   O4        1.0  0.0760638599210068  0.3798881949138392  0.478796012421192  1.0000
  O   O5        1.0  0.8515401303128414  0.33535600601202725  0.7831234463911088  1.0000
  O   O6        1.0  0.35154569629675336  0.6646425112932661  0.2168768770504315  1.0000
  O   O7        1.0  0.9135873361501439  0.37963832237198863  0.9762182126742046  1.0000
  O   O8        1.0  0.41359165912756873  0.6203613514187014  0.02378522834128921  1.0000
  O   O9        1.0  0.7737307918428298  0.42966479214972236  0.5524004156864066  1.0000
  O   O10       1.0  0.27372910105798104  0.5703362065320833  0.4475995116421884  1.0000
  O   O11       1.0  0.7085173013859674  0.5577911132603719  0.9461377753378316  1.0000
  O   O12       1.0  0.2085187014211058  0.44220874611741584  0.053862550105698404  1.0000
