data_image0
_chemical_formula_structural       Al2H30C48S6O30
_chemical_formula_sum              "Al2 H30 C48 S6 O30"
_cell_length_a       4.312544506447351
_cell_length_b       28.377006613261184
_cell_length_c       28.376264462328333
_cell_angle_alpha    119.99952564282783
_cell_angle_beta     90.00113916044052
_cell_angle_gamma    90.00180807353784

_space_group_name_H-M_alt    "P 1"
_space_group_IT_number       1

loop_
  _space_group_symop_operation_xyz
  'x, y, z'

loop_
  _atom_site_type_symbol
  _atom_site_label
  _atom_site_symmetry_multiplicity
  _atom_site_fract_x
  _atom_site_fract_y
  _atom_site_fract_z
  _atom_site_occupancy
  Al  Al1       1.0  0.973011494326279  0.5000060525427729  0.5000015798512153  1.0000
  Al  Al2       1.0  0.9731076894505148  0.16666135572265262  0.8333284728430996  1.0000
  H   H1        1.0  0.5096707658091971  0.18002291892086944  0.6976631788823583  1.0000
  H   H2        1.0  0.5562044215728221  0.2302080425009336  0.6480396484389104  1.0000
  H   H3        1.0  0.5158642300622418  0.3819900231280827  0.8005844334369956  1.0000
  H   H4        1.0  0.5157275796195363  0.28467373311722355  0.532744950260117  1.0000
  H   H5        1.0  0.5563280017374409  0.4364578195402873  0.685281213137735  1.0000
  H   H6        1.0  0.5096962420704543  0.4866419414747939  0.635657956971663  1.0000
  H   H7        1.0  0.5564666780757574  0.3868501699816137  0.7216394598700476  1.0000
  H   H8        1.0  0.5565016832215475  0.2798155556722719  0.6116885896904877  1.0000
  H   H9        1.0  0.5096503170931113  0.017648480466682985  0.8199792893016068  1.0000
  H   H10       1.0  0.5562560241529794  0.9178426932793614  0.7698002958092902  1.0000
  H   H11       1.0  0.5157735270462281  0.9185879275160077  0.6180064484519364  1.0000
  H   H12       1.0  0.5157923343683207  0.7480817142292866  0.7153346299472078  1.0000
  H   H13       1.0  0.5563037842124245  0.7488262567576528  0.5635449259963111  1.0000
  H   H14       1.0  0.5096911855577204  0.6490199651561002  0.51336292958856  1.0000
  H   H15       1.0  0.5564388645504507  0.8347886636579746  0.6131505804137376  1.0000
  H   H16       1.0  0.5565360119463136  0.8318814144223554  0.7201921068931867  1.0000
  H   H17       1.0  0.5096279304460153  0.30232903329971367  0.9823495594443872  1.0000
  H   H18       1.0  0.5562054901658653  0.35195524229598624  0.08215945981379494  1.0000
  H   H19       1.0  0.5158955148200306  0.19941779664684137  0.08140934988637133  1.0000
  H   H20       1.0  0.5157327820921438  0.4672510380867437  0.25191836849611343  1.0000
  H   H21       1.0  0.5563240023346337  0.31472279664826897  0.2511766011857617  1.0000
  H   H22       1.0  0.5096764713440364  0.36434597723679474  0.3509853890804067  1.0000
  H   H23       1.0  0.556483864270582  0.2783653962140705  0.16521534665243823  1.0000
  H   H24       1.0  0.5565209849631357  0.3883081579949562  0.16811745002417666  1.0000
  H   H25       1.0  0.9818606458761677  0.3247870686863338  0.8922688091389473  1.0000
  H   H26       1.0  0.9816519790765026  0.3418615827736461  0.441052649222904  1.0000
  H   H27       1.0  0.9816782323283417  0.0674564137188653  0.6751833327789428  1.0000
  H   H28       1.0  0.981665122077544  0.5992108196417051  0.6581554871357725  1.0000
  H   H29       1.0  0.9818129059337862  0.1077331302041745  0.9325282480537072  1.0000
  H   H30       1.0  0.981634795300536  0.5589470049586396  0.4007913268315022  1.0000
  C   C1        1.0  0.47453412738024525  0.47097425783680796  0.4192625570377189  1.0000
  C   C2        1.0  0.47455519720233497  0.44829713661043524  0.5290310663667058  1.0000
  C   C3        1.0  0.47458435829923923  0.5807434909230694  0.5517111708646212  1.0000
  C   C4        1.0  0.4746606498050453  0.21836172169975057  0.804287771153483  1.0000
  C   C5        1.0  0.4745990278887576  0.08592449650767255  0.7816330729139693  1.0000
  C   C6        1.0  0.47464462139605235  0.1957043238254741  0.9140682726446911  1.0000
  C   C7        1.0  0.498379189370702  0.2517831790748276  0.7769804615141781  1.0000
  C   C8        1.0  0.5177926975064222  0.22438239690659165  0.7200047686166187  1.0000
  C   C9        1.0  0.5440846015966796  0.25300598121152273  0.692339855265331  1.0000
  C   C10       1.0  0.5481920724439744  0.3103778619266821  0.7204418777081473  1.0000
  C   C11       1.0  0.5257687356404404  0.33767655548034287  0.7775083639628876  1.0000
  C   C12       1.0  0.5017028836168363  0.30888678885187915  0.8052549074825279  1.0000
  C   C13       1.0  0.5577657754104804  0.34286932147011134  0.6937691851247791  1.0000
  C   C14       1.0  0.5577648781617626  0.3237967819383203  0.6395563922117163  1.0000
  C   C15       1.0  0.5256651878366156  0.3289870008109901  0.5558171457112664  1.0000
  C   C16       1.0  0.5481781994077223  0.3562891091763875  0.6128862063799901  1.0000
  C   C17       1.0  0.5441211165229091  0.4136602654039478  0.6409846606893552  1.0000
  C   C18       1.0  0.5177990700445321  0.4422783826996764  0.6133163460091353  1.0000
  C   C19       1.0  0.49830051588312335  0.41487667779978915  0.5563405672538053  1.0000
  C   C20       1.0  0.5015831310912021  0.3577786942036952  0.5280697090326143  1.0000
  C   C21       1.0  0.4983143407670524  0.02519623196632657  0.7482136249577779  1.0000
  C   C22       1.0  0.5177721311854526  0.995626177272115  0.7756194310871578  1.0000
  C   C23       1.0  0.5440945701904168  0.9393416962755555  0.7469982734059502  1.0000
  C   C24       1.0  0.5481735228580786  0.910065679168625  0.6896240490995426  1.0000
  C   C25       1.0  0.5257054926070381  0.9398285610310639  0.6623220710783216  1.0000
  C   C26       1.0  0.5016091545316781  0.9963644504401332  0.691108372352332  1.0000
  C   C27       1.0  0.5577581908837101  0.8509042502414063  0.6571354502539322  1.0000
  C   C28       1.0  0.5577882535101536  0.8157670447722084  0.6762088594087106  1.0000
  C   C29       1.0  0.5257210334654089  0.7268398343710775  0.6710218184351862  1.0000
  C   C30       1.0  0.5482009451375731  0.7566042347631666  0.6437172631140485  1.0000
  C   C31       1.0  0.5441223010733863  0.7273297964384258  0.5863442155239441  1.0000
  C   C32       1.0  0.5178052834792269  0.6710442114352945  0.5577272749994933  1.0000
  C   C33       1.0  0.4983352222685936  0.6414719548152875  0.5851307900677867  1.0000
  C   C34       1.0  0.501646273880887  0.670301439409997  0.6422305985463626  1.0000
  C   C35       1.0  0.49837293399314575  0.22301636342018602  0.9748002206207648  1.0000
  C   C36       1.0  0.5177886728727542  0.27998909775950415  0.004370628674131196  1.0000
  C   C37       1.0  0.544085979934188  0.30765542296465753  0.060659640042892676  1.0000
  C   C38       1.0  0.5482124729687926  0.2795594475304385  0.08993416433130362  1.0000
  C   C39       1.0  0.525788592055477  0.22249192185578442  0.06016944253239841  1.0000
  C   C40       1.0  0.5017010927479858  0.1947453067786498  0.00363370667278668  1.0000
  C   C41       1.0  0.5577888785139888  0.3062330615659761  0.14909908346010775  1.0000
  C   C42       1.0  0.5577829010588429  0.36044246886365283  0.1842352810275614  1.0000
  C   C43       1.0  0.5256563130679692  0.44418308128283013  0.27316565340011323  1.0000
  C   C44       1.0  0.5481710985852927  0.3871147961784871  0.24339851785165226  1.0000
  C   C45       1.0  0.5441098502040589  0.3590198435479692  0.2726740698100016  1.0000
  C   C46       1.0  0.5177862509973963  0.3866870195404459  0.3289611146727935  1.0000
  C   C47       1.0  0.4982928607547094  0.4436601397602332  0.3585309439677289  1.0000
  C   C48       1.0  0.5015819904259401  0.47192792096110037  0.3297020838931246  1.0000
  S   S1        1.0  0.42619243878351637  0.34836534987353934  0.8765662373159842  1.0000
  S   S2        1.0  0.4259716562933065  0.3182894639657762  0.4567608208521534  1.0000
  S   S3        1.0  0.42604008079427297  0.028184717690386715  0.6516209884448615  1.0000
  S   S4        1.0  0.4260219888500174  0.6384846929393788  0.6817210737526409  1.0000
  S   S5        1.0  0.4261567595168927  0.12343714930479174  0.971807604224388  1.0000
  S   S6        1.0  0.42597719258764494  0.5432352374897678  0.3615166810239288  1.0000
  O   O1        1.0  0.7029202728946798  0.5538175350005333  0.5547504925966535  1.0000
  O   O2        1.0  0.7028752001325385  0.5009398455846112  0.44619084449595203  1.0000
  O   O3        1.0  0.7028983873359989  0.44526053070995913  0.499066484439311  1.0000
  O   O4        1.0  0.23426994518421654  0.5623344811127922  0.5221591828623033  1.0000
  O   O5        1.0  0.23426234756414027  0.4778490357119126  0.5401747888133884  1.0000
  O   O6        1.0  0.23422129381301454  0.45983177032927375  0.4376704305090797  1.0000
  O   O7        1.0  0.7029852135294874  0.16574381104928906  0.8871476382877718  1.0000
  O   O8        1.0  0.7030199926065421  0.2213984038648535  0.8342480896679235  1.0000
  O   O9        1.0  0.7029679643438199  0.11284308457873503  0.7785905889254182  1.0000
  O   O10       1.0  0.23435951571980945  0.20684475297677113  0.8956565907501147  1.0000
  O   O11       1.0  0.23431782143633478  0.10433699189409416  0.8111855757487946  1.0000
  O   O12       1.0  0.23437411105729922  0.1888077896401442  0.7931451487589883  1.0000
  O   O13       1.0  0.7035998171193113  0.35424430639636045  0.9085167518748847  1.0000
  O   O14       1.0  0.2776154340321639  0.3978281652769412  0.8867935785341033  1.0000
  O   O15       1.0  0.21096583671874916  0.31031669581066285  0.8862927717359527  1.0000
  O   O16       1.0  0.7033573917139008  0.31240261797848495  0.4248020881672687  1.0000
  O   O17       1.0  0.2773899906815486  0.26883812674859103  0.4465471686045462  1.0000
  O   O18       1.0  0.21073313478122196  0.356333694418197  0.4470297107230223  1.0000
  O   O19       1.0  0.703393744238319  0.054255725921841254  0.6457304425152942  1.0000
  O   O20       1.0  0.27743327241676496  0.9889386054695212  0.6021601930950313  1.0000
  O   O21       1.0  0.21079642555678646  0.07595477456256121  0.6896612324124335  1.0000
  O   O22       1.0  0.7033779629181466  0.6124118255583043  0.6876114666455777  1.0000
  O   O23       1.0  0.27745113088324297  0.6777275302673901  0.7311764407323125  1.0000
  O   O24       1.0  0.21074255061109423  0.5907140486637488  0.6436780557641911  1.0000
  O   O25       1.0  0.7035378539714613  0.09148562611606803  0.9457394805158615  1.0000
  O   O26       1.0  0.2775632465835188  0.11321603388402932  0.011048182944371395  1.0000
  O   O27       1.0  0.21092005559403756  0.11370568879833359  0.9240303364754611  1.0000
  O   O28       1.0  0.703345157000811  0.575197998768502  0.38758635526887286  1.0000
  O   O29       1.0  0.27736967816406377  0.5534421923299959  0.3222688020875282  1.0000
  O   O30       1.0  0.21073254192347687  0.5529686466561331  0.40929004851897594  1.0000
