data_image0
_chemical_formula_structural       Cu4H10C8S4I4N2
_chemical_formula_sum              "Cu4 H10 C8 S4 I4 N2"
_cell_length_a       7.585750248189717
_cell_length_b       7.474060808304604
_cell_length_c       9.396133229882363
_cell_angle_alpha    98.35700033645682
_cell_angle_beta     102.58913890131197
_cell_angle_gamma    104.22534586723388

_space_group_name_H-M_alt    "P 1"
_space_group_IT_number       1

loop_
  _space_group_symop_operation_xyz
  'x, y, z'

loop_
  _atom_site_type_symbol
  _atom_site_label
  _atom_site_symmetry_multiplicity
  _atom_site_fract_x
  _atom_site_fract_y
  _atom_site_fract_z
  _atom_site_occupancy
  Cu  Cu1       1.0  0.49753354310321646  0.1717271483961866  0.05918528230989749  1.0000
  Cu  Cu2       1.0  0.5024524866340913  0.8282693746937185  0.940809745384229  1.0000
  Cu  Cu3       1.0  0.4950398090370032  0.5840300221842797  0.12911886081975876  1.0000
  Cu  Cu4       1.0  0.5049536150330526  0.4159508054694284  0.8708712889409187  1.0000
  H   H1        1.0  0.018400585856674867  0.9328401501140889  0.22509715579314363  1.0000
  H   H2        1.0  0.9816015840486048  0.0671558982355265  0.774921907398877  1.0000
  H   H3        1.0  0.2670708531282385  0.9663201973780245  0.3098264370025277  1.0000
  H   H4        1.0  0.7329299696175298  0.033675923591310705  0.6901870792163862  1.0000
  H   H5        1.0  0.15674035923592558  0.830642817061552  0.1239098878764935  1.0000
  H   H6        1.0  0.8432613190814707  0.169356107311458  0.8761062463280498  1.0000
  H   H7        1.0  0.4398752747585847  0.7804449911022431  0.42899495302508234  1.0000
  H   H8        1.0  0.5601134989394083  0.2195473272059587  0.5709893981112444  1.0000
  H   H9        1.0  0.2433699167676977  0.615459187211542  0.6042676512813543  1.0000
  H   H10       1.0  0.7566434606917484  0.3845654044843627  0.3957185142172008  1.0000
  C   C1        1.0  0.15917844918563862  0.9514702080557456  0.20673758954239227  1.0000
  C   C2        1.0  0.8408250633735722  0.04852583709600821  0.7932795781913384  1.0000
  C   C3        1.0  0.2571096878788737  0.3366655694748816  0.2767845981057917  1.0000
  C   C4        1.0  0.7428871578340762  0.6633264817109537  0.7232149603929374  1.0000
  C   C5        1.0  0.3592574277141268  0.6329414734947535  0.4083421881397272  1.0000
  C   C6        1.0  0.6407574174287591  0.36707459922244107  0.591641069071919  1.0000
  C   C7        1.0  0.2586568541197636  0.5514458840326029  0.49790188115088807  1.0000
  C   C8        1.0  0.74134408061979  0.4485729776777206  0.5021101601099787  1.0000
  S   S1        1.0  0.2196848431546101  0.15481364758306174  0.12492393261429412  1.0000
  S   S2        1.0  0.7803110921958024  0.8451797390806206  0.875086272766936  1.0000
  S   S3        1.0  0.1581531641910985  0.31445620869886437  0.4249138225856441  1.0000
  S   S4        1.0  0.8418474007718048  0.6855570628410563  0.5750889608366948  1.0000
  I   I1        1.0  0.6510702184442394  0.9640078417247864  0.23359015495719865  1.0000
  I   I2        1.0  0.34893291275253807  0.03598279176989651  0.7663986172572805  1.0000
  I   I3        1.0  0.7919205389157755  0.4680053455967297  0.11251177785414507  1.0000
  I   I4        1.0  0.20807764043993157  0.5319868412349535  0.8874710003235082  1.0000
  N   N1        1.0  0.3594107445719814  0.5109986231276622  0.2832705641482178  1.0000
  N   N2        1.0  0.6405896394458424  0.4889962647357605  0.7167235686016299  1.0000
