data_image0
_chemical_formula_structural       Cu12Si3H24C36N24
_chemical_formula_sum              "Cu12 Si3 H24 C36 N24"
_cell_length_a       15.535333578209302
_cell_length_b       15.569361234759524
_cell_length_c       15.689032323306998
_cell_angle_alpha    89.94425728414951
_cell_angle_beta     89.9283356174119
_cell_angle_gamma    89.90557221844348

_space_group_name_H-M_alt    "P 1"
_space_group_IT_number       1

loop_
  _space_group_symop_operation_xyz
  'x, y, z'

loop_
  _atom_site_type_symbol
  _atom_site_label
  _atom_site_symmetry_multiplicity
  _atom_site_fract_x
  _atom_site_fract_y
  _atom_site_fract_z
  _atom_site_occupancy
  Cu  Cu1       1.0  0.7384640437475342  0.7364136150872157  0.8796623543877616  1.0000
  Cu  Cu2       1.0  0.9019162945568625  0.7577168422852766  0.7607802448162959  1.0000
  Cu  Cu3       1.0  0.7400648938033996  0.8781564670502604  0.7335967252024248  1.0000
  Cu  Cu4       1.0  0.7391925235988239  0.2509891760717835  0.10809337773031301  1.0000
  Cu  Cu5       1.0  0.8704763400233089  0.2580709823555196  0.262218602114416  1.0000
  Cu  Cu6       1.0  0.7493342305049566  0.09611006605922513  0.23936211658119796  1.0000
  Cu  Cu7       1.0  0.26008778205383  0.7374141771829061  0.12223856241886472  1.0000
  Cu  Cu8       1.0  0.11943026730935458  0.7411141317473168  0.2691206635412229  1.0000
  Cu  Cu9       1.0  0.25586027761732305  0.892574553633203  0.2518503391575849  1.0000
  Cu  Cu10      1.0  0.2552003109795891  0.2607748945481561  0.8849110491856111  1.0000
  Cu  Cu11      1.0  0.1041518558582339  0.2627724048611669  0.7483773496034517  1.0000
  Cu  Cu12      1.0  0.2583294899964272  0.1286809601054415  0.7327321133758604  1.0000
  Si  Si1       1.0  0.0006838966063043002  0.005310565677596902  0.4998835999652301  1.0000
  Si  Si2       1.0  0.9982301093375483  0.5010882646334734  0.0133323597870785  1.0000
  Si  Si3       1.0  0.49556988532133067  0.9946162832560433  0.9858678503465372  1.0000
  H   H1        1.0  0.7999316050114801  0.5820195281453521  0.9982915512491035  1.0000
  H   H2        1.0  0.028976869598977797  0.6237415259418315  0.8471133965831117  1.0000
  H   H3        1.0  0.5904565191052954  0.9994550018800865  0.7979198484229785  1.0000
  H   H4        1.0  0.5843233844225395  0.802549849445967  0.9924468085576666  1.0000
  H   H5        1.0  0.0310702080246159  0.838912398351994  0.6262514174079642  1.0000
  H   H6        1.0  0.8021190541230041  0.988287013140635  0.5739347850130443  1.0000
  H   H7        1.0  0.8136992503931708  0.39890202984866363  0.9909710812476507  1.0000
  H   H8        1.0  0.990532825385948  0.41091787890142945  0.20343325039603147  1.0000
  H   H9        1.0  0.608464051053261  0.9714001029957089  0.16099432182049614  1.0000
  H   H10       1.0  0.5881359265705514  0.18675661002460228  0.9878323836459658  1.0000
  H   H11       1.0  0.97923849371071  0.20153868600915814  0.4230284229851833  1.0000
  H   H12       1.0  0.8319191444587305  0.9705791900680653  0.376908883728568  1.0000
  H   H13       1.0  0.19172899922169506  0.5852683446124801  0.009757533623243804  1.0000
  H   H14       1.0  0.991468990567782  0.5978423698912181  0.20147185580421487  1.0000
  H   H15       1.0  0.39746924260871447  0.014556079342078502  0.1696281654509022  1.0000
  H   H16       1.0  0.401947997538997  0.8023317735250614  0.9918225344051096  1.0000
  H   H17       1.0  0.0065580746922009004  0.8094986190844157  0.42301136857331306  1.0000
  H   H18       1.0  0.1823719556566559  0.022182788624931504  0.3889025503913857  1.0000
  H   H19       1.0  0.18916307954354036  0.40282876372869936  0.012813691390832103  1.0000
  H   H20       1.0  0.9830608186838958  0.4072688186722786  0.8276467095677307  1.0000
  H   H21       1.0  0.40358842813535734  5.2290626158001516e-05  0.7960077796933478  1.0000
  H   H22       1.0  0.4011147635829531  0.18348849398629602  0.0030413652989338  1.0000
  H   H23       1.0  0.9766902824580939  0.18638402402527285  0.6097355563549558  1.0000
  H   H24       1.0  0.19622864897233674  0.018091714029893107  0.5769671858097285  1.0000
  C   C1        1.0  0.8486594826431216  0.602113117858707  0.9528167994963398  1.0000
  C   C2        1.0  0.9343739022889112  0.5744039335790916  0.944580174498228  1.0000
  C   C3        1.0  0.9653320434704399  0.6234254115165001  0.8757798338498122  1.0000
  C   C4        1.0  0.5984784465751217  0.9428244882548286  0.8376216597374511  1.0000
  C   C5        1.0  0.5589709765589816  0.9225373471913657  0.9157250563716205  1.0000
  C   C6        1.0  0.5953791949962338  0.8426008988790487  0.9367848909216081  1.0000
  C   C7        1.0  0.9673445786305379  0.8675606050865952  0.6233550916424804  1.0000
  C   C8        1.0  0.9369593776508792  0.9346214544943906  0.5712709734432766  1.0000
  C   C9        1.0  0.8507103787570642  0.943710054337629  0.5968620822719046  1.0000
  C   C10       1.0  0.8486122034037962  0.39225705257319293  0.05057090406209851  1.0000
  C   C11       1.0  0.9242566735913015  0.43357933364099205  0.07750482714475741  1.0000
  C   C12       1.0  0.9386555671791825  0.3984088483480833  0.15881034821271814  1.0000
  C   C13       1.0  0.6136240479504168  0.0316988223011592  0.1264935721650531  1.0000
  C   C14       1.0  0.5691747860863287  0.059192126862960506  0.05333012078317271  1.0000
  C   C15       1.0  0.6031605587853263  0.1414125900511678  0.038311632497546114  1.0000
  C   C16       1.0  0.9348186953996489  0.15217472623741202  0.40187894906757293  1.0000
  C   C17       1.0  0.9271099975646634  0.0665383662348731  0.4291812394529871  1.0000
  C   C18       1.0  0.859784186088241  0.03452855108920971  0.3784535174024981  1.0000
  C   C19       1.0  0.1508656865665401  0.5976191439917501  0.0646856790093722  1.0000
  C   C20       1.0  0.06942114692819251  0.563811710629011  0.08464804473231881  1.0000
  C   C21       1.0  0.04888177863247019  0.6040298238987772  0.16231643974384016  1.0000
  C   C22       1.0  0.38906763713288933  0.954998316030981  0.1346126209863456  1.0000
  C   C23       1.0  0.4268091528471274  0.9288446668726564  0.05732813040685871  1.0000
  C   C24       1.0  0.3914535787841373  0.8469226438720411  0.04401673713154961  1.0000
  C   C25       1.0  0.05745838387862529  0.8537453729387253  0.40498721975645685  1.0000
  C   C26       1.0  0.0732937214637843  0.937676206784616  0.4339965937136086  1.0000
  C   C27       1.0  0.14697808096158843  0.9620662754621069  0.38785372877522667  1.0000
  C   C28       1.0  0.14601884498961945  0.3943830673994528  0.9590543179818882  1.0000
  C   C29       1.0  0.06566697856548132  0.4326535371160319  0.942978264795393  1.0000
  C   C30       1.0  0.0411338045959724  0.39638945926794394  0.8646413046311923  1.0000
  C   C31       1.0  0.3937128657179585  0.053773199515411804  0.8390885026568925  1.0000
  C   C32       1.0  0.42967338626971957  0.0686093992075243  0.9199286165441549  1.0000
  C   C33       1.0  0.39237284069820083  0.14710961149694407  0.9446419991656188  1.0000
  C   C34       1.0  0.03826164671908569  0.15319858634535422  0.6110836971082991  1.0000
  C   C35       1.0  0.0656303952763579  0.08056155317191131  0.565032309378026  1.0000
  C   C36       1.0  0.1500514361259278  0.0675091981648777  0.5944997063134425  1.0000
  N   N1        1.0  0.903160231243973  0.6757848654332363  0.8457005313191603  1.0000
  N   N2        1.0  0.8302215466695699  0.6624482821596446  0.8936615103412608  1.0000
  N   N3        1.0  0.6518787337308113  0.8175525654494324  0.8762318510343052  1.0000
  N   N4        1.0  0.6537225151298715  0.8800941631531671  0.8142820055190259  1.0000
  N   N5        1.0  0.8314627292485638  0.8867663774479198  0.6589742103008192  1.0000
  N   N6        1.0  0.9043118926335368  0.83926716401524  0.6754497225929867  1.0000
  N   N7        1.0  0.876624568120704  0.3410850681926263  0.17852115740056015  1.0000
  N   N8        1.0  0.8204942426199863  0.3371841086276818  0.11094496417937452  1.0000
  N   N9        1.0  0.6626710776154853  0.16116802495500337  0.09773316103754583  1.0000
  N   N10       1.0  0.6692504805347568  0.0926125611736879  0.1527084304184498  1.0000
  N   N11       1.0  0.830074070786644  0.09615671784528251  0.3255466896937662  1.0000
  N   N12       1.0  0.876883077696654  0.16957533003147773  0.34013124139919887  1.0000
  N   N13       1.0  0.1129064973546008  0.6572589852614925  0.18636816423276065  1.0000
  N   N14       1.0  0.1764634709893826  0.6533929622866309  0.12537965954216193  1.0000
  N   N15       1.0  0.3373404596758434  0.826162500962205  0.10818411140800073  1.0000
  N   N16       1.0  0.3356716528391885  0.8937029829757606  0.16458200011140184  1.0000
  N   N17       1.0  0.1727055540146054  0.8979187833027142  0.3358520466439644  1.0000
  N   N18       1.0  0.11674358463346121  0.8303732634478395  0.3463947036708889  1.0000
  N   N19       1.0  0.10184055518439551  0.34108325702417375  0.8366132021344301  1.0000
  N   N20       1.0  0.16741944997151142  0.34003192628923534  0.8954263347937897  1.0000
  N   N21       1.0  0.33870788497396376  0.17636011147646977  0.8835366052910133  1.0000
  N   N22       1.0  0.3396567035694744  0.11822868553218771  0.8176237788619078  1.0000
  N   N23       1.0  0.1710272234936454  0.12728828482818244  0.6531595210062022  1.0000
  N   N24       1.0  0.10128276122477332  0.18082421943141475  0.6634394843222398  1.0000
