data_image0
_chemical_formula_structural       Cu2H16C28N8Cl2
_chemical_formula_sum              "Cu2 H16 C28 N8 Cl2"
_cell_length_a       3.6954004931921243
_cell_length_b       12.047286834270912
_cell_length_c       12.804646664660304
_cell_angle_alpha    89.99954081580339
_cell_angle_beta     93.43505807850384
_cell_angle_gamma    89.99940461330814

_space_group_name_H-M_alt    "P 1"
_space_group_IT_number       1

loop_
  _space_group_symop_operation_xyz
  'x, y, z'

loop_
  _atom_site_type_symbol
  _atom_site_label
  _atom_site_symmetry_multiplicity
  _atom_site_fract_x
  _atom_site_fract_y
  _atom_site_fract_z
  _atom_site_occupancy
  Cu  Cu1       1.0  0.5000087567605718  0.003271913386129201  0.24999530268698314  1.0000
  Cu  Cu2       1.0  0.49999202169406237  0.9967317185436078  0.7500064179191596  1.0000
  H   H1        1.0  0.7607315737046749  0.04713956153966592  0.021455934298543894  1.0000
  H   H2        1.0  0.23928980354578752  0.047134391902602615  0.4785335878281528  1.0000
  H   H3        1.0  0.23928565570057  0.952859089974766  0.9785491130955959  1.0000
  H   H4        1.0  0.7607053193921588  0.9528609394286603  0.5214641578007073  1.0000
  H   H5        1.0  0.9438632195877263  0.21467367526853562  0.9265803472168981  1.0000
  H   H6        1.0  0.056143306130174195  0.2146658010479072  0.5734101000665602  1.0000
  H   H7        1.0  0.0561511115942608  0.7853258063260856  0.07342154017641887  1.0000
  H   H8        1.0  0.9438466772620874  0.7853295302728186  0.4265922688194762  1.0000
  H   H9        1.0  0.8686033643056349  0.4037317544598623  0.009856540052730595  1.0000
  H   H10       1.0  0.1314008762512202  0.40373016556913655  0.49013930130667654  1.0000
  H   H11       1.0  0.1313973203386922  0.5962702173516234  0.9901436172386864  1.0000
  H   H12       1.0  0.8685973325448942  0.5962668258560202  0.5098647309559324  1.0000
  H   H13       1.0  0.6505977585907345  0.7052375340390854  0.16577171197368296  1.0000
  H   H14       1.0  0.34939895141477  0.7052381682844314  0.33422397624799055  1.0000
  H   H15       1.0  0.34941629111744993  0.2947594573880395  0.8342254854650049  1.0000
  H   H16       1.0  0.6506067319883186  0.29476546367229883  0.6657692127967392  1.0000
  C   C1        1.0  0.7363908880257598  0.12896036878314024  0.05677974396903098  1.0000
  C   C2        1.0  0.2636305232172306  0.1289520890858569  0.44321146953363666  1.0000
  C   C3        1.0  0.26360989047174854  0.871040772959347  0.9432219766475639  1.0000
  C   C4        1.0  0.7363675447919675  0.8710465624739998  0.5567902177394615  1.0000
  C   C5        1.0  0.8390645621653551  0.2242980659209692  0.003811388561722101  1.0000
  C   C6        1.0  0.1609564643939123  0.22429632984358258  0.4961821844484361  1.0000
  C   C7        1.0  0.1609416373945081  0.7757030758123025  0.9961903987627775  1.0000
  C   C8        1.0  0.8390388462075297  0.775699831536926  0.5038186878203205  1.0000
  C   C9        1.0  0.7957098048549014  0.3276315900013955  0.0493809354260222  1.0000
  C   C10       1.0  0.20431046805442327  0.3276251052738176  0.4506133666837754  1.0000
  C   C11       1.0  0.2042881223102171  0.672372041942829  0.9506184068436309  1.0000
  C   C12       1.0  0.7956768516403585  0.6723752064227217  0.5493897504882526  1.0000
  C   C13       1.0  0.5667153188225171  0.23220240104984674  0.19800305667826018  1.0000
  C   C14       1.0  0.4333137548389559  0.23220053337637842  0.3019936766723035  1.0000
  C   C15       1.0  0.43328284301128417  0.7677970805658347  0.8020001939130521  1.0000
  C   C16       1.0  0.5666815087572986  0.7678006083819185  0.6980064139147045  1.0000
  C   C17       1.0  0.6513083378990956  0.3328956765035046  0.14849031384578373  1.0000
  C   C18       1.0  0.3487254470307803  0.33289700096904085  0.3515064557858593  1.0000
  C   C19       1.0  0.34868944855055156  0.6671054652633401  0.8515066834517807  1.0000
  C   C20       1.0  0.6512727147887248  0.6671033107090665  0.6484967948019642  1.0000
  C   C21       1.0  0.5794083111453219  0.4370825241924693  0.20078209073945166  1.0000
  C   C22       1.0  0.4206136139878184  0.43708155133756343  0.299211359096951  1.0000
  C   C23       1.0  0.42059232662242624  0.5629169574350714  0.79921728490158  1.0000
  C   C24       1.0  0.5793815557695439  0.5629195904273133  0.7007871681683607  1.0000
  C   C25       1.0  0.5827585744123952  0.6265600311608426  0.20196060014652054  1.0000
  C   C26       1.0  0.41724355533962415  0.6265549287595107  0.29803578203533476  1.0000
  C   C27       1.0  0.41724453927501054  0.3734402805409618  0.7980349005407346  1.0000
  C   C28       1.0  0.5827541372997093  0.37344455288909034  0.7019596519475112  1.0000
  N   N1        1.0  0.602776064985804  0.13144706600886746  0.15166810718864807  1.0000
  N   N2        1.0  0.397250822318533  0.13144659639187492  0.34832549709317817  1.0000
  N   N3        1.0  0.39723284510524337  0.8685540757198  0.8483337134898005  1.0000
  N   N4        1.0  0.6027390671490951  0.8685537153099291  0.6516753084502582  1.0000
  N   N5        1.0  0.6620624141515565  0.5332079619332006  0.15307949116475328  1.0000
  N   N6        1.0  0.3379564355763875  0.5332126798944614  0.3469170598756789  1.0000
  N   N7        1.0  0.3379436447357165  0.466788199435463  0.8469199511981101  1.0000
  N   N8        1.0  0.6620440613615629  0.46679095205502125  0.6530799707653826  1.0000
  Cl  Cl1       1.0  1.3024962839794264e-05  0.890917412622038  0.24999956305369145  1.0000
  Cl  Cl2       1.0  0.9999849022022717  0.10908621932218675  0.7499997792159616  1.0000
