data_image0
_chemical_formula_structural       K4H20C16O20
_chemical_formula_sum              "K4 H20 C16 O20"
_cell_length_a       6.3944033073210536
_cell_length_b       6.462806716388958
_cell_length_c       15.366540915007908
_cell_angle_alpha    89.99995737955737
_cell_angle_beta     89.99989480188228
_cell_angle_gamma    106.61350967554027

_space_group_name_H-M_alt    "P 1"
_space_group_IT_number       1

loop_
  _space_group_symop_operation_xyz
  'x, y, z'

loop_
  _atom_site_type_symbol
  _atom_site_label
  _atom_site_symmetry_multiplicity
  _atom_site_fract_x
  _atom_site_fract_y
  _atom_site_fract_z
  _atom_site_occupancy
  K   K1        1.0  0.06197724295603281  0.033893786357118906  0.7067413262430122  1.0000
  K   K2        1.0  0.4380297937072086  0.46610945932426523  0.2067424292808511  1.0000
  K   K3        1.0  0.93803043891797  0.9661010716016494  0.2932599814006451  1.0000
  K   K4        1.0  0.5619736379963101  0.5338869718742744  0.7932517199544549  1.0000
  H   H1        1.0  0.228144190658341  0.8661382624650572  0.5150395625881785  1.0000
  H   H2        1.0  0.2718708434057148  0.6338742597437631  0.0150389564765305  1.0000
  H   H3        1.0  0.7718634542996912  0.1338453204798711  0.4849610942926077  1.0000
  H   H4        1.0  0.7281259376943723  0.3661430515659489  0.9849617004040709  1.0000
  H   H5        1.0  0.05744676932192051  0.5680969472848859  0.7348855149292532  1.0000
  H   H6        1.0  0.442558697198244  0.9319067416995638  0.23488337020144465  1.0000
  H   H7        1.0  0.9425530735431025  0.43189784161579337  0.2651164434823983  1.0000
  H   H8        1.0  0.5574496829618454  0.0680961757614824  0.7651172866761797  1.0000
  H   H9        1.0  0.10241917601100428  0.6076966759191365  0.8350446604566245  1.0000
  H   H10       1.0  0.39758226923141393  0.8923163247542479  0.3350438683097751  1.0000
  H   H11       1.0  0.8975793810373816  0.3923158190237146  0.164957297952995  1.0000
  H   H12       1.0  0.6024233916254147  0.10767690473162621  0.6649567885704715  1.0000
  H   H13       1.0  0.260789120194609  0.5530765664546922  0.4405986379219797  1.0000
  H   H14       1.0  0.2392059385719705  0.9469151052763606  0.9405972583407947  1.0000
  H   H15       1.0  0.739211555274423  0.44689890174440444  0.5594013681985076  1.0000
  H   H16       1.0  0.7607937699842894  0.05310706383443181  0.0594020970087215  1.0000
  H   H17       1.0  0.37217089505663387  0.2379974222070872  0.5659209189763388  1.0000
  H   H18       1.0  0.12782986896768733  0.2620094351204544  0.06591649701633881  1.0000
  H   H19       1.0  0.6278291190529546  0.7619812615108759  0.4340758333212449  1.0000
  H   H20       1.0  0.8721657975587931  0.7380094770476759  0.9340796045127037  1.0000
  C   C1        1.0  0.21554010896302597  0.5852599754850089  0.5772832856899373  1.0000
  C   C2        1.0  0.2844573137702183  0.9147296452672222  0.0772780308209491  1.0000
  C   C3        1.0  0.7844560712407188  0.4147106210963827  0.4227212757850509  1.0000
  C   C4        1.0  0.7155286639624733  0.08527146417885942  0.9227180707149572  1.0000
  C   C5        1.0  0.34437924162978834  0.536991012916893  0.5015270848762725  1.0000
  C   C6        1.0  0.15562372964047466  0.9630117817564714  0.0015284364823316  1.0000
  C   C7        1.0  0.6556277419611761  0.4629957855416863  0.498473572004329  1.0000
  C   C8        1.0  0.8443705772160754  0.03700228641155691  0.998475474222552  1.0000
  C   C9        1.0  0.40885741658061653  0.3245205411378578  0.5041177814072739  1.0000
  C   C10       1.0  0.0911353448399623  0.1754848305634482  0.004115369289195301  1.0000
  C   C11       1.0  0.5911403314383391  0.6754500692643288  0.49588092318611393  1.0000
  C   C12       1.0  0.9088606036637472  0.8245518014530548  0.9958839860598517  1.0000
  C   C13       1.0  0.3302804154705186  0.17851541478235333  0.4262447488088625  1.0000
  C   C14       1.0  0.16971259692498114  0.3214854021825744  0.9262408638938596  1.0000
  C   C15       1.0  0.6697135725019905  0.8214696585297218  0.5737513527258786  1.0000
  C   C16       1.0  0.8302862051922801  0.678533537600032  0.0737604437501673  1.0000
  O   O1        1.0  0.17550634580135244  0.7745975161370425  0.5749483322981207  1.0000
  O   O2        1.0  0.3245166997455157  0.7254164977710572  0.07494505011982973  1.0000
  O   O3        1.0  0.824501299155159  0.22538606680684137  0.42505297534721365  1.0000
  O   O4        1.0  0.6754798732062355  0.2746056437158728  0.9250549559956129  1.0000
  O   O5        1.0  0.1502534230035053  0.45754811939671924  0.6384747231668371  1.0000
  O   O6        1.0  0.3497483606453571  0.042463349348516005  0.13847928167415094  1.0000
  O   O7        1.0  0.8497540138122945  0.542440293729598  0.361522679890605  1.0000
  O   O8        1.0  0.6502446234755368  0.9575571498457618  0.8615252797949182  1.0000
  O   O9        1.0  0.3315600216086949  0.2634461550930425  0.3530005355407866  1.0000
  O   O10       1.0  0.1684284224647641  0.23655968537597968  0.8530005812411121  1.0000
  O   O11       1.0  0.6684503057381548  0.7365358408142556  0.6469988198099658  1.0000
  O   O12       1.0  0.8315433107198303  0.7634686799598002  0.14700398023612146  1.0000
  O   O13       1.0  0.2703833557389643  0.9705323864067876  0.4365039619944611  1.0000
  O   O14       1.0  0.2296193530797197  0.5294641976860532  0.9365001101773274  1.0000
  O   O15       1.0  0.7296150536485798  0.029435008482799698  0.5634940918345707  1.0000
  O   O16       1.0  0.7703808086968067  0.47055958608935106  0.0634979436426661  1.0000
  O   O17       1.0  0.02194018453695178  0.6456196999874635  0.7858169554475725  1.0000
  O   O18       1.0  0.4780684239725019  0.8543902982067382  0.2858161038406735  1.0000
  O   O19       1.0  0.9780570128659036  0.35438795097197584  0.2141823999051766  1.0000
  O   O20       1.0  0.5219482484168269  0.1456143029770089  0.7141826007394343  1.0000
