data_image0
_chemical_formula_structural       Cu5H24C38N18O14F6
_chemical_formula_sum              "Cu5 H24 C38 N18 O14 F6"
_cell_length_a       7.269981771275024
_cell_length_b       12.357639789193081
_cell_length_c       13.570179354197114
_cell_angle_alpha    99.79286205673289
_cell_angle_beta     102.03816553964376
_cell_angle_gamma    90.15208997314141

_space_group_name_H-M_alt    "P 1"
_space_group_IT_number       1

loop_
  _space_group_symop_operation_xyz
  'x, y, z'

loop_
  _atom_site_type_symbol
  _atom_site_label
  _atom_site_symmetry_multiplicity
  _atom_site_fract_x
  _atom_site_fract_y
  _atom_site_fract_z
  _atom_site_occupancy
  Cu  Cu1       1.0  0.21588936932191424  0.9769445633052956  0.22445156253699144  1.0000
  Cu  Cu2       1.0  0.7840929640350751  0.02299423026558151  0.7757152160846348  1.0000
  Cu  Cu3       1.0  0.999932701022587  0.9999729340567143  0.9999249278699625  1.0000
  Cu  Cu4       1.0  0.9999821421117618  0.500000146291228  0.49998007212034423  1.0000
  Cu  Cu5       1.0  0.49995054971397207  0.49997949413285175  0.4999718327186856  1.0000
  H   H1        1.0  0.32913948189396797  0.8889115092276044  0.0655042190746187  1.0000
  H   H2        1.0  0.6706934156304243  0.11113463615983935  0.9344926105924642  1.0000
  H   H3        1.0  0.2957155767376918  0.6803438069069471  0.34671802172108107  1.0000
  H   H4        1.0  0.7043162688269575  0.3196449159598771  0.6533144377227487  1.0000
  H   H5        1.0  0.39779125837024054  0.5708642591216206  0.045012447737015356  1.0000
  H   H6        1.0  0.6021934382171921  0.4291794829756271  0.9550064056743822  1.0000
  H   H7        1.0  0.45958504833559033  0.3601830531136729  0.2732250730896553  1.0000
  H   H8        1.0  0.5403621685465155  0.6397907602217858  0.7267369400617556  1.0000
  H   H9        1.0  0.058288062584985305  0.28954381287325504  0.3711204123909867  1.0000
  H   H10       1.0  0.9417951903567001  0.710490017137893  0.6288501470959816  1.0000
  H   H11       1.0  0.9275174686735711  0.33554111558321165  0.05637692522743272  1.0000
  H   H12       1.0  0.07242657936357941  0.664487782638915  0.9436101704234545  1.0000
  H   H13       1.0  0.8880542747156568  0.5963752362666455  0.3069333077819111  1.0000
  H   H14       1.0  0.11187991757154953  0.4036520279715462  0.6930613083034985  1.0000
  H   H15       1.0  0.021204234840837388  0.8605679342999366  0.5446699942492546  1.0000
  H   H16       1.0  0.9787543099845736  0.13944047627461495  0.4553508961978068  1.0000
  H   H17       1.0  0.40384539658241897  0.12452792124887681  0.7230533049370962  1.0000
  H   H18       1.0  0.5962262841525003  0.8754590607384858  0.27690804990118784  1.0000
  H   H19       1.0  0.6165763694565811  0.8172158803812692  0.6415077974458968  1.0000
  H   H20       1.0  0.3833705069417022  0.18273407977194014  0.35843650610957684  1.0000
  H   H21       1.0  0.6104733168639882  0.010142805914810503  0.11110557098800913  1.0000
  H   H22       1.0  0.3894046052145583  0.9897841314558209  0.8888358011917249  1.0000
  H   H23       1.0  0.4626105237959025  0.11148081942776858  0.06114836413376422  1.0000
  H   H24       1.0  0.5373803308921481  0.8884962724736811  0.9388026840484544  1.0000
  C   C1        1.0  0.3022292323091378  0.750767501755611  0.16630100212725552  1.0000
  C   C2        1.0  0.6978321785851165  0.24925500405174014  0.8337929283374168  1.0000
  C   C3        1.0  0.3407434049819926  0.6387183744539443  0.19281877181470725  1.0000
  C   C4        1.0  0.6592609175174076  0.3612785644146257  0.8072171192144  1.0000
  C   C5        1.0  0.3355578981908068  0.6167120789702737  0.2900088544579163  1.0000
  C   C6        1.0  0.664459490737336  0.38327088508819446  0.7100204105560196  1.0000
  C   C7        1.0  0.3888833286211836  0.5552746244220046  0.12036313873029063  1.0000
  C   C8        1.0  0.6110939298205694  0.4447428096746223  0.8796456989535318  1.0000
  C   C9        1.0  0.4273598925872976  0.4545037635598917  0.15016526549924694  1.0000
  C   C10       1.0  0.5725768081574715  0.5454988386946058  0.8498199323040866  1.0000
  C   C11       1.0  0.4234409929414654  0.4384563569926315  0.24865327840460347  1.0000
  C   C12       1.0  0.5765240672556189  0.5615289940677358  0.7513301358740777  1.0000
  C   C13       1.0  0.056833316797643404  0.18358869554145232  0.17636295913791142  1.0000
  C   C14       1.0  0.9433250872438138  0.8164837115322073  0.8235715944395281  1.0000
  C   C15       1.0  0.0019440310404804  0.2989497148944338  0.21020847027499912  1.0000
  C   C16       1.0  0.9980746242109009  0.7011038407978563  0.7897750534855776  1.0000
  C   C17       1.0  0.013700943103891904  0.3408186338745765  0.31368502302651546  1.0000
  C   C18       1.0  0.9863293420682878  0.6592201279707268  0.6862938033102993  1.0000
  C   C19       1.0  0.9428578488637456  0.36662487670174226  0.13788734128707603  1.0000
  C   C20       1.0  0.0570940538845548  0.6334163513523026  0.8621025056361731  1.0000
  C   C21       1.0  0.9029268634892206  0.47350584266018103  0.1747056793692394  1.0000
  C   C22       1.0  0.0969766879228047  0.5265271525221991  0.8252791192958284  1.0000
  C   C23       1.0  0.9169611962420845  0.5116253655686479  0.27875839176390127  1.0000
  C   C24       1.0  0.0829760801138519  0.4884068229449525  0.7212321589068013  1.0000
  C   C25       1.0  0.2918605079341319  0.7046303136841915  0.5372712422465612  1.0000
  C   C26       1.0  0.7080858927710166  0.2953492792714627  0.4627099947706982  1.0000
  C   C27       1.0  0.316237456352397  0.8241298387797757  0.5875559127710376  1.0000
  C   C28       1.0  0.6837339635284962  0.17586945901174295  0.41241265298381796  1.0000
  C   C29       1.0  0.16219608353569012  0.8916786021673818  0.5848642678642124  1.0000
  C   C30       1.0  0.8377800228133411  0.10832401722111482  0.41512742613034004  1.0000
  C   C31       1.0  0.19771389541956813  0.9994762818005398  0.6351277467351581  1.0000
  C   C32       1.0  0.8022986962455009  0.0005263395117012002  0.3648605437192672  1.0000
  C   C33       1.0  0.3780214333325348  0.039410583690404614  0.6851431223688992  1.0000
  C   C34       1.0  0.6220137485552472  0.9605755800188833  0.31482519351567373  1.0000
  C   C35       1.0  0.49460646815940396  0.8679258447368597  0.6387360928024963  1.0000
  C   C36       1.0  0.5053702978733696  0.1320487953421434  0.36122557451069787  1.0000
  C   C37       1.0  0.4846881168477851  0.022589241131768707  0.05332638598762429  1.0000
  C   C38       1.0  0.5152106931663455  0.977377961101624  0.9466160840023508  1.0000
  N   N1        1.0  0.37785743433619967  0.5191384630504885  0.3178769667029187  1.0000
  N   N2        1.0  0.6221479481620805  0.48083625146360737  0.6821313006981315  1.0000
  N   N3        1.0  0.9706493618442167  0.4444104970121501  0.34677988627255735  1.0000
  N   N4        1.0  0.029346650807184516  0.5556184096695918  0.6532062261295551  1.0000
  N   N5        1.0  0.5249940407965782  0.9729100475221988  0.6867105351820797  1.0000
  N   N6        1.0  0.47502159907872255  0.02705639363976081  0.3132577799075095  1.0000
  N   N7        1.0  0.9679112425312442  0.940415523890458  0.1258922547254286  1.0000
  N   N8        1.0  0.03216452044203071  0.059602952130497024  0.8742527261667307  1.0000
  N   N9        1.0  0.8793238665353299  0.8549112005044182  0.12049405309934975  1.0000
  N   N10       1.0  0.12088577730823863  0.1450029796091741  0.8796671133966925  1.0000
  N   N11       1.0  0.7896928925653767  0.7763065532777914  0.11727054226086862  1.0000
  N   N12       1.0  0.2108025943661147  0.22350646540015628  0.8827845297437947  1.0000
  N   N13       1.0  0.2578557931734053  0.432452179841647  0.5254775646490161  1.0000
  N   N14       1.0  0.7420898416147637  0.5675307557041692  0.47454168663261237  1.0000
  N   N15       1.0  0.26866243203420476  0.33940832468156407  0.543652413363624  1.0000
  N   N16       1.0  0.7312881947241722  0.6605671978317248  0.4563537118959929  1.0000
  N   N17       1.0  0.28193744996780623  0.250634108101373  0.5613016413983021  1.0000
  N   N18       1.0  0.7180248835983606  0.7493479951486179  0.4387082428464596  1.0000
  O   O1        1.0  0.031243185612751707  0.1516855194400648  0.08045394436918943  1.0000
  O   O2        1.0  0.9688145242219904  0.8483934441070959  0.9194824651151521  1.0000
  O   O3        1.0  0.1271429304224299  0.13034120669735932  0.24715927009643227  1.0000
  O   O4        1.0  0.8732637925091851  0.8697698612619648  0.7527735865404354  1.0000
  O   O5        1.0  0.2634028192710716  0.8234497494563159  0.2386948236127679  1.0000
  O   O6        1.0  0.7369343074927173  0.17656145607950446  0.7615002891894349  1.0000
  O   O7        1.0  0.31443016478431224  0.7659218956738487  0.07846003191583865  1.0000
  O   O8        1.0  0.6854653744752213  0.23412274269409047  0.9216207509364125  1.0000
  O   O9        1.0  0.1338535399216454  0.6693429855736283  0.4845818959554223  1.0000
  O   O10       1.0  0.8660568526695941  0.3306637349969961  0.5154136040641789  1.0000
  O   O11       1.0  0.4424789846016708  0.6506090699346603  0.5556691628771803  1.0000
  O   O12       1.0  0.5574269800133038  0.34935407816053754  0.44430883307558133  1.0000
  O   O13       1.0  0.3202145621466316  0.9720692668930655  0.07068752632445552  1.0000
  O   O14       1.0  0.6796290739880819  0.027959522911771704  0.9292392655608027  1.0000
  F   F1        1.0  0.47410002335760026  0.36914133558831  0.08330497719902749  1.0000
  F   F2        1.0  0.5257763935203458  0.6308669730003589  0.9166575976578032  1.0000
  F   F3        1.0  0.8483788709622077  0.5435741861906822  0.10845878416748182  1.0000
  F   F4        1.0  0.1514732337977449  0.4564464649172422  0.8915192601806582  1.0000
  F   F5        1.0  0.053304910707460414  0.06878682784267912  0.6366133680405782  1.0000
  F   F6        1.0  0.9467225865888481  0.9312207971824551  0.36342300173909353  1.0000
