data_image0
_chemical_formula_structural       Hg4H12C16N8Cl8
_chemical_formula_sum              "Hg4 H12 C16 N8 Cl8"
_cell_length_a       3.9488839242693285
_cell_length_b       9.35293829670224
_cell_length_c       18.941757513185014
_cell_angle_alpha    89.99993434837788
_cell_angle_beta     90.0005400101806
_cell_angle_gamma    101.06476260249548

_space_group_name_H-M_alt    "P 1"
_space_group_IT_number       1

loop_
  _space_group_symop_operation_xyz
  'x, y, z'

loop_
  _atom_site_type_symbol
  _atom_site_label
  _atom_site_symmetry_multiplicity
  _atom_site_fract_x
  _atom_site_fract_y
  _atom_site_fract_z
  _atom_site_occupancy
  Hg  Hg1       1.0  0.2225760444439331  0.7356279212756218  0.8634933053958631  1.0000
  Hg  Hg2       1.0  0.27740954048855565  0.7643684827493685  0.3634954013427531  1.0000
  Hg  Hg3       1.0  0.7774189556634924  0.26436835826272886  0.13650602845260806  1.0000
  Hg  Hg4       1.0  0.7225874653193783  0.23562669612104503  0.6365060442445623  1.0000
  H   H1        1.0  0.5991938429800213  0.8749731725777109  0.0234401467392544  1.0000
  H   H2        1.0  0.9008260269674936  0.6250200377017875  0.5234416479314348  1.0000
  H   H3        1.0  0.40079678454868883  0.12503513526680615  0.9765586591674305  1.0000
  H   H4        1.0  0.09917611313607465  0.3749805767550426  0.47656085352807037  1.0000
  H   H5        1.0  0.5285377643291868  0.8373347458437264  0.15571767084453816  1.0000
  H   H6        1.0  0.9714696326042543  0.6626630371251493  0.6557171884660917  1.0000
  H   H7        1.0  0.4714503360966021  0.16267357329367368  0.8442806071253839  1.0000
  H   H8        1.0  0.028527974707166847  0.3373386892927498  0.34428320125192596  1.0000
  H   H9        1.0  0.1633882575998413  0.5978185241174003  0.19647122530454905  1.0000
  H   H10       1.0  0.33661641685040417  0.902174329922019  0.6964729771021749  1.0000
  H   H11       1.0  0.8366144038835583  0.40218317971399387  0.8035286364846355  1.0000
  H   H12       1.0  0.663389654474088  0.09781862502476456  0.30352952436341235  1.0000
  C   C1        1.0  0.09192024722123898  0.5547883425641301  0.025532958280486195  1.0000
  C   C2        1.0  0.40809793382913284  0.9452108073491771  0.5255358930497065  1.0000
  C   C3        1.0  0.9080905169394813  0.4452144167629442  0.9744653197145465  1.0000
  C   C4        1.0  0.5919152774463471  0.05478648251509099  0.47446766429045056  1.0000
  C   C5        1.0  0.4407023534682892  0.7769322797427874  0.04569190152997039  1.0000
  C   C6        1.0  0.05932174394839505  0.723066866608022  0.5456905268055791  1.0000
  C   C7        1.0  0.5592847040962212  0.22307386064323956  0.9543069043735456  1.0000
  C   C8        1.0  0.9406824017314933  0.2769326471781284  0.4543082791174981  1.0000
  C   C9        1.0  0.4041441970956329  0.7557888665677837  0.11827119514083508  1.0000
  C   C10       1.0  0.09586375092294462  0.7442071592082938  0.6182725255303649  1.0000
  C   C11       1.0  0.5958337148625361  0.24421403956969806  0.8817265548857233  1.0000
  C   C12       1.0  0.9041393519408275  0.25579017582748514  0.3817289200627627  1.0000
  C   C13       1.0  0.20435103616132005  0.624560182568885  0.14080272043894834  1.0000
  C   C14       1.0  0.29565089592068705  0.8754424459007237  0.6408065121976987  1.0000
  C   C15       1.0  0.7956486567823261  0.37544590134976363  0.8591923899389681  1.0000
  C   C16       1.0  0.7043552554710004  0.12455596721773077  0.35919493339833497  1.0000
  N   N1        1.0  0.28378955938437395  0.6772014498516511  0.9993308323733884  1.0000
  N   N2        1.0  0.2162297138773041  0.8228004163217404  0.49933013060165615  1.0000
  N   N3        1.0  0.7162243334279241  0.3228078457310274  0.0006690294255732998  1.0000
  N   N4        1.0  0.7837719047448245  0.17719910875828754  0.5006702591211221  1.0000
  N   N5        1.0  0.052871425944140106  0.5238809220060147  0.09449273551527428  1.0000
  N   N6        1.0  0.4471345422315877  0.9761183607495595  0.5944957358905468  1.0000
  N   N7        1.0  0.9471388167915863  0.4761207479455011  0.905506070413608  1.0000
  N   N8        1.0  0.5528730934017503  0.0238778623246532  0.4055067655758363  1.0000
  Cl  Cl1       1.0  0.9184271810651907  0.9230428403627328  0.9009868089418656  1.0000
  Cl  Cl2       1.0  0.581556290471788  0.5769520527717303  0.4009864807738522  1.0000
  Cl  Cl3       1.0  0.0815612806060173  0.07695565180587487  0.09901094109685717  1.0000
  Cl  Cl4       1.0  0.41844071533614624  0.4230431260986832  0.5990149648134631  1.0000
  Cl  Cl5       1.0  0.5147529618779603  0.634640688255196  0.7703259357332825  1.0000
  Cl  Cl6       1.0  0.9852315393339238  0.8653573271052364  0.27032788578642186  1.0000
  Cl  Cl7       1.0  0.4852476138490119  0.365356658072713  0.229673398120731  1.0000
  Cl  Cl8       1.0  0.014765466462726777  0.13463785176492848  0.729673031866781  1.0000
