data_image0
_chemical_formula_structural       Al2H7C20S2Br2O10F
_chemical_formula_sum              "Al2 H7 C20 S2 Br2 O10 F1"
_cell_length_a       6.625126729433488
_cell_length_b       11.187965616616097
_cell_length_c       12.756653518216647
_cell_angle_alpha    81.74965479986463
_cell_angle_beta     74.78830233496082
_cell_angle_gamma    71.60541373589984

_space_group_name_H-M_alt    "P 1"
_space_group_IT_number       1

loop_
  _space_group_symop_operation_xyz
  'x, y, z'

loop_
  _atom_site_type_symbol
  _atom_site_label
  _atom_site_symmetry_multiplicity
  _atom_site_fract_x
  _atom_site_fract_y
  _atom_site_fract_z
  _atom_site_occupancy
  Al  Al1       1.0  0.4989894652931139  0.5017725899731148  0.5012824997551135  1.0000
  Al  Al2       1.0  0.9997396073860614  0.4987618453500247  0.5030423969480609  1.0000
  H   H1        1.0  0.29038117120588675  0.35556496393941467  0.5827727373872662  1.0000
  H   H2        1.0  0.7026932359687236  0.654815017093199  0.4464181409151137  1.0000
  H   H3        1.0  0.7025339481488256  0.5512825500130276  0.14760260801462982  1.0000
  H   H4        1.0  0.2101368495037973  0.2392400698387506  0.34467711042546517  1.0000
  H   H5        1.0  0.5449938901136945  0.12501339923257856  0.2195599970885311  1.0000
  H   H6        1.0  0.4292874774474809  0.7696951486098199  0.3495197063382349  1.0000
  H   H7        1.0  0.6540876108618009  0.8893943820550873  0.2217298202989538  1.0000
  C   C1        1.0  0.861022242824191  0.275690577506559  0.49422966384586436  1.0000
  C   C2        1.0  0.6596876897283007  0.49719352910091164  0.6972491590459171  1.0000
  C   C3        1.0  0.13324983592559628  0.7262169983477237  0.509270838334821  1.0000
  C   C4        1.0  0.3365793921834593  0.5015386447391634  0.30665727973646284  1.0000
  C   C5        1.0  0.41612364131109536  0.46939617344873596  0.8873512149974162  1.0000
  C   C6        1.0  0.5817565010538456  0.5265181841847949  0.11823654305548102  1.0000
  C   C7        1.0  0.59427183191071  0.49877310266946023  0.8160880678997771  1.0000
  C   C8        1.0  0.40104975062241965  0.49886940231721877  0.18756422131033187  1.0000
  C   C9        1.0  0.5850736086964827  0.5166583609071724  0.008597340586135302  1.0000
  C   C10       1.0  0.40715526161800136  0.4799257030610278  0.9973920757022867  1.0000
  C   C11       1.0  0.9305546072672753  0.1340234931220223  0.49779691120765085  1.0000
  C   C12       1.0  0.12590000039521237  0.07010390850752657  0.4240469691321991  1.0000
  C   C13       1.0  0.8073418317727385  0.06643752281733839  0.5725680344739957  1.0000
  C   C14       1.0  0.25723056084075313  0.13661284972594254  0.34718395362590837  1.0000
  C   C15       1.0  0.4449501021308321  0.07245661539655403  0.2769964135115046  1.0000
  C   C16       1.0  0.060190431080037805  0.867901187067865  0.5052087066090536  1.0000
  C   C17       1.0  0.8731388771467006  0.9323777477975171  0.5768576325860976  1.0000
  C   C18       1.0  0.19060363238651215  0.9347973319796808  0.42695989626910347  1.0000
  C   C19       1.0  0.381758074586571  0.8720557616638304  0.35100300931028267  1.0000
  C   C20       1.0  0.5068354072589684  0.9393892545734701  0.27851949144659477  1.0000
  S   S1        1.0  0.7572465683735953  0.5379628110622647  0.8846548956512309  1.0000
  S   S2        1.0  0.23470685650364922  0.4591690900246733  0.1209523433888151  1.0000
  Br  Br1       1.0  0.7128042639724227  0.840897552825943  0.6852355551462422  1.0000
  Br  Br2       1.0  0.5572716436080326  0.15235542239433636  0.6761272348248966  1.0000
  O   O1        1.0  0.6797282016563172  0.3332717529659632  0.4695723900879756  1.0000
  O   O2        1.0  0.8440016730244436  0.5170349311338356  0.6524271309822751  1.0000
  O   O3        1.0  0.008252966584663502  0.6716412875778274  0.48821282232233904  1.0000
  O   O4        1.0  0.4618722493740108  0.5304949292179159  0.35307362837056633  1.0000
  O   O5        1.0  0.3199154030056447  0.6718464638498816  0.5294118129932172  1.0000
  O   O6        1.0  0.15715573808284228  0.4765920250594958  0.3531062443193704  1.0000
  O   O7        1.0  0.9896096179556437  0.3271561351013972  0.5160308902547968  1.0000
  O   O8        1.0  0.5305775500824479  0.4751732059984165  0.6491524813562464  1.0000
  O   O9        1.0  0.25962249126190756  0.44020340392437174  0.5475933048359211  1.0000
  O   O10       1.0  0.7402936194650845  0.5632932089859679  0.4553900892924219  1.0000
  F   F1        1.0  0.2674102098121906  0.4318958689695833  0.8567748182055155  1.0000
