data_image0
_chemical_formula_structural       Zn4H52C32S8N8Cl4O16
_chemical_formula_sum              "Zn4 H52 C32 S8 N8 Cl4 O16"
_cell_length_a       5.819488547
_cell_length_b       9.631567348
_cell_length_c       22.194
_cell_angle_alpha    90.0
_cell_angle_beta     90.0
_cell_angle_gamma    90.0

_space_group_name_H-M_alt    "P 1"
_space_group_IT_number       1

loop_
  _space_group_symop_operation_xyz
  'x, y, z'

loop_
  _atom_site_type_symbol
  _atom_site_label
  _atom_site_symmetry_multiplicity
  _atom_site_fract_x
  _atom_site_fract_y
  _atom_site_fract_z
  _atom_site_occupancy
  Zn  Zn1       1.0  0.1543640807512361  0.11575997547600991  0.9139952239343998  1.0000
  Zn  Zn2       1.0  0.6543667831364813  0.3842334135542842  0.0860025232044705  1.0000
  Zn  Zn3       1.0  0.8456361689270651  0.6157658235376928  0.5860038749211469  1.0000
  Zn  Zn4       1.0  0.3456283114496159  0.8842382233633543  0.4139965756510763  1.0000
  H   H1        1.0  0.3935964443440269  0.4020944733158274  0.7120802919707999  1.0000
  H   H2        1.0  0.893602583457408  0.0978999539670795  0.28792241146256  1.0000
  H   H3        1.0  0.606403805334267  0.9020961683670521  0.7879210597458766  1.0000
  H   H4        1.0  0.1064028213130896  0.597902687270917  0.2120820942597064  1.0000
  H   H5        1.0  0.6979788631243123  0.4260521524414287  0.7028904208344571  1.0000
  H   H6        1.0  0.19798303419532454  0.073943313094091  0.2971127331711259  1.0000
  H   H7        1.0  0.30202310491805656  0.9260517709874208  0.7971118320266726  1.0000
  H   H8        1.0  0.802022370575173  0.5739460463979285  0.20288951969000385  1.0000
  H   H9        1.0  0.8638731667564838  0.0450144804407202  0.736145354600339  1.0000
  H   H10       1.0  0.3638635909149741  0.45498617635788463  0.2638537442552007  1.0000
  H   H11       1.0  0.13612364619368117  0.5450192902497903  0.7638505902496179  1.0000
  H   H12       1.0  0.6361297853070624  0.9549857949038767  0.23614715688925267  1.0000
  H   H13       1.0  0.9851140617770184  0.2088434755551702  0.7116391817608374  1.0000
  H   H14       1.0  0.4851182328480305  0.2911592577486672  0.2883612688113928  1.0000
  H   H15       1.0  0.014887906265350597  0.7088482853642404  0.7883594665224862  1.0000
  H   H16       1.0  0.5148888902865281  0.7911557615368068  0.21163963233306052  1.0000
  H   H17       1.0  0.6556710214623607  0.42134679158348126  0.8119099756691028  1.0000
  H   H18       1.0  0.15568550271777326  0.0786465974468129  0.1880931783364872  1.0000
  H   H19       1.0  0.3443257914878045  0.9213567926556295  0.688092727764257  1.0000
  H   H20       1.0  0.8443267755089892  0.5786503690032632  0.3119108768135561  1.0000
  H   H21       1.0  0.9450950810506028  0.2684838206044375  0.8066882941335508  1.0000
  H   H22       1.0  0.44509581539348625  0.2315106066784693  0.1933130575831328  1.0000
  H   H23       1.0  0.054905168627698196  0.768492783423973  0.6933103541497729  1.0000
  H   H24       1.0  0.5549027159207468  0.7315133399823068  0.30668919527800403  1.0000
  H   H25       1.0  0.7455380253710828  0.1463064057058787  0.8231247183923573  1.0000
  H   H26       1.0  0.24554047807802695  0.3536859450717955  0.17687528160764293  1.0000
  H   H27       1.0  0.2544622243072183  0.6463184832832667  0.6768734793187363  1.0000
  H   H28       1.0  0.754459771600267  0.853688678375633  0.3231260701090406  1.0000
  H   H29       1.0  0.16094369675885636  0.8818274007878557  0.9754212850319918  1.0000
  H   H30       1.0  0.6609549909644343  0.6181724931027263  0.0245778138235551  1.0000
  H   H31       1.0  0.8390462427350511  0.3818298587470963  0.5245787149680083  1.0000
  H   H32       1.0  0.3390469770779347  0.11817598931458662  0.4754217356042147  1.0000
  H   H33       1.0  0.3079995751386093  0.8485794372498603  0.09617734522844053  1.0000
  H   H34       1.0  0.8080022775238547  0.6514183801354889  0.9038190501937465  1.0000
  H   H35       1.0  0.6920023929037525  0.348581895209108  0.4038217536271064  1.0000
  H   H36       1.0  0.19199797215443937  0.1514260293578147  0.5961773452284405  1.0000
  H   H37       1.0  0.4832984853024412  0.9954402698529492  0.1157930071190378  1.0000
  H   H38       1.0  0.9832994693236257  0.5045596240376327  0.8842047400198254  1.0000
  H   H39       1.0  0.5167017643758598  0.495441689559577  0.3842056411642787  1.0000
  H   H40       1.0  0.016704217082803997  0.0045662350073385  0.6157961611246279  1.0000
  H   H41       1.0  0.5967878400225358  0.014911384078089902  0.9431166080922752  1.0000
  H   H42       1.0  0.0968023212779414  0.48508304320481704  0.056878435613228404  1.0000
  H   H43       1.0  0.4032038178354398  0.51491619388716  0.5568806884743651  1.0000
  H   H44       1.0  0.9032013651284883  0.9850847382560418  0.4431202126700882  1.0000
  H   H45       1.0  0.4948991611100766  0.8431774088862412  0.9280909254753525  1.0000
  H   H46       1.0  0.9949173287719191  0.6568172937412555  0.071907272235741  1.0000
  H   H47       1.0  0.5050890600197632  0.3431840198559541  0.5719086239524174  1.0000
  H   H48       1.0  0.005082920906382099  0.156820789953116  0.42809182661980577  1.0000
  H   H49       1.0  0.0851604047327257  0.0364966559750002  0.0531823916373781  1.0000
  H   H50       1.0  0.5851716989383036  0.4634998478131394  0.9468171577903917  1.0000
  H   H51       1.0  0.9148346898533715  0.5365004275314575  0.4468180589348449  1.0000
  H   H52       1.0  0.4148319874681263  0.9635046576222096  0.5531828422096083  1.0000
  C   C1        1.0  0.8349530995305159  0.156591336124869  0.7311512120392933  1.0000
  C   C2        1.0  0.3349503971452705  0.3434093206737359  0.2688501396773901  1.0000
  C   C3        1.0  0.1650488685118461  0.6565961459339391  0.7688469856718001  1.0000
  C   C4        1.0  0.6650481341689627  0.8434068627144882  0.2311525637559697  1.0000
  C   C5        1.0  0.6004376452981077  0.3273620882332011  0.787705235649277  1.0000
  C   C6        1.0  0.100441816369127  0.1726323390497058  0.21229566549517645  1.0000
  C   C7        1.0  0.3995626043801863  0.8273689745475039  0.7122947643507233  1.0000
  C   C8        1.0  0.8995601516732421  0.6726340341009234  0.2877061367937301  1.0000
  C   C9        1.0  0.5633931527694429  0.3581888466695275  0.7211138145444737  1.0000
  C   C10       1.0  0.06339388711232628  0.1418086953712248  0.2788888888888863  1.0000
  C   C11       1.0  0.4366105336369869  0.8581895034681324  0.77888753717221  1.0000
  C   C12       1.0  0.9366063625659675  0.6418083139172168  0.2211142651166966  1.0000
  C   C13       1.0  0.3807396444043576  0.2741360678486302  0.8188244570604654  1.0000
  C   C14       1.0  0.8807251631489449  0.22584486215026092  0.1811791475173479  1.0000
  C   C15       1.0  0.6192657603661401  0.7741471071734054  0.6811755429395348  1.0000
  C   C16       1.0  0.1192561845246303  0.7258642074959596  0.3188253582049185  1.0000
  C   C17       1.0  0.49970886213001353  0.9271886576024785  0.961353969541321  1.0000
  C   C18       1.0  0.9997201563355842  0.5728070832776382  0.038642425880866  1.0000
  C   C19       1.0  0.5002845140920228  0.4271942303195715  0.5386446787420028  1.0000
  C   C20       1.0  0.0002800933427096  0.0728116177421114  0.4613562224024506  1.0000
  C   C21       1.0  0.2645094989994519  0.0298798720500812  0.0375191493196354  1.0000
  C   C22       1.0  0.764513919748765  0.4701197464959037  0.9624790483914583  1.0000
  C   C23       1.0  0.7354890323147814  0.5298826053539187  0.4624808506803646  1.0000
  C   C24       1.0  0.23548461156546807  0.9701204032945085  0.537520501036319  1.0000
  C   C25       1.0  0.40870258284572  0.9359172473493444  0.0785469045688032  1.0000
  C   C26       1.0  0.9086966934106397  0.5640784935307721  0.921450391997837  1.0000
  C   C27       1.0  0.5913011035607099  0.4359197053085921  0.4214526448589737  1.0000
  C   C28       1.0  0.09129496444732867  0.0640861427530979  0.5785478057132565  1.0000
  C   C29       1.0  0.3562426462835333  0.1796934950944831  0.0334581418401356  1.0000
  C   C30       1.0  0.856240193576582  0.3203071617041218  0.9665360007209145  1.0000
  C   C31       1.0  0.6437558850306998  0.679694151893088  0.4665364512931448  1.0000
  C   C32       1.0  0.1437600561017121  0.8203088567553465  0.5334590429845889  1.0000
  S   S1        1.0  0.5842609659834749  0.1890948725368347  0.6856344056952325  1.0000
  S   S2        1.0  0.08425998196229759  0.310900592998685  0.3143660448769907  1.0000
  S   S3        1.0  0.4157427204229548  0.6890955293354395  0.814362890871408  1.0000
  S   S4        1.0  0.9157454228082003  0.8109022880499097  0.1856366585563691  1.0000
  S   S5        1.0  0.6399325249844877  0.8686675488737876  0.0313801027304663  1.0000
  S   S6        1.0  0.13993669605549997  0.6313344215220269  0.9686153915472674  1.0000
  S   S7        1.0  0.3600660063297454  0.36867000683303536  0.4686180949806271  1.0000
  S   S8        1.0  0.8600566801665366  0.1313327264708022  0.5313823555916032  1.0000
  N   N1        1.0  0.7896501493020267  0.2218642016186223  0.7916031359826974  1.0000
  N   N2        1.0  0.2896474469167813  0.27813126391690457  0.2083973145895257  1.0000
  N   N3        1.0  0.21035353710440313  0.7218731644381577  0.7083950617283961  1.0000
  N   N4        1.0  0.7103510843974516  0.7781308824628894  0.2916044876993809  1.0000
  N   N5        1.0  0.2640919365314787  0.9691351015614558  0.9766180048661823  1.0000
  N   N6        1.0  0.7641015123729885  0.5308616775712736  0.0233801928449111  1.0000
  N   N7        1.0  0.73589972132649  0.4691375595207036  0.523382445706048  1.0000
  N   N8        1.0  0.2359004556693733  0.030865173783134005  0.4766193565828588  1.0000
  Cl  Cl1       1.0  0.9396598955107436  0.9486098855859879  0.8591664413805518  1.0000
  Cl  Cl2       1.0  0.4396640665817627  0.5513806640310506  0.14083220690276482  1.0000
  Cl  Cl3       1.0  0.0603403541675505  0.4486196113135463  0.6408335586194482  1.0000
  Cl  Cl4       1.0  0.5603413381887349  0.051384160242911  0.3591691448139116  1.0000
  O   O1        1.0  0.4020525139114071  0.16802768869555254  0.8528444624673314  1.0000
  O   O2        1.0  0.9020517795685237  0.3319667385873544  0.1471546363882155  1.0000
  O   O3        1.0  0.5979494541309549  0.6680324985046227  0.6471559881048918  1.0000
  O   O4        1.0  0.09794503338164157  0.8319694718911919  0.3528431107506549  1.0000
  O   O5        1.0  0.20065337195344304  0.3423025433845481  0.8085347391186775  1.0000
  O   O6        1.0  0.700664666159021  0.1576856543826537  0.19146616202577602  1.0000
  O   O7        1.0  0.7993434409967219  0.842315659214556  0.691463008020186  1.0000
  O   O8        1.0  0.2993493304318022  0.6576894259391111  0.3085333874020009  1.0000
  O   O9        1.0  0.3580434918244038  0.2391479929253961  0.9831242678201306  1.0000
  O   O10       1.0  0.8580530676659137  0.2608516256205888  0.0168752816076392  1.0000
  O   O11       1.0  0.6419567578538974  0.7391538409870861  0.5168770838965457  1.0000
  O   O12       1.0  0.1419506187405162  0.7608553971770462  0.4831251689645839  1.0000
  O   O13       1.0  0.9228869438653076  0.267744584741493  0.9165400558709537  1.0000
  O   O14       1.0  0.4228876782081912  0.23225711030972462  0.0834599441290464  1.0000
  O   O15       1.0  0.07711330581298628  0.7677431650348652  0.5834608452734998  1.0000
  O   O16       1.0  0.5771074163779061  0.7322525758452515  0.4165418581598601  1.0000
