data_image0
_chemical_formula_structural       Zn2H24C24N12O18
_chemical_formula_sum              "Zn2 H24 C24 N12 O18"
_cell_length_a       7.355657919583365
_cell_length_b       11.66693948747942
_cell_length_c       14.935027272065652
_cell_angle_alpha    113.00997170360044
_cell_angle_beta     100.73633382623801
_cell_angle_gamma    89.9826131466049

_space_group_name_H-M_alt    "P 1"
_space_group_IT_number       1

loop_
  _space_group_symop_operation_xyz
  'x, y, z'

loop_
  _atom_site_type_symbol
  _atom_site_label
  _atom_site_symmetry_multiplicity
  _atom_site_fract_x
  _atom_site_fract_y
  _atom_site_fract_z
  _atom_site_occupancy
  Zn  Zn1       1.0  0.9999996759749836  2.2128157084007013e-06  0.5000014099947876  1.0000
  Zn  Zn2       1.0  0.5000000643376765  0.5000004529473543  0.4999997606464106  1.0000
  H   H1        1.0  0.9702659081649332  0.8356075563009497  0.28957777436276905  1.0000
  H   H2        1.0  0.470731579972636  0.45353597911609717  0.28963437344028625  1.0000
  H   H3        1.0  0.029738716009610807  0.1643961300389805  0.7104263619716986  1.0000
  H   H4        1.0  0.5292676037819037  0.5464686769616379  0.710364211678673  1.0000
  H   H5        1.0  0.8914756905083578  0.8368479266113409  0.11992748989624151  1.0000
  H   H6        1.0  0.39206143794760356  0.28259908521787486  0.11997814441474475  1.0000
  H   H7        1.0  0.10852632380607469  0.1631454878333116  0.8800725669651186  1.0000
  H   H8        1.0  0.6079427306160881  0.7174008865687966  0.8800214552842361  1.0000
  H   H9        1.0  0.8436714686863314  0.23525406857589104  0.2614686156086918  1.0000
  H   H10       1.0  0.34443816414773215  0.025640041329850788  0.2613734227112232  1.0000
  H   H11       1.0  0.1563285487128994  0.7647459031079932  0.7385306070122296  1.0000
  H   H12       1.0  0.6555532276005707  0.9743571052259696  0.738627491685804  1.0000
  H   H13       1.0  0.926777040354523  0.21672578165449605  0.4240014360386226  1.0000
  H   H14       1.0  0.4272887262713568  0.2068035104752398  0.42395007073544383  1.0000
  H   H15       1.0  0.07322446994104584  0.783275128732477  0.5759975425573033  1.0000
  H   H16       1.0  0.5727097961302619  0.7931955269635652  0.5760487275208988  1.0000
  H   H17       1.0  0.6895642378415515  0.8286002392290825  0.41631357698228294  1.0000
  H   H18       1.0  0.1896526079729952  0.5873041244754091  0.4162334648483821  1.0000
  H   H19       1.0  0.31043440003873707  0.1713997235045355  0.583686856725123  1.0000
  H   H20       1.0  0.8103460236034792  0.4126958516322148  0.5837649636902711  1.0000
  H   H21       1.0  0.8696557464757078  0.7521221837660549  0.41814362124411986  1.0000
  H   H22       1.0  0.3696316122109806  0.6656636093705545  0.4180292329245106  1.0000
  H   H23       1.0  0.1303444997795893  0.24787964296545795  0.5818582038893395  1.0000
  H   H24       1.0  0.6303669038868237  0.33433544144226357  0.5819675601630934  1.0000
  C   C1        1.0  0.9426271487268212  0.9218188877415943  0.2793864589340629  1.0000
  C   C2        1.0  0.44311004744871246  0.35713209592341133  0.2794370146604948  1.0000
  C   C3        1.0  0.057376916965836196  0.07818013200223817  0.7206155156513531  1.0000
  C   C4        1.0  0.5568883678793243  0.6428659983885581  0.720562821703119  1.0000
  C   C5        1.0  0.89673462707092  0.9228522303811674  0.18540969712297087  1.0000
  C   C6        1.0  0.39728736893320626  0.2620735060634161  0.1854252382065624  1.0000
  C   C7        1.0  0.10326252421685211  0.07714678027534211  0.8145929857781765  1.0000
  C   C8        1.0  0.6027156279548793  0.7379283564006583  0.8145714911956147  1.0000
  C   C9        1.0  0.8567231852400142  0.036248402013072216  0.17691790055879858  1.0000
  C   C10       1.0  0.357309159880849  0.14014414690547744  0.1768552700177182  1.0000
  C   C11       1.0  0.1432751167106332  0.9637487625460892  0.8230809687433407  1.0000
  C   C12       1.0  0.6426922496449592  0.8598558069806542  0.8231467518542175  1.0000
  C   C13       1.0  0.870940503627189  0.1447352438040355  0.2638190181082365  1.0000
  C   C14       1.0  0.3716529873900854  0.11852549678759061  0.2637405762297078  1.0000
  C   C15       1.0  0.12905757787248723  0.8552600478754755  0.7361799222396925  1.0000
  C   C16       1.0  0.6283444306553959  0.8814641807109922  0.7362579088660155  1.0000
  C   C17       1.0  0.9179232693051702  0.1346647782761679  0.3550464496461814  1.0000
  C   C18       1.0  0.4185020439002471  0.21985001553808564  0.35498486528074114  1.0000
  C   C19       1.0  0.082077081922435  0.865337996040175  0.6449536689904249  1.0000
  C   C20       1.0  0.5815017992401652  0.7801471357841125  0.6450165119608898  1.0000
  C   C21       1.0  0.7981106400255628  0.03839297387424521  0.07920700592347879  1.0000
  C   C22       1.0  0.2984050430864897  0.0404911614673935  0.0790590596480243  1.0000
  C   C23       1.0  0.20189469811245428  0.9616051116930321  0.9207947956827309  1.0000
  C   C24       1.0  0.7015943066559982  0.9595032049515735  0.9209383709415349  1.0000
  N   N1        1.0  0.9508262949235162  0.025148306580774705  0.3629445129394425  1.0000
  N   N2        1.0  0.4512892625672294  0.3373313274993777  0.3629465734580819  1.0000
  N   N3        1.0  0.04917660329608253  0.9748525949244496  0.6370559281283336  1.0000
  N   N4        1.0  0.548709358502876  0.6626686708982774  0.6370485131326689  1.0000
  N   N5        1.0  0.7810397897503735  0.13239580119629582  0.05148478995116081  1.0000
  N   N6        1.0  0.2807868726875569  0.9187084624606427  0.05104934141872524  1.0000
  N   N7        1.0  0.21896587591219693  0.8676051003774602  0.9485159025019881  1.0000
  N   N8        1.0  0.7192148643628045  0.08129430743196049  0.9489515713001495  1.0000
  N   N9        1.0  0.6508083029907539  0.12131344723302823  0.5814020404063668  1.0000
  N   N10       1.0  0.15064058238316144  0.4604311973253772  0.5814395039690012  1.0000
  N   N11       1.0  0.349193205203541  0.8786874676119467  0.41859626979997705  1.0000
  N   N12       1.0  0.849357226054991  0.5395734408860733  0.4185616290156061  1.0000
  O   O1        1.0  0.7496963400047039  0.925804290923473  0.999990668204063  1.0000
  O   O2        1.0  0.2503078306602546  0.0741956764051963  9.599884499812818e-06  1.0000
  O   O3        1.0  0.826114563854212  0.8345958891396064  0.4226719794680917  1.0000
  O   O4        1.0  0.3261957364065822  0.5876555817962483  0.4224875916158338  1.0000
  O   O5        1.0  0.1738859154596923  0.1654077837235235  0.5773337849570622  1.0000
  O   O6        1.0  0.6738014001722804  0.41234346006629596  0.5775104125582401  1.0000
  O   O7        1.0  0.7870088873163468  0.1325159479835847  0.5425349951835726  1.0000
  O   O8        1.0  0.2868107426936534  0.4103484303981872  0.5424840641984261  1.0000
  O   O9        1.0  0.21299123505519196  0.867484971285137  0.45746252094049566  1.0000
  O   O10       1.0  0.7131897240126153  0.589655269212969  0.4575176898892366  1.0000
  O   O11       1.0  0.6229048502791559  0.029245473274542595  0.6006827418234195  1.0000
  O   O12       1.0  0.12277610427783263  0.5718462576619673  0.6009413752135799  1.0000
  O   O13       1.0  0.3770978253881979  0.9707535598090401  0.39931710190056435  1.0000
  O   O14       1.0  0.8772213682306715  0.4281555823750338  0.3990581933657609  1.0000
  O   O15       1.0  0.5432357332432431  0.2107194135870785  0.6003329740904277  1.0000
  O   O16       1.0  0.04306168189934571  0.3898426739454877  0.600221849604452  1.0000
  O   O17       1.0  0.45676428205471353  0.789280562554815  0.39966558014091186  1.0000
  O   O18       1.0  0.9569360131614105  0.6101610345131476  0.3997783163186739  1.0000
