data_image0
_chemical_formula_structural       Zn4H44C64N4O20
_chemical_formula_sum              "Zn4 H44 C64 N4 O20"
_cell_length_a       9.733219194772252
_cell_length_b       10.492937393359847
_cell_length_c       14.573369114746706
_cell_angle_alpha    86.98209155742889
_cell_angle_beta     80.68322021730935
_cell_angle_gamma    71.58772018767777

_space_group_name_H-M_alt    "P 1"
_space_group_IT_number       1

loop_
  _space_group_symop_operation_xyz
  'x, y, z'

loop_
  _atom_site_type_symbol
  _atom_site_label
  _atom_site_symmetry_multiplicity
  _atom_site_fract_x
  _atom_site_fract_y
  _atom_site_fract_z
  _atom_site_occupancy
  Zn  Zn1       1.0  0.19260945397005003  0.0723407912766731  0.11584731088085931  1.0000
  Zn  Zn2       1.0  0.8073891137313753  0.9276613283062358  0.8841526423967923  1.0000
  Zn  Zn3       1.0  0.7592330769879682  0.09225065684768198  0.3896715129488442  1.0000
  Zn  Zn4       1.0  0.24077172373306877  0.9077514809532301  0.6103298342534843  1.0000
  H   H1        1.0  0.23656186455459494  0.283309603642074  0.9798330539808902  1.0000
  H   H2        1.0  0.7634349634815577  0.7166884708239608  0.020164511099260155  1.0000
  H   H3        1.0  0.3428396420559991  0.29745444089940076  0.8134706246762207  1.0000
  H   H4        1.0  0.65715892762951  0.7025446367159133  0.1865267124065896  1.0000
  H   H5        1.0  0.47385530742214155  0.8639513931861983  0.804216589376999  1.0000
  H   H6        1.0  0.5261387356248194  0.1360487207311678  0.1957839307892257  1.0000
  H   H7        1.0  0.352364086502412  0.8681802540276495  0.968837787638911  1.0000
  H   H8        1.0  0.6476323803182567  0.1318188542084044  0.031162516949073925  1.0000
  H   H9        1.0  0.3338449686656091  0.26478266927126975  0.6519559091837694  1.0000
  H   H10       1.0  0.6661598027393866  0.7352103939976472  0.3480423944394815  1.0000
  H   H11       1.0  0.47397791775858183  0.2536403538043571  0.4914471482370573  1.0000
  H   H12       1.0  0.5260292623051441  0.7463517257993076  0.5085529990959972  1.0000
  H   H13       1.0  0.7876807773923955  0.9005641395109693  0.5504852358156  1.0000
  H   H14       1.0  0.2123222221332882  0.09942796464076759  0.4495174143810701  1.0000
  H   H15       1.0  0.6606945062516303  0.8948804899995935  0.7115743705333842  1.0000
  H   H16       1.0  0.33930330161020095  0.10511159530113187  0.28842677484471585  1.0000
  H   H17       1.0  0.09884405725451727  0.37267344508695294  0.3951539525116203  1.0000
  H   H18       1.0  0.9011503651771589  0.6273286476732521  0.6048436986242152  1.0000
  H   H19       1.0  0.024821910666460768  0.608528405525682  0.4531550208517672  1.0000
  H   H20       1.0  0.9751777235823695  0.3914736767308043  0.54684138938525  1.0000
  H   H21       1.0  0.9456182592523137  0.754746715544627  0.1798878393459589  1.0000
  H   H22       1.0  0.05438206521344572  0.24525638517150836  0.8201098266463092  1.0000
  H   H23       1.0  0.1406583184804049  0.6458877555467805  0.037549427893843315  1.0000
  H   H24       1.0  0.8593433833649798  0.35411434745974185  0.9624488198434307  1.0000
  H   H25       1.0  0.1265767130483368  0.6109071152456947  0.8743606802258839  1.0000
  H   H26       1.0  0.8734222108302563  0.3890939779058726  0.1256372199732709  1.0000
  H   H27       1.0  0.3241009866922725  0.7312260114691114  0.32426808714930644  1.0000
  H   H28       1.0  0.6759013751400788  0.26877715402915214  0.6757355349192979  1.0000
  H   H29       1.0  0.3987698496166204  0.5783467317310597  0.047132416290395426  1.0000
  H   H30       1.0  0.6012318250530413  0.4216584499364657  0.9528718797884466  1.0000
  H   H31       1.0  0.574452088873052  0.3648648339634518  0.09636027316877006  1.0000
  H   H32       1.0  0.42554853634827333  0.6351373210468481  0.903642890467829  1.0000
  H   H33       1.0  0.25305781611358924  0.5804059155501162  0.4538493435927081  1.0000
  H   H34       1.0  0.7469438837477114  0.41959922942399414  0.5461515203394001  1.0000
  H   H35       1.0  0.2773501017315638  0.55892036643408  0.6196802167919275  1.0000
  H   H36       1.0  0.7226505204355078  0.44107875394731627  0.3803210170791829  1.0000
  H   H37       1.0  0.932307961065206  0.17438011112050583  0.4772020264426331  1.0000
  H   H38       1.0  0.06769720896389232  0.825624020200614  0.522797824588004  1.0000
  H   H39       1.0  0.9630795369111029  0.2037845160635925  0.3664183961965577  1.0000
  H   H40       1.0  0.036920431377495885  0.7962196110838774  0.6335813228742  1.0000
  H   H41       1.0  0.9938452626740928  0.9804136240084275  0.1053066459191925  1.0000
  H   H42       1.0  0.006162309905242604  0.019583454389618296  0.8946911892902706  1.0000
  H   H43       1.0  0.9019605411447242  0.12555266167419182  0.15257301306232315  1.0000
  H   H44       1.0  0.09804009308309256  0.8744434020622477  0.8474242317552554  1.0000
  C   C1        1.0  0.28837926005353154  0.19318302643395668  0.9375917991872242  1.0000
  C   C2        1.0  0.7116193045936471  0.8068160585200417  0.062406224324938385  1.0000
  C   C3        1.0  0.3475030595393704  0.1998613996810263  0.8446993053100302  1.0000
  C   C4        1.0  0.6524975777426861  0.800137698684324  0.15529986927303702  1.0000
  C   C5        1.0  0.4160351511232038  0.08081319237231097  0.7938876775098009  1.0000
  C   C6        1.0  0.5839637112252947  0.919181912246941  0.2061139138812038  1.0000
  C   C7        1.0  0.42163436795104303  0.9592056660801089  0.8401743951035102  1.0000
  C   C8        1.0  0.5783638273880812  0.0407914253536816  0.15982512458034387  1.0000
  C   C9        1.0  0.35662648842730255  0.9602519350857506  0.9320242751367049  1.0000
  C   C10       1.0  0.6433713759262929  0.03974614608596029  0.06797386547890481  1.0000
  C   C11       1.0  0.4856053092932625  0.07973627437150548  0.6962213402484992  1.0000
  C   C12       1.0  0.5143963229294573  0.9202568128124752  0.3037793553444743  1.0000
  C   C13       1.0  0.43341688558489017  0.1814502215832832  0.6325748400939659  1.0000
  C   C14       1.0  0.5665878858201056  0.8185428416856337  0.3674234635292778  1.0000
  C   C15       1.0  0.5103023370102449  0.1762707111344923  0.5429478500366258  1.0000
  C   C16       1.0  0.48970070083797185  0.823724376275379  0.4570519249201085  1.0000
  C   C17       1.0  0.6850291361570414  0.9772371860325321  0.5755151684709503  1.0000
  C   C18       1.0  0.31497562517130023  0.0227558919137536  0.4244845080109982  1.0000
  C   C19       1.0  0.6126670998736258  0.9748280945996014  0.6650695630750151  1.0000
  C   C20       1.0  0.3873366019297181  0.0251619713668205  0.33493035382337416  1.0000
  C   C21       1.0  0.11381181332797756  0.28730616248254387  0.2265368227799627  1.0000
  C   C22       1.0  0.8861822579648619  0.7126969493703115  0.773462195005017  1.0000
  C   C23       1.0  0.06417175907622416  0.43141961179119886  0.2550780713724237  1.0000
  C   C24       1.0  0.9358257823844203  0.5685824864086654  0.7449199335110777  1.0000
  C   C25       1.0  0.0645769082059361  0.45750344640328655  0.3484108528633385  1.0000
  C   C26       1.0  0.9354220156726569  0.5424976467482807  0.6515870473358234  1.0000
  C   C27       1.0  0.025021943194936083  0.5882071961535544  0.3806350682871483  1.0000
  C   C28       1.0  0.9749766446597974  0.4117948940746245  0.6193621392731146  1.0000
  C   C29       1.0  0.9827949530390683  0.6962731524957775  0.3195893495871758  1.0000
  C   C30       1.0  0.017198782229918715  0.3037309564336894  0.6804089755588978  1.0000
  C   C31       1.0  0.9807436309264758  0.670518740102402  0.22661009691485393  1.0000
  C   C32       1.0  0.01925357954864639  0.3294843478353826  0.773386528900403  1.0000
  C   C33       1.0  0.02101250311860527  0.5391071343550565  0.19228436746787037  1.0000
  C   C34       1.0  0.9789857487122763  0.46089595294972685  0.8077121474534865  1.0000
  C   C35       1.0  0.010710570891227247  0.5183394601003497  0.09385249164279232  1.0000
  C   C36       1.0  0.9892893993814484  0.4816616250795249  0.906144611233124  1.0000
  C   C37       1.0  0.07947335139811443  0.5811581631690428  0.021408127946322995  1.0000
  C   C38       1.0  0.9205283322780391  0.41884092722461475  0.9785902493134986  1.0000
  C   C39       1.0  0.069746056367002  0.5622886061519734  0.9289551310249495  1.0000
  C   C40       1.0  0.930254249929533  0.43771148195129667  0.07104266448986608  1.0000
  C   C41       1.0  0.9337047606101192  0.8361828827003849  0.35747743939444393  1.0000
  C   C42       1.0  0.06629140347090613  0.16382021320909249  0.6425199837440516  1.0000
  C   C43       1.0  0.6461997387857752  0.29228666304286577  0.26223100669835014  1.0000
  C   C44       1.0  0.3537949360022665  0.7077115154307378  0.737776390180457  1.0000
  C   C45       1.0  0.5412047940687755  0.4248857693056891  0.2387642629727864  1.0000
  C   C46       1.0  0.4587934073788347  0.5751173913859161  0.7612391162420452  1.0000
  C   C47       1.0  0.46684273150932404  0.526832575451472  0.30526827841243437  1.0000
  C   C48       1.0  0.5331582448508387  0.4731685604661778  0.6947335185750277  1.0000
  C   C49       1.0  0.37649846095622763  0.6492364680156939  0.2748839735157347  1.0000
  C   C50       1.0  0.6235049422318896  0.3507666968495612  0.7251195376589765  1.0000
  C   C51       1.0  0.35410357650042107  0.6694542499927393  0.18214730404675095  1.0000
  C   C52       1.0  0.6458994957021673  0.3305499046104429  0.8178548280597155  1.0000
  C   C53       1.0  0.42062079130092667  0.5642491014165782  0.1184545348721997  1.0000
  C   C54       1.0  0.5793819216702546  0.4357530449890276  0.8815477205472675  1.0000
  C   C55       1.0  0.5165198312077663  0.4451481976463327  0.1462764939450594  1.0000
  C   C56       1.0  0.48348044287472197  0.5548549764566246  0.8537280363406765  1.0000
  C   C57       1.0  0.26837737117890736  0.8033874199457713  0.1474725805086692  1.0000
  C   C58       1.0  0.7316197889129442  0.19661574137884227  0.8525309096000626  1.0000
  C   C59       1.0  0.4852535424905399  0.51174133022365  0.4045664443226826  1.0000
  C   C60       1.0  0.5147460514516738  0.4882608107422966  0.5954354573491117  1.0000
  C   C61       1.0  0.36167306482737166  0.5451610048280529  0.473976022707042  1.0000
  C   C62       1.0  0.6383272344467558  0.454842132581497  0.5260250754319601  1.0000
  C   C63       1.0  0.3758639136970316  0.5329303261550464  0.5677807823744844  1.0000
  C   C64       1.0  0.6241370727397779  0.4670707950852417  0.4322196417542798  1.0000
  N   N1        1.0  0.2911181830064963  0.0752728530400688  0.980485705299678  1.0000
  N   N2        1.0  0.7088783070217273  0.9247292604701656  0.019513783336407263  1.0000
  N   N3        1.0  0.635643172111081  0.07668685565605668  0.5149618113858737  1.0000
  N   N4        1.0  0.36436432382318895  0.9233042562257268  0.4850417743034754  1.0000
  O   O1        1.0  0.0805366124061138  0.20000994696681568  0.28078866576264977  1.0000
  O   O2        1.0  0.9194592055744056  0.7999941606966345  0.7192094375956445  1.0000
  O   O3        1.0  0.19414535045356027  0.2545733204792953  0.1468414654496897  1.0000
  O   O4        1.0  0.805848394892081  0.7454307737728101  0.8531554868376929  1.0000
  O   O5        1.0  0.9672706134992952  0.8581828805579899  0.4338628396688122  1.0000
  O   O6        1.0  0.03272830534096732  0.14181821993226149  0.5661357469596952  1.0000
  O   O7        1.0  0.850672171518838  0.9293265095309946  0.3110928788953942  1.0000
  O   O8        1.0  0.149329189264364  0.07067659789081661  0.6889053626323262  1.0000
  O   O9        1.0  0.6025756741939006  0.2293355738669831  0.3336364743235478  1.0000
  O   O10       1.0  0.39741971096438533  0.7706635937115394  0.6663694325931147  1.0000
  O   O11       1.0  0.7675362256070102  0.250120109592089  0.21028473164093245  1.0000
  O   O12       1.0  0.23246192133292004  0.7498740132609285  0.7897190361415625  1.0000
  O   O13       1.0  0.28099930859080774  0.9076636342122906  0.1851019607086073  1.0000
  O   O14       1.0  0.7189964841980796  0.09234051014457377  0.8148995747964207  1.0000
  O   O15       1.0  0.19544354097777022  0.8102417282487623  0.0826600377893101  1.0000
  O   O16       1.0  0.8045549732861447  0.18975743009205806  0.9173448500163204  1.0000
  O   O17       1.0  0.9856832576874908  0.0757331229117781  0.10508082219035941  1.0000
  O   O18       1.0  0.01431738967121984  0.924265960776211  0.8949169795340097  1.0000
  O   O19       1.0  0.8853473912499724  0.19669297513005546  0.42028785164023935  1.0000
  O   O20       1.0  0.11465327229388578  0.8033121631383793  0.5797124367564166  1.0000
