data_image0
_chemical_formula_structural       Zn2Ni2H28C20N16
_chemical_formula_sum              "Zn2 Ni2 H28 C20 N16"
_cell_length_a       8.42538155527744
_cell_length_b       8.596180000575822
_cell_length_c       11.006168898425361
_cell_angle_alpha    76.0043676649621
_cell_angle_beta     76.53854393191777
_cell_angle_gamma    68.88790464593163

_space_group_name_H-M_alt    "P 1"
_space_group_IT_number       1

loop_
  _space_group_symop_operation_xyz
  'x, y, z'

loop_
  _atom_site_type_symbol
  _atom_site_label
  _atom_site_symmetry_multiplicity
  _atom_site_fract_x
  _atom_site_fract_y
  _atom_site_fract_z
  _atom_site_occupancy
  Zn  Zn1       1.0  0.8252654781849956  0.6596662767246925  0.2693421453282454  1.0000
  Zn  Zn2       1.0  0.17473608780149866  0.3403335627315727  0.7306598943917636  1.0000
  Ni  Ni1       1.0  0.5000042999268004  0.49999303851143395  1.5856389551959897e-06  1.0000
  Ni  Ni2       1.0  0.9999979752927363  0.9999999487008963  0.4999961782658104  1.0000
  H   H1        1.0  0.6853592955892936  0.4434221585839921  0.43552517704922883  1.0000
  H   H2        1.0  0.3146365821030699  0.5565801841198663  0.5644755449894134  1.0000
  H   H3        1.0  0.6072068022170427  0.6270285250191633  0.4865945705003867  1.0000
  H   H4        1.0  0.3927870866221426  0.3729725368134139  0.5134058030533168  1.0000
  H   H5        1.0  0.8045751952096513  0.49681308205391156  0.5060119372909284  1.0000
  H   H6        1.0  0.1954178278521966  0.503186645337159  0.493993362681394  1.0000
  H   H7        1.0  0.9439955501773913  0.7018042391503199  0.02629890309444958  1.0000
  H   H8        1.0  0.056007035970722575  0.298185466771393  0.9737029610998534  1.0000
  H   H9        1.0  0.058646239542973364  0.7721086319743904  0.08780555742746543  1.0000
  H   H10       1.0  0.9413587581025028  0.2278849444381663  0.9121924869411374  1.0000
  H   H11       1.0  0.8637633556020745  0.8933663227870453  0.062647665016975  1.0000
  H   H12       1.0  0.13624041056401381  0.1066272297094315  0.9373514974489936  1.0000
  H   H13       1.0  0.21984800882048477  0.5116805370844372  0.28743729386846445  1.0000
  H   H14       1.0  0.7801478224132197  0.4883217724109982  0.7125661680277205  1.0000
  H   H15       1.0  0.46720670158354966  0.24505800274505415  0.2835347704389193  1.0000
  H   H16       1.0  0.5327906393949605  0.7549506765278833  0.7164673011333634  1.0000
  H   H17       1.0  0.8961586532553695  0.2951363624047261  0.21141529249835142  1.0000
  H   H18       1.0  0.10383804375567257  0.7048672815322162  0.7885832429792075  1.0000
  H   H19       1.0  0.13455218402662442  0.0222781893763653  0.19187173574580638  1.0000
  H   H20       1.0  0.8654550807374549  0.9777230137688873  0.8081263848812057  1.0000
  H   H21       1.0  0.4133295924261092  0.839548651958779  0.2613089968638889  1.0000
  H   H22       1.0  0.5866656927515735  0.16046255803209417  0.7386920558783246  1.0000
  H   H23       1.0  0.5137732397014217  0.9387306084384904  0.1220276678031168  1.0000
  H   H24       1.0  0.4862266466697492  0.0612743181468645  0.8779719246337125  1.0000
  H   H25       1.0  0.5744297791772086  0.919422475304138  0.3789680392999201  1.0000
  H   H26       1.0  0.42557094700162423  0.08057990771666818  0.621032776778506  1.0000
  H   H27       1.0  0.6737886079659036  0.0011833220391039994  0.2450937308690726  1.0000
  H   H28       1.0  0.32621539000693633  0.9988165431103723  0.7549078992279022  1.0000
  C   C1        1.0  0.7748785517448553  0.12032179896919357  0.4775074511148176  1.0000
  C   C2        1.0  0.22513380380453918  0.8796718988009004  0.5224857112412877  1.0000
  C   C3        1.0  0.6148608214055429  0.5444541223532227  0.103188836057555  1.0000
  C   C4        1.0  0.3851385134375533  0.4555342566421813  0.8968156243208726  1.0000
  C   C5        1.0  0.9876812916467019  0.8367737622676613  0.4246823121922957  1.0000
  C   C6        1.0  0.012314859316958896  0.16322105688303165  0.5753115309639725  1.0000
  C   C7        1.0  0.20567486312621952  0.39897156592855515  0.268328944395698  1.0000
  C   C8        1.0  0.794323266198532  0.601038392438525  0.7316727671871989  1.0000
  C   C9        1.0  0.3447073316011711  0.24976806461076964  0.26360977766244537  1.0000
  C   C10       1.0  0.6553005461579388  0.7502381517315229  0.7363937056309809  1.0000
  C   C11       1.0  0.025834687333578233  0.2796015527368708  0.22436634147732804  1.0000
  C   C12       1.0  0.9741793992839266  0.7204009605271365  0.7756331349602521  1.0000
  C   C13       1.0  0.6373891303883923  0.2768126614699113  0.0159543177522323  1.0000
  C   C14       1.0  0.36261626393158514  0.723179626556167  0.9840457083659403  1.0000
  C   C15       1.0  0.32322236398652393  0.1094198517988261  0.23501990915481488  1.0000
  C   C16       1.0  0.6767819741966149  0.890586403489962  0.7649777955722358  1.0000
  C   C17       1.0  0.1588640121207519  0.1273056564064063  0.21480241768176714  1.0000
  C   C18       1.0  0.8411365132151329  0.872708161382043  0.7851963873612751  1.0000
  C   C19       1.0  0.4667006137036582  0.9439745151195353  0.22349459256300008  1.0000
  C   C20       1.0  0.5332983864011922  0.056032921821945095  0.7765065160897892  1.0000
  N   N1        1.0  0.7168585147778898  0.5439313907142775  0.4450718882066766  1.0000
  N   N2        1.0  0.2831373988896858  0.45606711826142277  0.5549313307487935  1.0000
  N   N3        1.0  0.9366151563688734  0.7701298295103951  0.09264809928911427  1.0000
  N   N4        1.0  0.06338857882476391  0.22986370084714028  0.9073528897485515  1.0000
  N   N5        1.0  0.04783037729686866  0.4151078320405118  0.2501891962011272  1.0000
  N   N6        1.0  0.9521715339026928  0.5848945416879586  0.749813241637476  1.0000
  N   N7        1.0  0.9759258586135076  0.7367726731898898  0.37387807595941785  1.0000
  N   N8        1.0  0.024064114464202615  0.26322587117802937  0.6261179474810066  1.0000
  N   N9        1.0  0.6863309713949663  0.5763509901662044  0.168667961614311  1.0000
  N   N10       1.0  0.31366315425373875  0.4236525284522655  0.8313392030589171  1.0000
  N   N11       1.0  0.6313718984516186  0.19622798152065712  0.4628775334062781  1.0000
  N   N12       1.0  0.368603776459665  0.8037767656188775  0.5371197622599695  1.0000
  N   N13       1.0  0.6153835161717753  0.9109522235082537  0.2849237868205705  1.0000
  N   N14       1.0  0.3846184260002303  0.08905017235915838  0.715076824446335  1.0000
  N   N15       1.0  0.724169868508156  0.1338489459115166  0.025846106213286594  1.0000
  N   N16       1.0  0.27583951401027224  0.8661320455119961  0.9741470969330808  1.0000
