data_image0
_chemical_formula_structural       Cd8H108C120N24O36
_chemical_formula_sum              "Cd8 H108 C120 N24 O36"
_cell_length_a       10.694619567022295
_cell_length_b       22.55120495746299
_cell_length_c       22.551688686278254
_cell_angle_alpha    117.58810834569465
_cell_angle_beta     99.04216870228373
_cell_angle_gamma    99.04306026953032

_space_group_name_H-M_alt    "P 1"
_space_group_IT_number       1

loop_
  _space_group_symop_operation_xyz
  'x, y, z'

loop_
  _atom_site_type_symbol
  _atom_site_label
  _atom_site_symmetry_multiplicity
  _atom_site_fract_x
  _atom_site_fract_y
  _atom_site_fract_z
  _atom_site_occupancy
  Cd  Cd1       1.0  0.7664892437970111  0.5436960664041166  0.9310800218153332  1.0000
  Cd  Cd2       1.0  0.23351352841154238  0.0688992004599385  0.45630487118150137  1.0000
  Cd  Cd3       1.0  0.23350713984750368  0.45630390248218317  0.0689194377354951  1.0000
  Cd  Cd4       1.0  0.7664849694084737  0.9310992310131425  0.5436949170630143  1.0000
  Cd  Cd5       1.0  0.7552692029243316  0.5173252241645158  0.7590320093978632  1.0000
  Cd  Cd6       1.0  0.24453444281918732  0.2408994735185104  0.4826113495503676  1.0000
  Cd  Cd7       1.0  0.2447225824483965  0.4826710989611341  0.24096499582814349  1.0000
  Cd  Cd8       1.0  0.7554625934537854  0.7590979122841618  0.517386964857444  1.0000
  H   H1        1.0  0.04841780543366542  0.5848063956310839  3.698654694571606e-06  1.0000
  H   H2        1.0  0.9515598039416843  1.4744526275500468e-05  0.4152087919613408  1.0000
  H   H3        1.0  0.951580483534073  0.41519358468749346  0.9999963458386032  1.0000
  H   H4        1.0  0.04843754301106886  0.9999852330051268  0.5847916273306452  1.0000
  H   H5        1.0  0.9966929892222397  0.6464334735293634  0.9971815892014175  1.0000
  H   H6        1.0  0.0032941084128169  0.0028249415948167  0.353580077378794  1.0000
  H   H7        1.0  0.003305043528342835  0.3535659863239147  0.002817753397486935  1.0000
  H   H8        1.0  0.9967013261189592  0.9971750225516658  0.6464193121241095  1.0000
  H   H9        1.0  0.5749686055072658  0.4062271071504071  0.6835509124583368  1.0000
  H   H10       1.0  0.4248615349561078  0.3162727180806542  0.593330816326457  1.0000
  H   H11       1.0  0.425023624060529  0.5937562941482568  0.3164419362952556  1.0000
  H   H12       1.0  0.5751352007524203  0.6837204724737873  0.4066526812431803  1.0000
  H   H13       1.0  0.6324582013116711  0.37764934608743056  0.6184280023582999  1.0000
  H   H14       1.0  0.36763451895141236  0.38152334926124354  0.6219874686196789  1.0000
  H   H15       1.0  0.36754530580580547  0.6223377439138177  0.38157001528868767  1.0000
  H   H16       1.0  0.6323684831088557  0.6184750395210442  0.3779975450795731  1.0000
  H   H17       1.0  0.7524812640446258  0.6828410781087939  0.8882509903028647  1.0000
  H   H18       1.0  0.24748459125399339  0.11171304051594429  0.31711965579810186  1.0000
  H   H19       1.0  0.2475138811006232  0.3171563001668929  0.11174762885570291  1.0000
  H   H20       1.0  0.7525134202033501  0.8882864134794063  0.682878352260957  1.0000
  H   H21       1.0  0.872596850108309  0.6691153995821681  0.8401889384104351  1.0000
  H   H22       1.0  0.1273556522924792  0.1597706213312478  0.3308496195619028  1.0000
  H   H23       1.0  0.1273968405876431  0.3308809349757595  0.15980865175804126  1.0000
  H   H24       1.0  0.8726418893170447  0.8402278034493736  0.6691496537880682  1.0000
  H   H25       1.0  0.15152633011589245  0.5724424090223578  0.684596725505564  1.0000
  H   H26       1.0  0.8484836512873953  0.31540294815027886  0.4275675594021492  1.0000
  H   H27       1.0  0.8484823707009637  0.4275576156236269  0.31540231012848347  1.0000
  H   H28       1.0  0.15151581461923783  0.6845975495628311  0.5724314776470081  1.0000
  H   H29       1.0  0.27277319226623575  0.6336431153702832  0.6336353993624114  1.0000
  H   H30       1.0  0.7272309908130978  0.36635739823133673  0.3663622085399255  1.0000
  H   H31       1.0  0.9718387534281377  0.7688151112629812  0.9578340810294677  1.0000
  H   H32       1.0  0.028120460357328604  0.0421120470510203  0.23115540525652983  1.0000
  H   H33       1.0  0.028157063319454834  0.2311817454292964  0.04216257174279293  1.0000
  H   H34       1.0  0.9718760989700784  0.9578843075842872  0.7688437295955739  1.0000
  H   H35       1.0  0.04343439348533453  0.6998954944496205  0.9479080268721845  1.0000
  H   H36       1.0  0.9565369443352835  0.052049948349299796  0.3000776502850612  1.0000
  H   H37       1.0  0.956561928598802  0.3001024012206059  0.05208958484224263  1.0000
  H   H38       1.0  0.04346250969521045  0.9479484898162411  0.6999226528539991  1.0000
  H   H39       1.0  0.9199418241835319  0.7192059497292007  0.9957249212395566  1.0000
  H   H40       1.0  0.08003061118539279  0.004238650381836401  0.2807767646317956  1.0000
  H   H41       1.0  0.08005639612608208  0.28079195542065344  0.004272830570719981  1.0000
  H   H42       1.0  0.9199683919711745  0.9957608200691936  0.7192239825548868  1.0000
  H   H43       1.0  0.5659077205211246  0.0408195377580114  0.7698589171532146  1.0000
  H   H44       1.0  0.4341150341874922  0.23013917020450242  0.9591849671384126  1.0000
  H   H45       1.0  0.4340901246704262  0.9591814767986903  0.2301420162343177  1.0000
  H   H46       1.0  0.5658833021451245  0.7698628794248633  0.04081603549805389  1.0000
  H   H47       1.0  0.5539444179133496  0.0356330400097846  0.5788685770909507  1.0000
  H   H48       1.0  0.4460202727920191  0.42112226119012763  0.9643606550199519  1.0000
  H   H49       1.0  0.44605456394997123  0.9643664245833177  0.42113083555588543  1.0000
  H   H50       1.0  0.5539794493317629  0.5788787569882812  0.0356390839235914  1.0000
  H   H51       1.0  0.37455389122465016  0.07241266619181633  0.7663576913186673  1.0000
  H   H52       1.0  0.6254380556801208  0.23363446788263076  0.9275897653583908  1.0000
  H   H53       1.0  0.6254453539535733  0.9275873208192209  0.2336428680691682  1.0000
  H   H54       1.0  0.3745587717405741  0.7663644667655376  0.07240880529819546  1.0000
  H   H55       1.0  0.7992775558832151  0.6204953553934374  0.6204945269274162  1.0000
  H   H56       1.0  0.20072381766600247  0.3795030981096659  0.37950725084733955  1.0000
  H   H57       1.0  0.2557811138335211  0.16165328629852377  0.803883793036725  1.0000
  H   H58       1.0  0.7442438196824953  0.1961164174084118  0.8383639271463321  1.0000
  H   H59       1.0  0.744220762732887  0.8383482618248124  0.19611678789706138  1.0000
  H   H60       1.0  0.25575351307475797  0.8038835562176982  0.16163560245242076  1.0000
  H   H61       1.0  0.14539179791286475  0.5810636918955794  0.8044470521624234  1.0000
  H   H62       1.0  0.8545778345290601  0.19556333292234027  0.418942182801679  1.0000
  H   H63       1.0  0.854610349066199  0.41893838059833394  0.19555512035898903  1.0000
  H   H64       1.0  0.14541947215656148  0.8044345772509232  0.5810577231937444  1.0000
  H   H65       1.0  0.11261028476829439  0.5769716929851753  0.9088145362783703  1.0000
  H   H66       1.0  0.8873292816907822  0.0911921676606937  0.42303718666410356  1.0000
  H   H67       1.0  0.8873885237314952  0.4230293302166359  0.09118735685032689  1.0000
  H   H68       1.0  0.11266975695452429  0.9088073125535485  0.5769657847556501  1.0000
  H   H69       1.0  0.9743113145841279  0.41341951398659654  0.7219012637979602  1.0000
  H   H70       1.0  0.025766447622842675  0.27811000462579466  0.5866308371620547  1.0000
  H   H71       1.0  0.025689169093361504  0.5865830636350537  0.27810013598214317  1.0000
  H   H72       1.0  0.9742380200646324  0.7218910372516945  0.41336925202112695  1.0000
  H   H73       1.0  0.2923760123697789  0.2983159915227631  0.695281948135019  1.0000
  H   H74       1.0  0.7077282958919894  0.3047481433835911  0.7017266255801927  1.0000
  H   H75       1.0  0.7076292855295209  0.7016886849666832  0.3047220945677297  1.0000
  H   H76       1.0  0.2922752155849936  0.6952528918014381  0.2982729487084441  1.0000
  H   H77       1.0  0.328986861451085  0.539976189129355  0.7545677534244674  1.0000
  H   H78       1.0  0.6710140575241113  0.24546503749993323  0.4600400959383392  1.0000
  H   H79       1.0  0.6710135748615329  0.46002431918150677  0.24543268821246036  1.0000
  H   H80       1.0  0.32898398942197105  0.7545344262586369  0.5399601363537982  1.0000
  H   H81       1.0  0.1767410658583586  0.23884454212512193  0.8399103338359593  1.0000
  H   H82       1.0  0.8232593023220716  0.1600790247792006  0.7611667307543185  1.0000
  H   H83       1.0  0.8232553177861561  0.7611554267611779  0.1600891257148618  1.0000
  H   H84       1.0  0.17673846711361568  0.8399199126561426  0.23883146510358697  1.0000
  H   H85       1.0  0.36654355827839413  0.2189953298266545  0.6571356657990961  1.0000
  H   H86       1.0  0.6335122230186981  0.3428768546023094  0.7810296331738228  1.0000
  H   H87       1.0  0.6334573762730288  0.7810062155095069  0.3428652899333855  1.0000
  H   H88       1.0  0.36648941152605374  0.6571241769610197  0.21897113555881018  1.0000
  H   H89       1.0  0.48794585993842776  0.1331773459380301  0.6224968641613272  1.0000
  H   H90       1.0  0.5120907760009814  0.377510526643043  0.8668330648257906  1.0000
  H   H91       1.0  0.5120514728188255  0.8668226276880802  0.37750266543742583  1.0000
  H   H92       1.0  0.4879117934610165  0.6224905057548115  0.13316688426154155  1.0000
  H   H93       1.0  0.05085290450750082  0.32485009894944733  0.8732298497641721  1.0000
  H   H94       1.0  0.9491709351173512  0.12676333529905287  0.67516966160494  1.0000
  H   H95       1.0  0.9491453631669912  0.6751498755111953  0.12676886018928005  1.0000
  H   H96       1.0  0.05083018699309608  0.8732366553336844  0.3248297033389136  1.0000
  H   H97       1.0  0.9789899455765935  0.4186919106738786  0.9129358609795659  1.0000
  H   H98       1.0  0.021013801443537317  0.08704873263861401  0.5813087834521297  1.0000
  H   H99       1.0  0.02100670138282374  0.5813085806303632  0.08706474531226144  1.0000
  H   H100      1.0  0.9789880680251316  0.9129528135320728  0.41869135263504387  1.0000
  H   H101      1.0  0.16768222020262874  0.38412474630791144  0.7294341567581454  1.0000
  H   H102      1.0  0.8324064205217495  0.2705880717739859  0.6159124958368878  1.0000
  H   H103      1.0  0.8323206741346427  0.6158788817239582  0.2705687869065869  1.0000
  H   H104      1.0  0.167600208706098  0.7294135020010728  0.38408888018315673  1.0000
  H   H105      1.0  0.4382484042371644  0.4865363123190959  0.9114996739698425  1.0000
  H   H106      1.0  0.5616986439312227  0.088525647774766  0.5134743004171369  1.0000
  H   H107      1.0  0.561751555129888  0.5134631648243938  0.08850158811138435  1.0000
  H   H108      1.0  0.43829801012594066  0.911474845482111  0.48652675072130336  1.0000
  C   C1        1.0  0.2470368925971655  0.5242248740112245  0.9781207168499221  1.0000
  C   C2        1.0  0.7529117609738447  0.0218956327669062  0.47578726672018945  1.0000
  C   C3        1.0  0.7529626158959529  0.47577563541774737  0.021880989278919585  1.0000
  C   C4        1.0  0.24708489308331855  0.9781048604899709  0.5242137844182579  1.0000
  C   C5        1.0  0.8437455635094225  0.6658510987155353  0.8838656558318688  1.0000
  C   C6        1.0  0.1562188298649261  0.11609665109283178  0.33411108976810766  1.0000
  C   C7        1.0  0.15624957453808017  0.33414627760750903  0.11613251848008592  1.0000
  C   C8        1.0  0.8437787046468516  0.8839017717351464  0.6658877387352504  1.0000
  C   C9        1.0  0.10172939804149193  0.5961020008873774  0.6587203952062878  1.0000
  C   C10       1.0  0.89826783382113  0.3412748106987351  0.4039013973239348  1.0000
  C   C11       1.0  0.8982774187453871  0.4038980181842575  0.3412793900251359  1.0000
  C   C12       1.0  0.10173303916992177  0.6587246614213526  0.5960977105721382  1.0000
  C   C13       1.0  0.16859852556613944  0.629963245001335  0.6299575982200238  1.0000
  C   C14       1.0  0.8314066350169185  0.3700372811506725  0.3700418591166965  1.0000
  C   C15       1.0  0.9512457947680063  0.7160496299110761  0.9503107857641524  1.0000
  C   C16       1.0  0.04872814949222  0.049652600875695896  0.28392657179215763  1.0000
  C   C17       1.0  0.04875052731613754  0.28394826575915033  0.0496868259502747  1.0000
  C   C18       1.0  0.9512708394688546  0.9503468656700421  0.7160732857012918  1.0000
  C   C19       1.0  0.584451792793189  0.029534173308974208  0.7203635976881626  1.0000
  C   C20       1.0  0.41555922458881867  0.2796305944616577  0.9704682228155972  1.0000
  C   C21       1.0  0.41554649617454226  0.9704658070096028  0.2796364468051278  1.0000
  C   C22       1.0  0.5844407608498655  0.720370946134686  0.029532662868952234  1.0000
  C   C23       1.0  0.5788909248950276  0.028437069757671903  0.6231162065612637  1.0000
  C   C24       1.0  0.42109324698231626  0.3768756499669266  0.9715599055959885  1.0000
  C   C25       1.0  0.4211073569749572  0.9715629086082627  0.3768833930854211  1.0000
  C   C26       1.0  0.5789067242608682  0.6231258867241323  0.028440090395328448  1.0000
  C   C27       1.0  0.44489318799337957  0.09876485161448302  0.6943878272982644  1.0000
  C   C28       1.0  0.5551087475988794  0.3056068139885114  0.9012375600957724  1.0000
  C   C29       1.0  0.5551060500870975  0.9012351334439047  0.3056122872429654  1.0000
  C   C30       1.0  0.4448885851583739  0.694393159637606  0.09876196950298075  1.0000
  C   C31       1.0  0.37528418900939897  0.1059065055757458  0.7437341088654819  1.0000
  C   C32       1.0  0.6247214424839882  0.256262042633189  0.8941017553571697  1.0000
  C   C33       1.0  0.624718657962994  0.8940950531453352  0.25626787665608214  1.0000
  C   C34       1.0  0.3752770885054063  0.7437384542453958  0.10589810133728868  1.0000
  C   C35       1.0  0.8976242279077482  0.5572834300244763  0.6874002780620784  1.0000
  C   C36       1.0  0.10235919133211979  0.31259465851224627  0.4427171029948126  1.0000
  C   C37       1.0  0.1023825557097453  0.442714523641662  0.31259943871940266  1.0000
  C   C38       1.0  0.8976407680349322  0.6874048186312435  0.5572841590864143  1.0000
  C   C39       1.0  0.9682055415781009  0.592182059037711  0.6550345132818691  1.0000
  C   C40       1.0  0.03179690214917492  0.34496505110855935  0.40782666516700056  1.0000
  C   C41       1.0  0.031801289404271064  0.40781796393921615  0.3449661616427803  1.0000
  C   C42       1.0  0.9682046921284523  0.6550339130966236  0.5921735902690698  1.0000
  C   C43       1.0  0.9023001105597926  0.6224365451000721  0.6224323528062354  1.0000
  C   C44       1.0  0.09770269614546832  0.3775629462628629  0.37756911941877286  1.0000
  C   C45       1.0  0.3073318742029585  0.15665552730504118  0.7645232926966726  1.0000
  C   C46       1.0  0.6926857272238535  0.2354738284515889  0.8433563516278395  1.0000
  C   C47       1.0  0.6926666567864289  0.8433449695735432  0.23547656399777864  1.0000
  C   C48       1.0  0.30731255464613844  0.7645261499143459  0.15664324801884527  1.0000
  C   C49       1.0  0.21253536635432374  0.562538208683513  0.8292604120729974  1.0000
  C   C50       1.0  0.7874310492209416  0.17075534371416268  0.43747174036018777  1.0000
  C   C51       1.0  0.7874641421387949  0.4374623007454659  0.17074129405585134  1.0000
  C   C52       1.0  0.2125660557101484  0.8292441172572323  0.5625288667306378  1.0000
  C   C53       1.0  0.2739758098147079  0.5319883059088256  0.9179972795516064  1.0000
  C   C54       1.0  0.725978403133375  0.0820241602288405  0.4680332370996254  1.0000
  C   C55       1.0  0.7260234495590082  0.4680116850074967  0.08200416952946202  1.0000
  C   C56       1.0  0.2740182580215347  0.9179763349806861  0.5319682588854348  1.0000
  C   C57       1.0  0.19356206052327726  0.5597261304410496  0.8878363171515887  1.0000
  C   C58       1.0  0.8063896408296711  0.1121778534172719  0.4402871906801167  1.0000
  C   C59       1.0  0.8064372059481928  0.44027386242791533  0.11216557677609275  1.0000
  C   C60       1.0  0.19360842740965734  0.8878216161992256  0.5597143761518666  1.0000
  C   C61       1.0  0.9540797122250808  0.42319577283944915  0.7706803020117049  1.0000
  C   C62       1.0  0.04596276262702054  0.2293207992873576  0.5768313957900943  1.0000
  C   C63       1.0  0.045920522333006  0.5768062862695447  0.229320840720618  1.0000
  C   C64       1.0  0.9540407630454623  0.7706802398029637  0.42316906819177563  1.0000
  C   C65       1.0  0.2383129607580443  0.301698559434918  0.733324703899207  1.0000
  C   C66       1.0  0.7617643963236206  0.26669361645697615  0.6983324305250774  1.0000
  C   C67       1.0  0.7616908826919656  0.6983050733367692  0.26667830981345736  1.0000
  C   C68       1.0  0.23823817313837745  0.7333074159408781  0.3016675185622546  1.0000
  C   C69       1.0  0.5072153538222608  0.48699007236078273  0.8015909773962804  1.0000
  C   C70       1.0  0.492813053117466  0.1984677726086517  0.5130524050293914  1.0000
  C   C71       1.0  0.49278414047536506  0.5130104331629042  0.19840983903933557  1.0000
  C   C72       1.0  0.5071891009593442  0.8015343018379111  0.48695021233863395  1.0000
  C   C73       1.0  0.31314760189534513  0.5383868217627211  0.8004753103544927  1.0000
  C   C74       1.0  0.6868450070601284  0.19955369555609082  0.4616319140722496  1.0000
  C   C75       1.0  0.6868540397471533  0.4616142117532507  0.19952590322475325  1.0000
  C   C76       1.0  0.3131527978642979  0.8004452516424648  0.5383685060187274  1.0000
  C   C77       1.0  0.17485250688443438  0.26943873065772544  0.8141568356055229  1.0000
  C   C78       1.0  0.8251733961974281  0.18584174998905914  0.7305784670155118  1.0000
  C   C79       1.0  0.8251453241116241  0.7305622799936914  0.1858432080887838  1.0000
  C   C80       1.0  0.17482842590635536  0.814157726870846  0.2694207109284932  1.0000
  C   C81       1.0  0.36856966163178834  0.18885482198957249  0.6833167374758985  1.0000
  C   C82       1.0  0.6314713197276018  0.3166898198186061  0.8111660633901465  1.0000
  C   C83       1.0  0.6314305729262983  0.811147237119428  0.31668440525642433  1.0000
  C   C84       1.0  0.3685300656977474  0.6833106932320729  0.18883444829471316  1.0000
  C   C85       1.0  0.43816731106829104  0.13899667886155953  0.6626243266596106  1.0000
  C   C86       1.0  0.561849355095319  0.3373755472438091  0.8610126543542121  1.0000
  C   C87       1.0  0.5618300287867086  0.8610032967172001  0.3373756477857555  1.0000
  C   C88       1.0  0.4381522723516938  0.6626254823668775  0.13898766953180092  1.0000
  C   C89       1.0  0.3956319004102512  0.5113390797623724  0.8303967585294174  1.0000
  C   C90       1.0  0.6043512294563058  0.1696329674070114  0.48867626800500824  1.0000
  C   C91       1.0  0.6043659045141753  0.48865986743618367  0.16960366156155976  1.0000
  C   C92       1.0  0.39564636661584296  0.8303675286370411  0.5113244083347441  1.0000
  C   C93       1.0  0.10236384519268432  0.3181565799709389  0.8334534818711103  1.0000
  C   C94       1.0  0.897670123791947  0.1665434079566737  0.6818626746997651  1.0000
  C   C95       1.0  0.8976385438080358  0.6818460090829818  0.16654850285145528  1.0000
  C   C96       1.0  0.10233243857229733  0.8334576224885384  0.3181368295409471  1.0000
  C   C97       1.0  0.09410828990488085  0.35698517717575834  0.800215249153865  1.0000
  C   C98       1.0  0.9059346432142661  0.1997852366056065  0.6430392289693214  1.0000
  C   C99       1.0  0.9058912446598698  0.6430173957060745  0.19978608057830635  1.0000
  C   C100      1.0  0.09407053866203097  0.8002152954043353  0.35696156290724446  1.0000
  C   C101      1.0  0.9555360610577425  0.42647986189587794  0.8690711905771664  1.0000
  C   C102      1.0  0.04448081844318351  0.1309158654877365  0.5735280746136907  1.0000
  C   C103      1.0  0.0444615279166669  0.5735206321955316  0.13092904091597998  1.0000
  C   C104      1.0  0.955520809003822  0.8690851641229428  0.42647224927232225  1.0000
  C   C105      1.0  0.30541541433950664  0.20091294781443736  0.7365130596289333  1.0000
  C   C106      1.0  0.6946136428052938  0.2634878156414189  0.7991011549892946  1.0000
  C   C107      1.0  0.6945855202119163  0.7990885975217239  0.2634878961035412  1.0000
  C   C108      1.0  0.30538627397526613  0.736511649786209  0.20089743801224103  1.0000
  C   C109      1.0  0.16637675373034003  0.35066395232353637  0.7520841874532919  1.0000
  C   C110      1.0  0.8336925604308122  0.24792583138132326  0.6493635944342842  1.0000
  C   C111      1.0  0.8336246861576343  0.649338631990574  0.24791772722134908  1.0000
  C   C112      1.0  0.16631266171261677  0.7520767679867646  0.3506377107388375  1.0000
  C   C113      1.0  0.37479715680706965  0.5081034371265574  0.8887785057991023  1.0000
  C   C114      1.0  0.6251642754479788  0.11124404895966217  0.49190864569702336  1.0000
  C   C115      1.0  0.6252015972300953  0.4918955148118157  0.11122198433980655  1.0000
  C   C116      1.0  0.3748314294964458  0.8887564395574045  0.508092335393492  1.0000
  C   C117      1.0  0.23962450146783  0.2575378173711087  0.7615447078825779  1.0000
  C   C118      1.0  0.7604210581456528  0.23846096786702722  0.7424846358407605  1.0000
  C   C119      1.0  0.7603776313157341  0.7424642512175198  0.23845657494560168  1.0000
  C   C120      1.0  0.2395812621969427  0.7615395460181774  0.257515056198791  1.0000
  N   N1        1.0  0.874339063521134  0.46182143101946593  0.8605913657923026  1.0000
  N   N2        1.0  0.12567044980956874  0.13939295952592087  0.5381808028398678  1.0000
  N   N3        1.0  0.12565732012338068  0.5381785378668341  0.13940809375852575  1.0000
  N   N4        1.0  0.874331614315878  0.8606070338939915  0.4618181873052976  1.0000
  N   N5        1.0  0.6605153030819721  0.9925186103467282  0.6302559301839067  1.0000
  N   N6        1.0  0.3394733466127207  0.3697312702676072  0.0074787460251713005  1.0000
  N   N7        1.0  0.3394848912089826  0.007481381404119201  0.36974469925186065  1.0000
  N   N8        1.0  0.6605266246304636  0.6302702664234515  0.9925212499661454  1.0000
  N   N9        1.0  0.873071551941571  0.45905855335638523  0.7984425742067457  1.0000
  N   N10       1.0  0.12695089504560292  0.2015490367604968  0.5409570049208198  1.0000
  N   N11       1.0  0.12692508792009255  0.5409419359952069  0.20155758723846873  1.0000
  N   N12       1.0  0.8730511690798364  0.7984509566594084  0.45904198522434553  1.0000
  N   N13       1.0  0.5275976945485396  0.053075528578517606  0.6790392498453741  1.0000
  N   N14       1.0  0.47239906007069976  0.3209549907273797  0.9469238737973454  1.0000
  N   N15       1.0  0.47240153643419086  0.9469244545272274  0.3209604198492427  1.0000
  N   N16       1.0  0.5275987638276122  0.6790460179713946  0.05307572505034138  1.0000
  N   N17       1.0  0.008530469109338428  0.4010986707114768  0.81347039511067  1.0000
  N   N18       1.0  0.9915137614546623  0.1865253102387427  0.598924658404627  1.0000
  N   N19       1.0  0.9914673689844733  0.5989023418925826  0.18653009343024962  1.0000
  N   N20       1.0  0.00849095535220818  0.8134762501513961  0.401075687826335  1.0000
  N   N21       1.0  0.6646602921305772  0.9931006825158304  0.6919891651543607  1.0000
  N   N22       1.0  0.3353429529416161  0.30799827395646423  0.00689875372108164  1.0000
  N   N23       1.0  0.3353392021670487  0.0068998230078492  0.3080116512812552  1.0000
  N   N24       1.0  0.6646570253993218  0.6920032646872372  0.993101687116848  1.0000
  O   O1        1.0  0.9787661528399878  0.6113523094913802  0.010742772192202222  1.0000
  O   O2        1.0  0.021211508464901562  0.989269220851334  0.3886656985889801  1.0000
  O   O3        1.0  0.021233078142735545  0.3886476736143649  0.9892568975024074  1.0000
  O   O4        1.0  0.9787841680885377  0.010731259855155897  0.6113335031150767  1.0000
  O   O5        1.0  0.15024642879855335  0.5418890079081181  0.000959764556007903  1.0000
  O   O6        1.0  0.8497180130990785  0.9990660153317917  0.45813018716930987  1.0000
  O   O7        1.0  0.8497537583946553  0.458110981890094  0.9990404200331469  1.0000
  O   O8        1.0  0.15027716521554876  0.0009334283493985002  0.5418685004391931  1.0000
  O   O9        1.0  0.6495389590715205  0.3895527315813894  0.6669079119078275  1.0000
  O   O10       1.0  0.3507343748860166  0.3331389807413174  0.6104150887577688  1.0000
  O   O11       1.0  0.3504702352057478  0.6104462724949683  0.33309334875828966  1.0000
  O   O12       1.0  0.6492781342579194  0.6668631224114989  0.389582960978089  1.0000
  O   O13       1.0  0.3224876717075915  0.49725897754033355  0.0023638250006215167  1.0000
  O   O14       1.0  0.6774353276423923  0.99763523410666  0.5027310453861062  1.0000
  O   O15       1.0  0.6775178421417323  0.5027441520562661  0.9976404062999645  1.0000
  O   O16       1.0  0.3225634334925189  0.0023637197843626996  0.49726988959940843  1.0000
  O   O17       1.0  0.9529944874233959  0.522878570793928  0.7094472525289459  1.0000
  O   O18       1.0  0.04694960181974042  0.29049775205005807  0.4770757722490088  1.0000
  O   O19       1.0  0.047009629317173646  0.4771178119966919  0.2905502184735056  1.0000
  O   O20       1.0  0.9530505924712145  0.7095022397007966  0.5229248571867586  1.0000
  O   O21       1.0  0.782196191416041  0.5652124695502466  0.6929829573494288  1.0000
  O   O22       1.0  0.21782781059904718  0.3070439761945636  0.43482773677942527  1.0000
  O   O23       1.0  0.21781237862376907  0.43478912542030906  0.3070212278461568  1.0000
  O   O24       1.0  0.7821728558590807  0.6929549891287293  0.5651737831485659  1.0000
  O   O25       1.0  0.5191439632145673  0.4860789358599433  0.7453609447417192  1.0000
  O   O26       1.0  0.48100236677742453  0.2547597013975532  0.5140569256050468  1.0000
  O   O27       1.0  0.48085707316435844  0.5139267500504374  0.2546423721237119  1.0000
  O   O28       1.0  0.5190106139751407  0.7452470940370688  0.4859513047039882  1.0000
  O   O29       1.0  0.8238079805995683  0.5963107367955018  0.8699585088482491  1.0000
  O   O30       1.0  0.17618014161142528  0.1300020753518822  0.4036523356881786  1.0000
  O   O31       1.0  0.17619000478614313  0.40368665374698764  0.13003987560748703  1.0000
  O   O32       1.0  0.8238202331408149  0.8699963597428991  0.5963462581123481  1.0000
  O   O33       1.0  0.5860934063382218  0.46918467870946057  0.8347313498142128  1.0000
  O   O34       1.0  0.4138522558571225  0.16530830004415983  0.5307968860056675  1.0000
  O   O35       1.0  0.41390532640570393  0.5308142673709852  0.16526780578485048  1.0000
  O   O36       1.0  0.5861455538456966  0.8346927047493296  0.4692018231487936  1.0000
