data_image0
_chemical_formula_structural       Li2H22C24S2O10
_chemical_formula_sum              "Li2 H22 C24 S2 O10"
_cell_length_a       6.051170610863627
_cell_length_b       10.596701826150898
_cell_length_c       10.792790170382524
_cell_angle_alpha    74.00049478844134
_cell_angle_beta     89.66744651025385
_cell_angle_gamma    74.2214158278292

_space_group_name_H-M_alt    "P 1"
_space_group_IT_number       1

loop_
  _space_group_symop_operation_xyz
  'x, y, z'

loop_
  _atom_site_type_symbol
  _atom_site_label
  _atom_site_symmetry_multiplicity
  _atom_site_fract_x
  _atom_site_fract_y
  _atom_site_fract_z
  _atom_site_occupancy
  Li  Li1       1.0  0.2549473646616958  0.5685359028006688  0.6139067110671163  1.0000
  Li  Li2       1.0  0.7450432614717283  0.431471578929589  0.38609321572342725  1.0000
  H   H1        1.0  0.6440882409002453  0.6071978202063023  0.6476846934486957  1.0000
  H   H2        1.0  0.355929061396601  0.39280227397446055  0.35232239771193713  1.0000
  H   H3        1.0  0.6927982472931828  0.46579783774385647  0.6095059595794865  1.0000
  H   H4        1.0  0.30720501951417817  0.5341952811919414  0.3904875208470527  1.0000
  H   H5        1.0  0.06314831399752303  0.3714830981225603  0.6380197055410831  1.0000
  H   H6        1.0  0.9368392323456614  0.6285162677803698  0.36197972322990063  1.0000
  H   H7        1.0  0.4621997972389588  0.7441218514059785  0.3530025918821378  1.0000
  H   H8        1.0  0.537811002262522  0.2558732288031678  0.6469939350179672  1.0000
  H   H9        1.0  0.4515765817123593  0.9894935544641187  0.2710176021668643  1.0000
  H   H10       1.0  0.5484305215439491  0.010503577659051208  0.7289913946601487  1.0000
  H   H11       1.0  0.7331648729325478  0.10790332438939741  0.3454088025881106  1.0000
  H   H12       1.0  0.2668425579464395  0.892098923093819  0.6545820994427273  1.0000
  H   H13       1.0  0.7455820753378999  0.861047971871621  0.4281675335344772  1.0000
  H   H14       1.0  0.254417120486181  0.13895028227961603  0.5718218191639579  1.0000
  H   H15       1.0  0.4253576858719653  0.347243401396625  0.10439276955752767  1.0000
  H   H16       1.0  0.5746361745357685  0.6527721890711435  0.8956113618721273  1.0000
  H   H17       1.0  0.455877798806945  0.41684030333065897  0.8645003142049673  1.0000
  H   H18       1.0  0.5441122136797886  0.5831682083728963  0.13549563193035402  1.0000
  H   H19       1.0  0.8617206617590298  0.2811909900077437  0.8104784367661819  1.0000
  H   H20       1.0  0.13828000447189473  0.7187980590220563  0.18952918021624032  1.0000
  H   H21       1.0  0.8309964182139349  0.21304935642478284  0.0460794349004914  1.0000
  H   H22       1.0  0.16900416367716503  0.7869478323040157  0.9539324315508891  1.0000
  C   C1        1.0  0.10299428715082107  0.7864884983562277  0.39460869416635086  1.0000
  C   C2        1.0  0.8970106389636069  0.21350460509882652  0.6053847638452581  1.0000
  C   C3        1.0  0.303257976663694  0.8241493378768542  0.35066094451296675  1.0000
  C   C4        1.0  0.6967465332833738  0.17585598842013184  0.6493319377904356  1.0000
  C   C5        1.0  0.29711678524400026  0.9609406300931909  0.30494750839051216  1.0000
  C   C6        1.0  0.7028831787108414  0.039056586994931294  0.6950495315826826  1.0000
  C   C7        1.0  0.09168162519847559  0.06227060929388979  0.3034243515257131  1.0000
  C   C8        1.0  0.9083206346542451  0.9377316934938664  0.6965619844754725  1.0000
  C   C9        1.0  0.8906646239247704  0.0277901159795206  0.3453671773261319  1.0000
  C   C10       1.0  0.10933573342273173  0.9722091473468883  0.6546209522668105  1.0000
  C   C11       1.0  0.8973409851048967  0.8906293296468633  0.39071171073788946  1.0000
  C   C12       1.0  0.10266661173020704  0.10937597632337062  0.6092755668063461  1.0000
  C   C13       1.0  0.12602977136428703  0.2771080380683131  0.08860485838935969  1.0000
  C   C14       1.0  0.8739699422946211  0.7228942602317973  0.9114000555394026  1.0000
  C   C15       1.0  0.30355066557408605  0.33314835445387553  0.038923488291722194  1.0000
  C   C16       1.0  0.6964569268867533  0.6668457497854234  0.9610650175799335  1.0000
  C   C17       1.0  0.3208690575837706  0.3715721119476001  0.9059841157318542  1.0000
  C   C18       1.0  0.679135004503308  0.6284169025757792  0.09402530973048326  1.0000
  C   C19       1.0  0.16111499001942048  0.35405634213287135  0.8225644862402035  1.0000
  C   C20       1.0  0.8388549062054124  0.6459492986251333  0.17743442670594334  1.0000
  C   C21       1.0  0.9849401175221641  0.2960912529805668  0.8740658460457595  1.0000
  C   C22       1.0  0.015032148949628999  0.7039184075832738  0.1259532389902275  1.0000
  C   C23       1.0  0.9676909120943545  0.2579016532319827  0.006594919481294416  1.0000
  C   C24       1.0  0.03229344734407381  0.7421120056228432  0.9933987746506217  1.0000
  S   S1        1.0  0.09304067047622061  0.2339872436790529  0.2558018831946143  1.0000
  S   S2        1.0  0.906969149134866  0.7660037529157933  0.7442078311915664  1.0000
  O   O1        1.0  0.10714252355870692  0.6543319087907166  0.4378631170336078  1.0000
  O   O2        1.0  0.8928617545775663  0.34566322802405847  0.5621362794908648  1.0000
  O   O3        1.0  0.5737381025466843  0.5378120293063091  0.635257134964128  1.0000
  O   O4        1.0  0.42624983000666095  0.4621873188720401  0.3647515603557209  1.0000
  O   O5        1.0  0.18164484221189517  0.3952085361920085  0.6933931105522788  1.0000
  O   O6        1.0  0.8183564692736525  0.6047978173630852  0.3066134423685937  1.0000
  O   O7        1.0  0.2939796041775578  0.24752362876824927  0.31993128546779553  1.0000
  O   O8        1.0  0.7060318247322284  0.7524744886584217  0.680072736804334  1.0000
  O   O9        1.0  0.8654237110662988  0.3146598178907567  0.2766961309971023  1.0000
  O   O10       1.0  0.13458884503545207  0.6853403120975089  0.7233165873376207  1.0000
