data_image0
_chemical_formula_structural       Mn3H54C90N6O12F18
_chemical_formula_sum              "Mn3 H54 C90 N6 O12 F18"
_cell_length_a       7.703146012393774
_cell_length_b       22.119536991431374
_cell_length_c       22.119116354299383
_cell_angle_alpha    120.00090215455897
_cell_angle_beta     90.00115930278191
_cell_angle_gamma    89.99948370998297

_space_group_name_H-M_alt    "P 1"
_space_group_IT_number       1

loop_
  _space_group_symop_operation_xyz
  'x, y, z'

loop_
  _atom_site_type_symbol
  _atom_site_label
  _atom_site_symmetry_multiplicity
  _atom_site_fract_x
  _atom_site_fract_y
  _atom_site_fract_z
  _atom_site_occupancy
  Mn  Mn1       1.0  0.5000079693281592  0.4999936360457654  0.999998942330514  1.0000
  Mn  Mn2       1.0  0.49999470569430554  0.499995264163772  0.49999651020549163  1.0000
  Mn  Mn3       1.0  0.4999947124430831  0.9999973837781582  0.49999516659926263  1.0000
  H   H1        1.0  0.13846281902981872  0.3915100469694863  0.8398878318891932  1.0000
  H   H2        1.0  0.1036417720232663  0.09209065658635748  0.6102389822529732  1.0000
  H   H3        1.0  0.8779083889128569  0.016469216113101464  0.5266519320830342  1.0000
  H   H4        1.0  0.6024312627785732  0.2723290138707952  0.8611124254641569  1.0000
  H   H5        1.0  0.923688393454192  0.3170208970387094  0.7498960062891201  1.0000
  H   H6        1.0  0.4156976898242916  0.2078984072351987  0.8057768006164354  1.0000
  H   H7        1.0  0.20419417147214597  0.13395141526569182  0.7172028686514482  1.0000
  H   H8        1.0  0.6941409106799623  0.23993662538564559  0.7254831445097808  1.0000
  H   H9        1.0  0.48647877014199287  0.1568543019108689  0.6359357695788648  1.0000
  H   H10       1.0  0.1384800075548966  0.4483707530337853  0.6084814015559203  1.0000
  H   H11       1.0  0.1036345306391269  0.5181459578356994  0.9079066280704498  1.0000
  H   H12       1.0  0.8779049067381732  0.510180750228905  0.9835240902468316  1.0000
  H   H13       1.0  0.6024518328252594  0.5887748422750648  0.7276796713881526  1.0000
  H   H14       1.0  0.9237005199558724  0.4328676092201534  0.682965696150511  1.0000
  H   H15       1.0  0.4157156016310778  0.5978607142001241  0.7921036929489919  1.0000
  H   H16       1.0  0.20420046894575705  0.5832373722483909  0.8660460605850562  1.0000
  H   H17       1.0  0.694145223312276  0.48554128014401243  0.7600531909961961  1.0000
  H   H18       1.0  0.4864819239860194  0.47907910202395254  0.8431335633698185  1.0000
  H   H19       1.0  0.1384872825405452  0.16011741999889742  0.5516271789392705  1.0000
  H   H20       1.0  0.1036393653614951  0.3897580832336872  0.48184849183904543  1.0000
  H   H21       1.0  0.877906584115877  0.4733436756693337  0.4898191478226083  1.0000
  H   H22       1.0  0.602436766775348  0.13888530969062174  0.41120884935611474  1.0000
  H   H23       1.0  0.9237060073724308  0.2501056416757521  0.5671307846201118  1.0000
  H   H24       1.0  0.4157133730230952  0.19423348049984676  0.4021293001968616  1.0000
  H   H25       1.0  0.20419777088870458  0.2828007671144093  0.4167514921076788  1.0000
  H   H26       1.0  0.6941459999968769  0.27451909106318334  0.5144587562729656  1.0000
  H   H27       1.0  0.4864857150890812  0.3640634519719797  0.5209198542112646  1.0000
  H   H28       1.0  0.8615447667765677  0.6084942727158165  0.1601121936824725  1.0000
  H   H29       1.0  0.8963580248454831  0.9079153316365023  0.3897647999843983  1.0000
  H   H30       1.0  0.12209010975565347  0.9835387203428924  0.4733517102744073  1.0000
  H   H31       1.0  0.39756463950068605  0.7276750448014724  0.1388878610849389  1.0000
  H   H32       1.0  0.07631529786515047  0.6829821875188173  0.2501043502259463  1.0000
  H   H33       1.0  0.5842995107723182  0.7921034235099924  0.19422752238188684  1.0000
  H   H34       1.0  0.7957978364737526  0.8660515107579984  0.28280307165501023  1.0000
  H   H35       1.0  0.30586018440731505  0.7600676056906366  0.2745214907298745  1.0000
  H   H36       1.0  0.5135145359711331  0.8431493372198346  0.3640703618146972  1.0000
  H   H37       1.0  0.8615120002340076  0.5516215137574464  0.3915144014162736  1.0000
  H   H38       1.0  0.8963639680185763  0.48185660470038283  0.09209425046567077  1.0000
  H   H39       1.0  0.12209878460332388  0.48981617737854327  0.016474285506866672  1.0000
  H   H40       1.0  0.39754796396339737  0.4112186596449448  0.27231580065483035  1.0000
  H   H41       1.0  0.07629148784745608  0.567131196694291  0.31703351382773803  1.0000
  H   H42       1.0  0.5842867914298324  0.4021331885775652  0.20788956979881587  1.0000
  H   H43       1.0  0.7958019241150324  0.41676028714928043  0.13394887069698322  1.0000
  H   H44       1.0  0.3058506790732308  0.5144590032243955  0.23994906256798035  1.0000
  H   H45       1.0  0.5135165747523374  0.5209190420250779  0.15686811695668015  1.0000
  H   H46       1.0  0.8615190051353919  0.8398809338225773  0.44837157898863483  1.0000
  H   H47       1.0  0.8963630278601045  0.610245765669788  0.5181547171606554  1.0000
  H   H48       1.0  0.12209580917163977  0.5266586071738147  0.5101856272969841  1.0000
  H   H49       1.0  0.3975617317325372  0.8611108023296057  0.5887840124823216  1.0000
  H   H50       1.0  0.07629638588961278  0.749892241364222  0.4328711567405534  1.0000
  H   H51       1.0  0.5842799328925778  0.8057654652618995  0.5978679615014714  1.0000
  H   H52       1.0  0.7958020259838533  0.717200751381789  0.583250430513097  1.0000
  H   H53       1.0  0.3058447096720016  0.7254838536440503  0.4855435484794626  1.0000
  H   H54       1.0  0.5135127835831739  0.635941893067347  0.4790827627966863  1.0000
  C   C1        1.0  0.15289060930665946  0.3350264532805198  0.8119514864460841  1.0000
  C   C2        1.0  0.2937365318760142  0.30573229966486815  0.8288025759473074  1.0000
  C   C3        1.0  0.4096409249374274  0.35261536000228233  0.8874031396052547  1.0000
  C   C4        1.0  0.968880475193991  0.10951320636116446  0.6182900081772476  1.0000
  C   C5        1.0  0.843942390390552  0.066894988886375  0.5711876048958191  1.0000
  C   C6        1.0  0.8430727409465887  0.32346775976593994  0.957177258248109  1.0000
  C   C7        1.0  0.6790508621214142  0.3622653136199079  0.9544757077656671  1.0000
  C   C8        1.0  0.04821031648906168  0.21985474582606213  0.7268794510344636  1.0000
  C   C9        1.0  0.5666021392092304  0.32571084291708985  0.8983869490841273  1.0000
  C   C10       1.0  0.031817091271513186  0.29299687128424523  0.76208941731624  1.0000
  C   C11       1.0  0.31109947032726376  0.23268263427203115  0.7929323021030046  1.0000
  C   C12       1.0  0.1908905242124561  0.19047033354536325  0.7426489456151162  1.0000
  C   C13       1.0  0.7417701448531985  0.19149962316231503  0.6813837865624068  1.0000
  C   C14       1.0  0.6251247523407312  0.14527071309438358  0.631869261552609  1.0000
  C   C15       1.0  0.9190367301410516  0.17397517566288925  0.6753167830077376  1.0000
  C   C16       1.0  0.15290785569746387  0.47691795172663387  0.6649692797586939  1.0000
  C   C17       1.0  0.29375835517462423  0.523057255536706  0.6942657176130852  1.0000
  C   C18       1.0  0.40967051764970097  0.5347780957384033  0.6473862457646362  1.0000
  C   C19       1.0  0.968875435688332  0.5087741334176317  0.8904821183558342  1.0000
  C   C20       1.0  0.8439498546227282  0.504290549227463  0.933097990819711  1.0000
  C   C21       1.0  0.8430839117530837  0.6337033235382492  0.6765402626555855  1.0000
  C   C22       1.0  0.6790646193299704  0.5922056610058491  0.6377435631434453  1.0000
  C   C23       1.0  0.04821073998082429  0.507014787959534  0.7801377410566348  1.0000
  C   C24       1.0  0.5666222682968466  0.5726665609132838  0.6742957954683109  1.0000
  C   C25       1.0  0.031827483089592996  0.4690855974765214  0.7069952989564073  1.0000
  C   C26       1.0  0.3111100546635797  0.5602358186857476  0.7673178983238177  1.0000
  C   C27       1.0  0.1909007631181439  0.5521660346803687  0.8095262025154926  1.0000
  C   C28       1.0  0.7417699771871894  0.4898784443888218  0.8084888163243208  1.0000
  C   C29       1.0  0.6251255179890192  0.48659491426423085  0.8547186683012458  1.0000
  C   C30       1.0  0.919036873792251  0.5013345179914312  0.8260158392166093  1.0000
  C   C31       1.0  0.15291266209770524  0.18805140705303108  0.5230791271420474  1.0000
  C   C32       1.0  0.2937591849905842  0.1712049200547554  0.4769363921779758  1.0000
  C   C33       1.0  0.4096654943558561  0.1126030567023051  0.4652164269868352  1.0000
  C   C34       1.0  0.9688771392331573  0.3817076770984614  0.49122273253743753  1.0000
  C   C35       1.0  0.843944585970263  0.4288069313147176  0.49570492461937493  1.0000
  C   C36       1.0  0.8430591713515624  0.042813592519976955  0.36627354938568163  1.0000
  C   C37       1.0  0.6790520297829019  0.04552052917651392  0.4077811374243795  1.0000
  C   C38       1.0  0.04821449729102059  0.27312244130894925  0.4929798887797789  1.0000
  C   C39       1.0  0.5666133951717072  0.1016150902733983  0.42732168801831705  1.0000
  C   C40       1.0  0.03182924728804439  0.23791203393446395  0.5309105494814264  1.0000
  C   C41       1.0  0.3111102874316458  0.20707499157760623  0.4397557190279074  1.0000
  C   C42       1.0  0.19089664857956729  0.2573540291481963  0.4478233706692337  1.0000
  C   C43       1.0  0.741772595771337  0.31861658394667114  0.5101190615225522  1.0000
  C   C44       1.0  0.6251287974950229  0.3681291956305089  0.5134021989896455  1.0000
  C   C45       1.0  0.9190413144865557  0.3246852150502664  0.49866266640609797  1.0000
  C   C46       1.0  0.847113081987089  0.6649759880938008  0.18804770484428707  1.0000
  C   C47       1.0  0.7062645631563951  0.6942713581517026  0.17119991992532135  1.0000
  C   C48       1.0  0.5903588718984807  0.6473876546307622  0.11259819103795363  1.0000
  C   C49       1.0  0.031118023522083097  0.8904948512579197  0.3817153214448511  1.0000
  C   C50       1.0  0.1560535119142443  0.9331115912790795  0.4288146811450845  1.0000
  C   C51       1.0  0.15692965218006083  0.6765302118813851  0.042820073420934114  1.0000
  C   C52       1.0  0.3209502328598647  0.6377351795202771  0.045523623390458616  1.0000
  C   C53       1.0  0.9517920767764206  0.7801499373471829  0.2731256363122725  1.0000
  C   C54       1.0  0.43339765763035837  0.6742914586092753  0.10161419047670252  1.0000
  C   C55       1.0  0.9681866000917123  0.7070070475430441  0.2379128175458689  1.0000
  C   C56       1.0  0.688897730283955  0.7673201006664173  0.20707292510002864  1.0000
  C   C57       1.0  0.8091092727039848  0.8095320192206047  0.2573548553526949  1.0000
  C   C58       1.0  0.258227055703088  0.8085044168264021  0.3186201355407192  1.0000
  C   C59       1.0  0.3748711501032105  0.8547331870470388  0.36813660883044014  1.0000
  C   C60       1.0  0.08096047043714798  0.8260302206157065  0.32468849540246947  1.0000
  C   C61       1.0  0.8470906429495029  0.5230773585795488  0.3350280006889932  1.0000
  C   C62       1.0  0.7062375471123088  0.47693598537225074  0.3057300154356923  1.0000
  C   C63       1.0  0.5903331736151359  0.4652131456994653  0.35260696578073697  1.0000
  C   C64       1.0  0.031123062987724392  0.4912267418950337  0.10951863903551387  1.0000
  C   C65       1.0  0.15605253855149206  0.49570754358295227  0.0669010281139961  1.0000
  C   C66       1.0  0.15691718324667642  0.3662917257585434  0.3234572788215432  1.0000
  C   C67       1.0  0.3209351774877759  0.40779340592064284  0.3622553858431986  1.0000
  C   C68       1.0  0.9517838641204148  0.4929831836858085  0.21985959058403637  1.0000
  C   C69       1.0  0.4333749321426977  0.4273264889094364  0.3256992244628521  1.0000
  C   C70       1.0  0.9681658229102864  0.5309119733114614  0.29300424198416414  1.0000
  C   C71       1.0  0.6888871457503141  0.4397584662637612  0.2326767906497622  1.0000
  C   C72       1.0  0.8091003317973388  0.4478322679001677  0.19046989398651706  1.0000
  C   C73       1.0  0.25822852148886705  0.5101224309238432  0.19151194106702726  1.0000
  C   C74       1.0  0.3748729807091422  0.5134016824083503  0.1452809425958393  1.0000
  C   C75       1.0  0.0809629230327999  0.49866500103168926  0.1739835618723902  1.0000
  C   C76       1.0  0.8470923274366058  0.8119468768446296  0.4769206049234499  1.0000
  C   C77       1.0  0.706243208187253  0.8287943379589747  0.523063269940458  1.0000
  C   C78       1.0  0.5903433896289201  0.8873960801499906  0.5347815478905817  1.0000
  C   C79       1.0  0.0311187631851908  0.618295579859762  0.5087819726209093  1.0000
  C   C80       1.0  0.1560565091133981  0.5711961345582637  0.5042990674355394  1.0000
  C   C81       1.0  0.1569471162365446  0.9571849710719393  0.6337222861152583  1.0000
  C   C82       1.0  0.32095036328525584  0.9544757040077984  0.5922134116929101  1.0000
  C   C83       1.0  0.9517878959599172  0.7268794593610578  0.5070234600951266  1.0000
  C   C84       1.0  0.4333838052494271  0.8983815250827264  0.5726742873247376  1.0000
  C   C85       1.0  0.9681718477372455  0.7620855368555156  0.46908899148751004  1.0000
  C   C86       1.0  0.6888856148697184  0.7929247884545703  0.5602434210269253  1.0000
  C   C87       1.0  0.8091018500818803  0.7426459419712191  0.5521764825173963  1.0000
  C   C88       1.0  0.25822590292295183  0.6813863607625522  0.4898832432582483  1.0000
  C   C89       1.0  0.37487489388281137  0.6318756273900378  0.48660094007718163  1.0000
  C   C90       1.0  0.08095328972062528  0.6753183728411615  0.5013408035852154  1.0000
  N   N1        1.0  0.674701105094762  0.08383882806078459  0.5772529549212565  1.0000
  N   N2        1.0  0.67470047095928  0.4934075077439602  0.9161508208960499  1.0000
  N   N3        1.0  0.6747037393447995  0.4227442978304979  0.5065884096370683  1.0000
  N   N4        1.0  0.325294797235756  0.9161646386678866  0.42274882781011763  1.0000
  N   N5        1.0  0.3252993259134626  0.5065883758222682  0.08384859892338169  1.0000
  N   N6        1.0  0.32529605756428026  0.5772594811488291  0.49341577349549964  1.0000
  O   O1        1.0  0.3577896922751833  0.41554619066310056  0.9260511674290159  1.0000
  O   O2        1.0  0.6672960411227534  0.4246714031934857  0.0056188673621590515  1.0000
  O   O3        1.0  0.35780837050437236  0.5104954850888036  0.5844570230591659  1.0000
  O   O4        1.0  0.6673002213478085  0.5809459970194766  0.5753380215818638  1.0000
  O   O5        1.0  0.3578008807625962  0.07396326556451537  0.4895039578947691  1.0000
  O   O6        1.0  0.6672890099386065  0.9943811518103374  0.41904531992003763  1.0000
  O   O7        1.0  0.6422204900339992  0.5844586835987117  0.07395463306843907  1.0000
  O   O8        1.0  0.33270894836392984  0.5753286378510725  0.9943800117057936  1.0000
  O   O9        1.0  0.6421940226592255  0.48949159887174437  0.4155367292518833  1.0000
  O   O10       1.0  0.3326995754442804  0.41905430503381075  0.4246605964471898  1.0000
  O   O11       1.0  0.6422041088154131  0.9260414875328778  0.5105001553191074  1.0000
  O   O12       1.0  0.3327107868095992  0.005618315973173156  0.5809514197619806  1.0000
  F   F1        1.0  0.9897837430901502  0.35730612803794076  0.9556232135903643  1.0000
  F   F2        1.0  0.8558759170062017  0.2562862510224236  0.9037922824069187  1.0000
  F   F3        1.0  0.8476695012794835  0.3213418214573025  0.018002497698240902  1.0000
  F   F4        1.0  0.9897961696483647  0.5983063730947863  0.6427005857256989  1.0000
  F   F5        1.0  0.8559090215389202  0.6475055170304672  0.7437237163357724  1.0000
  F   F6        1.0  0.8476864713527872  0.6966517834164777  0.678665865055308  1.0000
  F   F7        1.0  0.9897872461109641  0.044396080819879565  0.40167491881292966  1.0000
  F   F8        1.0  0.8558281836816872  0.09617426528118501  0.35244141988299305  1.0000
  F   F9        1.0  0.8476601567386763  0.9819759506849124  0.30333330548081244  1.0000
  F   F10       1.0  0.010212159163643299  0.6426935308311457  0.04437423919980433  1.0000
  F   F11       1.0  0.14411219624047084  0.7437135989312438  0.09620588347722503  1.0000
  F   F12       1.0  0.15233159368350604  0.6786584805963116  0.981996120335545  1.0000
  F   F13       1.0  0.010208820017844301  0.40168690037223354  0.3573014443124692  1.0000
  F   F14       1.0  0.14408947715548945  0.35249367105878093  0.2562769199108034  1.0000
  F   F15       1.0  0.15233149977723306  0.30334231045177523  0.3213281108715834  1.0000
  F   F16       1.0  0.010217743364670196  0.955606099544717  0.5983245335021508  1.0000
  F   F17       1.0  0.1441781038150225  0.9038214645678835  0.6475500157391353  1.0000
  F   F18       1.0  0.152348727275438  0.01802123793391542  0.6966648092718091  1.0000
