data_image0
_chemical_formula_structural       Zn2H24C28N20
_chemical_formula_sum              "Zn2 H24 C28 N20"
_cell_length_a       7.403919796923022
_cell_length_b       7.548050172898091
_cell_length_c       14.296335605045295
_cell_angle_alpha    90.00002782090033
_cell_angle_beta     89.99972475326295
_cell_angle_gamma    102.9829746995455

_space_group_name_H-M_alt    "P 1"
_space_group_IT_number       1

loop_
  _space_group_symop_operation_xyz
  'x, y, z'

loop_
  _atom_site_type_symbol
  _atom_site_label
  _atom_site_symmetry_multiplicity
  _atom_site_fract_x
  _atom_site_fract_y
  _atom_site_fract_z
  _atom_site_occupancy
  Zn  Zn1       1.0  2.710597641500646e-06  0.5000009429312158  0.5000009333479624  1.0000
  Zn  Zn2       1.0  0.49999852850842796  0.5000022967857731  0.9999997877099742  1.0000
  H   H1        1.0  0.9289723532012673  0.12413598861769508  0.3389808748677509  1.0000
  H   H2        1.0  0.5710335730389816  0.8758696697415755  0.8389801795734682  1.0000
  H   H3        1.0  0.07103060995465428  0.8758612302869364  0.661016994162601  1.0000
  H   H4        1.0  0.4289635083380077  0.12413155118033357  0.16102118686429628  1.0000
  H   H5        1.0  0.9387436684956612  0.12087915406279848  0.2197999727024182  1.0000
  H   H6        1.0  0.5612554886495644  0.8791211689162706  0.7197972034660793  1.0000
  H   H7        1.0  0.06125599420411726  0.8791153152018649  0.780197896331458  1.0000
  H   H8        1.0  0.43874459701122254  0.12088144213063147  0.2802041629683031  1.0000
  H   H9        1.0  0.08467231165548128  0.41468010182890674  0.29885277012194666  1.0000
  H   H10       1.0  0.41533740300481975  0.5853221573495588  0.7988511555154716  1.0000
  H   H11       1.0  0.9153414839322738  0.5853172395136638  0.7011478968152003  1.0000
  H   H12       1.0  0.5846694529484822  0.4146805302244728  0.20114741299103395  1.0000
  H   H13       1.0  0.08815931325225526  0.5642723324286079  0.14137957005547006  1.0000
  H   H14       1.0  0.4118418975451306  0.4357273373647386  0.6413786153402794  1.0000
  H   H15       1.0  0.9118422958270643  0.43572487116786357  0.85862249585616  1.0000
  H   H16       1.0  0.5881687243994878  0.5642740366088007  0.3586206526414414  1.0000
  H   H17       1.0  0.03171198532573533  0.8769943995925474  0.1313449486657561  1.0000
  H   H18       1.0  0.4682833167507923  0.12300250503928817  0.6313437582403694  1.0000
  H   H19       1.0  0.9682843769109297  0.1229973200310894  0.8686543193315186  1.0000
  H   H20       1.0  0.5317158803929302  0.8769960274626738  0.3686576081944252  1.0000
  H   H21       1.0  0.9907448407009483  0.8721664176921419  0.4328511288994718  1.0000
  H   H22       1.0  0.5092582051237785  0.1278363651872567  0.9328496425013951  1.0000
  H   H23       1.0  0.009257826279139195  0.12782944169698848  0.5671474396109629  1.0000
  H   H24       1.0  0.4907351102549314  0.8721661693340861  0.06715242342104227  1.0000
  C   C1        1.0  0.3375963323586362  0.2880261952325752  0.4502345949022483  1.0000
  C   C2        1.0  0.16240447084265242  0.7119852457929241  0.9502350267685029  1.0000
  C   C3        1.0  0.6624087039794162  0.711980540273224  0.5497681704867432  1.0000
  C   C4        1.0  0.8375900292498458  0.288022726792029  0.0497621427937887  1.0000
  C   C5        1.0  0.6319718483583117  0.23621992975304093  0.43655310523433843  1.0000
  C   C6        1.0  0.8680270984535454  0.7637828016433515  0.9365537597974833  1.0000
  C   C7        1.0  0.3680330611632384  0.7637800234812885  0.5634517585935441  1.0000
  C   C8        1.0  0.1319669786535727  0.23621702915567505  0.06344480872389367  1.0000
  C   C9        1.0  0.06186889816326867  0.551397969666368  0.2913040318647973  1.0000
  C   C10       1.0  0.4381404260591779  0.44860836410098387  0.7913044171451344  1.0000
  C   C11       1.0  0.9381421893234859  0.4485993410677693  0.7086945366357682  1.0000
  C   C12       1.0  0.5618643141204346  0.5513970118919429  0.20869555032422224  1.0000
  C   C13       1.0  0.06319752773540437  0.6355862845888537  0.20451886788228527  1.0000
  C   C14       1.0  0.4368019969432524  0.3644146344778603  0.7045164314475014  1.0000
  C   C15       1.0  0.9368048430653675  0.3644082152842429  0.7954810995881727  1.0000
  C   C16       1.0  0.5631991466148208  0.6355866323611676  0.2954821370656261  1.0000
  C   C17       1.0  0.03448439992106963  0.8106819842281682  0.19889721010831346  1.0000
  C   C18       1.0  0.4655141228144188  0.18932028750199945  0.6988939491550141  1.0000
  C   C19       1.0  0.9655114967699847  0.18931379863435174  0.8011034568500573  1.0000
  C   C20       1.0  0.5344850743397417  0.8106782450015402  0.30110531883995845  1.0000
  C   C21       1.0  0.008434529633447607  0.9031479712007096  0.2816513291656264  1.0000
  C   C22       1.0  0.49156587779467736  0.09685420670745509  0.781649375014929  1.0000
  C   C23       1.0  0.9915627211202817  0.09684782696786697  0.7183479388312433  1.0000
  C   C24       1.0  0.5084322614622039  0.9031456700039511  0.21835269090129114  1.0000
  C   C25       1.0  0.011007746522075534  0.8086345053352062  0.36631636310733023  1.0000
  C   C26       1.0  0.488993468711314  0.19136892008912545  0.8663137459552954  1.0000
  C   C27       1.0  0.988996274506768  0.1913613693578782  0.6336836043613656  1.0000
  C   C28       1.0  0.5109971385664025  0.8086335838237841  0.13368622153056003  1.0000
  N   N1        1.0  0.2206827167050633  0.36708880588380305  0.4651819347254074  1.0000
  N   N2        1.0  0.2793152296482475  0.6329225820551727  0.9651841591503894  1.0000
  N   N3        1.0  0.7793218541221736  0.6329219928661374  0.5348152348252596  1.0000
  N   N4        1.0  0.7206795666131286  0.3670867500442298  0.03481370989170069  1.0000
  N   N5        1.0  0.453307200023474  0.18717943847144616  0.43153174522095833  1.0000
  N   N6        1.0  0.046690192674432744  0.8128279215256453  0.9315261917546065  1.0000
  N   N7        1.0  0.5466931817644323  0.8128245320835957  0.5684787144525316  1.0000
  N   N8        1.0  0.953302657200425  0.18717867624089726  0.06846887936961818  1.0000
  N   N9        1.0  0.7956220219803355  0.264546135749505  0.43684809397218055  1.0000
  N   N10       1.0  0.7043766257116532  0.7354552356864942  0.9368512305706672  1.0000
  N   N11       1.0  0.20438127989077512  0.7354402376426703  0.5631532724557431  1.0000
  N   N12       1.0  0.2956169858498613  0.26454865835141556  0.0631487369118062  1.0000
  N   N13       1.0  0.03382536269509726  0.6378186855532347  0.37040686704750664  1.0000
  N   N14       1.0  0.46617746205790667  0.3621861085393688  0.870405758375085  1.0000
  N   N15       1.0  0.9661765425670197  0.36217987755978936  0.6295931004241594  1.0000
  N   N16       1.0  0.5338182652668452  0.6378150970780607  0.1295949085843588  1.0000
  N   N17       1.0  0.9853545025034907  0.07876941333921648  0.28100370547639386  1.0000
  N   N18       1.0  0.5146456958750819  0.9212321924308069  0.7810031600234806  1.0000
  N   N19       1.0  0.014644864020446777  0.9212236964099387  0.7189948630375653  1.0000
  N   N20       1.0  0.48535003143923217  0.07876901318505247  0.21899960537579224  1.0000
