data_image0
_chemical_formula_structural       Zn8H24C88Br32O26
_chemical_formula_sum              "Zn8 H24 C88 Br32 O26"
_cell_length_a       24.06637177620702
_cell_length_b       24.068216698072966
_cell_length_c       24.066176766926638
_cell_angle_alpha    66.75673415388579
_cell_angle_beta     72.38787441612158
_cell_angle_gamma    107.62256484177057

_space_group_name_H-M_alt    "P 1"
_space_group_IT_number       1

loop_
  _space_group_symop_operation_xyz
  'x, y, z'

loop_
  _atom_site_type_symbol
  _atom_site_label
  _atom_site_symmetry_multiplicity
  _atom_site_fract_x
  _atom_site_fract_y
  _atom_site_fract_z
  _atom_site_occupancy
  Zn  Zn1       1.0  0.05597592508669889  0.9571037572577339  0.4869765610536163  1.0000
  Zn  Zn2       1.0  0.055976612485459036  0.09887361843752981  0.4570608363360337  1.0000
  Zn  Zn3       1.0  0.9440163119525737  0.9869740769120983  0.45709635038966206  1.0000
  Zn  Zn4       1.0  0.9440376798603155  0.9570579826672517  0.598874443610768  1.0000
  Zn  Zn5       1.0  0.9440706269477203  0.5429439085374029  0.013020845795139858  1.0000
  Zn  Zn6       1.0  0.05593938105052118  0.5130281698750281  0.04294688879900115  1.0000
  Zn  Zn7       1.0  0.9440656144279058  0.40112494885442374  0.042900318335192554  1.0000
  Zn  Zn8       1.0  0.055915212089360115  0.5428941159555267  0.9011256830484984  1.0000
  H   H1        1.0  0.8572725712415872  0.7569644730047642  0.8238639522621938  1.0000
  H   H2        1.0  0.9087437013618141  0.8415573170063058  0.7500771929236335  1.0000
  H   H3        1.0  0.9190066531338204  0.8184798822217447  0.8242555522541509  1.0000
  H   H4        1.0  0.08084137344358305  0.6811502352653919  0.6761303565288515  1.0000
  H   H5        1.0  0.09164955927812464  0.6588351500140845  0.7499224617777642  1.0000
  H   H6        1.0  0.1427455093031823  0.7432699293446489  0.6757489778490539  1.0000
  H   H7        1.0  0.9191589716594636  0.7430230168507493  0.8996964599048666  1.0000
  H   H8        1.0  0.908350397634088  0.6584292363307825  0.9328166320063149  1.0000
  H   H9        1.0  0.8572544303984344  0.6815127059586459  0.8994686578350798  1.0000
  H   H10       1.0  0.14272861429488873  0.8188560275929433  0.6003145457851249  1.0000
  H   H11       1.0  0.09125804752446243  0.8411784150254891  0.5671823048499008  1.0000
  H   H12       1.0  0.08099524464577706  0.7567449549368774  0.6005178878460457  1.0000
  H   H13       1.0  0.8572744131230221  0.10031312438800907  0.31883190945366396  1.0000
  H   H14       1.0  0.9087479163778057  0.0671908657817397  0.34115131665139853  1.0000
  H   H15       1.0  0.9190077926427237  0.10053669418269352  0.2567103007558914  1.0000
  H   H16       1.0  0.08084311933317423  0.3996823405765469  0.24305581567406884  1.0000
  H   H17       1.0  0.09164425511507797  0.4328096161925856  0.15845727647810304  1.0000
  H   H18       1.0  0.1427448557706299  0.39947273320593985  0.18153559846683015  1.0000
  H   H19       1.0  0.9191609891896134  0.1761415911892429  0.18112725720657621  1.0000
  H   H20       1.0  0.9083583025357314  0.24993104626926038  0.15880808971103041  1.0000
  H   H21       1.0  0.8572590060231562  0.1757566402208468  0.2432414388314045  1.0000
  H   H22       1.0  0.14272357939715613  0.32385931405957546  0.2569961056308046  1.0000
  H   H23       1.0  0.0912500146594653  0.2500704523794753  0.34158769003227024  1.0000
  H   H24       1.0  0.08099047022969336  0.3242452869563906  0.31850826623159634  1.0000
  C   C1        1.0  0.1801395916611384  0.0900781516828886  0.40993523000443594  1.0000
  C   C2        1.0  0.9999977558555956  0.13800935292861993  0.3619899407147075  1.0000
  C   C3        1.0  0.9999946475001736  0.909949584575685  0.40995478711231226  1.0000
  C   C4        1.0  0.8198641170133527  0.9099178023708703  0.5900902536661907  1.0000
  C   C5        1.0  5.09661859102107e-08  0.8619863316038875  0.6380114975547998  1.0000
  C   C6        1.0  0.999997143339357  0.09004834601807929  0.5900554778723547  1.0000
  C   C7        1.0  0.9999969086040394  0.5900549381060927  0.09007819654819839  1.0000
  C   C8        1.0  4.798983638957315e-06  0.3619908495242258  0.1380087419064893  1.0000
  C   C9        1.0  0.8198981471025347  0.40993967555398586  0.09003961818312688  1.0000
  C   C10       1.0  0.9999885359009044  0.40991652179828014  0.9099423670658671  1.0000
  C   C11       1.0  0.9999972974303477  0.6380107043354644  0.8619863461376058  1.0000
  C   C12       1.0  0.18009843286196775  0.5900475772764083  0.909932454510738  1.0000
  C   C13       1.0  9.63424056921114e-07  0.8043235906643673  0.6956756530392456  1.0000
  C   C14       1.0  0.9999990174580446  0.695675596500152  0.8043236276320873  1.0000
  C   C15       1.0  0.9567518179450832  0.7768684128841702  0.766393667106662  1.0000
  C   C16       1.0  0.04326758705970949  0.7231496822501527  0.7336055671661017  1.0000
  C   C17       1.0  0.9567316329415906  0.7231259812422197  0.8201173419950437  1.0000
  C   C18       1.0  0.043248923819476245  0.7768542977664696  0.6798815696268788  1.0000
  C   C19       1.0  0.9999981243858824  0.1956739249684318  0.3043252642161677  1.0000
  C   C20       1.0  3.4714663286139447e-06  0.30432738425877665  0.19567617980145263  1.0000
  C   C21       1.0  0.9567528136020086  0.17988662543665862  0.27684263003749987  1.0000
  C   C22       1.0  0.04326787731426409  0.3201151898974858  0.22314037442161083  1.0000
  C   C23       1.0  0.9567348284644838  0.23361205702131121  0.22313845950996844  1.0000
  C   C24       1.0  0.04324651707400309  0.2663891402608343  0.276883695283729  1.0000
  C   C25       1.0  2.3602555640346554e-07  0.6278322251524103  0.12785566884046762  1.0000
  C   C26       1.0  0.9574147679373082  0.6578299048062846  0.1347857163186675  1.0000
  C   C27       1.0  0.957543009752186  0.6924344385342422  0.17008133029843003  1.0000
  C   C28       1.0  0.9999938736570967  0.699567054888881  0.199590632910585  1.0000
  C   C29       1.0  0.042444493670288505  0.6700636016177628  0.19246996700263702  1.0000
  C   C30       1.0  0.042580096493189584  0.6347694183286098  0.15786314872958218  1.0000
  C   C31       1.0  0.9999864494010212  0.7347569119748276  0.23479327026240754  1.0000
  C   C32       1.0  0.9999812777322532  0.7652150153155902  0.2652568869677126  1.0000
  C   C33       1.0  0.9999802408436124  0.8004097087082442  0.3004536047151377  1.0000
  C   C34       1.0  0.9575359376803337  0.8299195101916512  0.3075679492514212  1.0000
  C   C35       1.0  0.9574045856536914  0.86521536181715  0.3421707454831732  1.0000
  C   C36       1.0  0.9999763146848365  0.8721459785456533  0.372192839169067  1.0000
  C   C37       1.0  0.04253588301853036  0.8421162186186636  0.3652916069959033  1.0000
  C   C38       1.0  0.042412895693992536  0.8075215799872099  0.3299859243769205  1.0000
  C   C39       1.0  7.932478524700502e-06  0.37213467587750426  0.8721726384389044  1.0000
  C   C40       1.0  0.042598777849633465  0.4077796999756202  0.7995923791931716  1.0000
  C   C41       1.0  0.04245851301999435  0.37235680427631485  0.7651152551577242  1.0000
  C   C42       1.0  5.248404448556215e-07  0.3004077176441058  0.8004339836162873  1.0000
  C   C43       1.0  0.9575576235184187  0.2650832244506205  0.8723902053917884  1.0000
  C   C44       1.0  0.9574321000203625  0.2995532791211204  0.9078198343208544  1.0000
  C   C45       1.0  0.9999941778442719  0.2652154117785629  0.7652354725950732  1.0000
  C   C46       1.0  0.9999922652866076  0.23475796586311054  0.7347712451872539  1.0000
  C   C47       1.0  0.9999903383030925  0.1995685649876221  0.6995708397301217  1.0000
  C   C48       1.0  0.04242268968280877  0.23489489437144334  0.6276125119454221  1.0000
  C   C49       1.0  0.042544834419125314  0.20042404143509174  0.5921825579614648  1.0000
  C   C50       1.0  0.9999844561038245  0.12783796909672412  0.6278281744447444  1.0000
  C   C51       1.0  0.9574065804464382  0.09219301422054822  0.7004144570469253  1.0000
  C   C52       1.0  0.957542311274608  0.12761550469969773  0.7348910345572295  1.0000
  C   C53       1.0  0.7443343885799862  0.3721612173228267  0.1278313218040453  1.0000
  C   C54       1.0  0.7073940496444919  0.4078061201593429  0.13475321287312877  1.0000
  C   C55       1.0  0.6374943610308675  0.37238118877999676  0.17005120494029305  1.0000
  C   C56       1.0  0.6008605672947523  0.3004265826099513  0.19956381153217967  1.0000
  C   C57       1.0  0.6374920907162291  0.2651019394984858  0.1924529618806828  1.0000
  C   C58       1.0  0.7073922747171437  0.29957387831067467  0.15785748277181716  1.0000
  C   C59       1.0  0.5304696917531614  0.26523557471464443  0.2347508787283276  1.0000
  C   C60       1.0  0.469548559543675  0.2347803074240531  0.26521068551034693  1.0000
  C   C61       1.0  0.3991575970346942  0.19959127804787613  0.300399906038443  1.0000
  C   C62       1.0  0.36252810084608456  0.2349164028349051  0.307517016263219  1.0000
  C   C63       1.0  0.2926280696332243  0.2004461648715933  0.3421117772530878  1.0000
  C   C64       1.0  0.2556920599624135  0.12786492193378513  0.37211997198659225  1.0000
  C   C65       1.0  0.29262599054434446  0.09222082263271147  0.3651672906138615  1.0000
  C   C66       1.0  0.36252469775699586  0.12764220080927677  0.3298888663947253  1.0000
  C   C67       1.0  0.25566232174868714  0.6278230774954777  0.8721593319102399  1.0000
  C   C68       1.0  0.29260784405631296  0.6347336375390852  0.9078098030609001  1.0000
  C   C69       1.0  0.36250834713565167  0.6700364878413367  0.872385689445167  1.0000
  C   C70       1.0  0.399137777756401  0.699556766984678  0.8004283833659402  1.0000
  C   C71       1.0  0.3624988602628036  0.6924383779822706  0.7651017976181792  1.0000
  C   C72       1.0  0.29259957768505973  0.6578423806900348  0.7995714945343338  1.0000
  C   C73       1.0  0.46952937255605315  0.734746942799383  0.7652347790568117  1.0000
  C   C74       1.0  0.5304502873412675  0.7652071570389014  0.7347818096725547  1.0000
  C   C75       1.0  0.6008424932716211  0.8004041386675173  0.6995907337110625  1.0000
  C   C76       1.0  0.6374804306645815  0.8075292886108089  0.7349153604407805  1.0000
  C   C77       1.0  0.7073813268429137  0.8421299957760413  0.7004445615338355  1.0000
  C   C78       1.0  0.7443105371224306  0.8721304172100163  0.6278624610269646  1.0000
  C   C79       1.0  0.7073695451635728  0.8651892920509638  0.59221479980436  1.0000
  C   C80       1.0  0.6374706568990764  0.8299014754389733  0.6276378878576095  1.0000
  C   C81       1.0  0.9082707789295058  0.8005750411422458  0.7912458924559119  1.0000
  C   C82       1.0  0.09183412724659235  0.6995275222289834  0.70875187616808  1.0000
  C   C83       1.0  0.9081656979367025  0.6994143159538453  0.892306490311818  1.0000
  C   C84       1.0  0.09173177744432348  0.8004833979978515  0.6076928189305022  1.0000
  C   C85       1.0  0.9082734895761817  0.10769981274080466  0.30045689710265583  1.0000
  C   C86       1.0  0.09183186459173232  0.3923019821746863  0.199440679810067  1.0000
  C   C87       1.0  0.9081719365564425  0.2087618232678353  0.19950359595971182  1.0000
  C   C88       1.0  0.09172537800616713  0.29124054254575793  0.3006033416310602  1.0000
  Br  Br1       1.0  0.8976674333903533  0.6551208752707395  0.09802735158795188  1.0000
  Br  Br2       1.0  0.10233343400954456  0.5980287363234212  0.15516436279654036  1.0000
  Br  Br3       1.0  0.09877828661135635  0.6804936746085135  0.2318363273204226  1.0000
  Br  Br4       1.0  0.9012136092728793  0.7317953169698939  0.18049394720718245  1.0000
  Br  Br5       1.0  0.9012249477246785  0.8195091320886835  0.26817652526388264  1.0000
  Br  Br6       1.0  0.0987331610957157  0.7681458923907204  0.31958067352786657  1.0000
  Br  Br7       1.0  0.10224434556772617  0.8447724623724968  0.4020979531446899  1.0000
  Br  Br8       1.0  0.8976588565850251  0.9019641642189884  0.3448602831194096  1.0000
  Br  Br9       1.0  0.10238459648057592  0.504264339196901  0.7425487689994059  1.0000
  Br  Br10      1.0  0.8977119979160121  0.24251249470012964  0.004318869908480723  1.0000
  Br  Br11      1.0  0.9012257711971047  0.16939049008623633  0.9182960267400163  1.0000
  Br  Br12      1.0  0.09878677908513113  0.4182557788469411  0.6694267515136474  1.0000
  Br  Br13      1.0  0.09873695128180764  0.3305891372775989  0.5817122447987941  1.0000
  Br  Br14      1.0  0.9012306980434772  0.08171047586942141  0.8305852048423079  1.0000
  Br  Br15      1.0  0.8976426717283134  0.9957043300617627  0.7574530699977873  1.0000
  Br  Br16      1.0  0.102260365445531  0.25747558161996414  0.4956816823640652  1.0000
  Br  Br17      1.0  0.7468470221113037  0.5043009941418576  0.09799816788457603  1.0000
  Br  Br18      1.0  0.7468415411680099  0.24252449777578272  0.15518975038099123  1.0000
  Br  Br19      1.0  0.5876976843142145  0.1694090006644586  0.23183501593844377  1.0000
  Br  Br20      1.0  0.5877054386414357  0.41828460811081675  0.18046265181929758  1.0000
  Br  Br21      1.0  0.4123165123546358  0.3306059363541254  0.26815474105459464  1.0000
  Br  Br22      1.0  0.4123126177527041  0.08174086886195656  0.3194619392475887  1.0000
  Br  Br23      1.0  0.253183726111324  0.9957385429855921  0.4018514086059994  1.0000
  Br  Br24      1.0  0.253172023286325  0.2574892842468657  0.3447852797865283  1.0000
  Br  Br25      1.0  0.2531628587474868  0.5979457746798075  0.0043131457080605685  1.0000
  Br  Br26      1.0  0.2531432645576146  0.655168515346432  0.7425201078532098  1.0000
  Br  Br27      1.0  0.4122804384961824  0.7318169843696438  0.66940425823816  1.0000
  Br  Br28      1.0  0.41230501958158056  0.6804541947826406  0.9182919036886263  1.0000
  Br  Br29      1.0  0.5877000101176507  0.7681709347659195  0.8306087042199907  1.0000
  Br  Br30      1.0  0.5876754875193909  0.8194754662122533  0.5817340834037809  1.0000
  Br  Br31      1.0  0.7468067447706943  0.9019005741334497  0.4957251464006804  1.0000
  Br  Br32      1.0  0.7468429826191568  0.8448221041187127  0.7574896189436516  1.0000
  O   O1        1.0  2.1015188170003475e-07  3.0921194707000724e-06  0.4999986505924953  1.0000
  O   O2        1.0  0.15074706631185114  0.026018940436230813  0.4330205609187061  1.0000
  O   O3        1.0  0.039579090539888305  0.1535568687575974  0.3852603245743964  1.0000
  O   O4        1.0  0.9590613039142896  0.933103635039082  0.41619033196479216  1.0000
  O   O5        1.0  0.150748633902424  0.12474005438189555  0.4162794476219177  1.0000
  O   O6        1.0  0.04093825986163336  0.9162136507742392  0.4330875172432869  1.0000
  O   O7        1.0  0.9604137994877746  0.07516505886746232  0.38601451982956564  1.0000
  O   O8        1.0  0.8492512211535654  0.9329750642077741  0.5260282433804377  1.0000
  O   O9        1.0  0.9604691194917477  0.8852990036192382  0.6535620396490104  1.0000
  O   O10       1.0  0.8492598213473459  0.916268023998278  0.6247467397300923  1.0000
  O   O11       1.0  0.039531413482002654  0.8859683155144042  0.5751657640785908  1.0000
  O   O12       1.0  0.04091594099028841  0.12474261186675054  0.525967267008923  1.0000
  O   O13       1.0  0.9591037309577927  0.02596341512607112  0.6247470724122481  1.0000
  O   O14       1.0  0.9999995817564837  0.49999792623578543  3.709798265031342e-07  1.0000
  O   O15       1.0  0.9589947978275078  0.5837133465800977  0.06702428877409251  1.0000
  O   O16       1.0  0.038883788088554555  0.42483810711595993  0.11468938443545085  1.0000
  O   O17       1.0  0.8492880113275731  0.37525092683565475  0.08381478769449313  1.0000
  O   O18       1.0  0.04100546243186916  0.5670070528196051  0.08373866875938049  1.0000
  O   O19       1.0  0.8492954502140719  0.47402994506160223  0.06686120852283751  1.0000
  O   O20       1.0  0.9611353853682234  0.34644267707647475  0.11402929131600809  1.0000
  O   O21       1.0  0.9589872756019417  0.3752549086658308  0.9739962495169584  1.0000
  O   O22       1.0  0.03880902740767313  0.6139788660220944  0.8464376856466062  1.0000
  O   O23       1.0  0.04096910951442096  0.4739756260523508  0.8752730214917221  1.0000
  O   O24       1.0  0.9611813979912328  0.614744733725644  0.9248320913589225  1.0000
  O   O25       1.0  0.15070826686452687  0.5669046821661042  0.9740146767543294  1.0000
  O   O26       1.0  0.1507000601293881  0.583804609084261  0.8752460395409404  1.0000
