data_image0
_chemical_formula_structural       Zn2H10C50N6Cl8O8
_chemical_formula_sum              "Zn2 H10 C50 N6 Cl8 O8"
_cell_length_a       14.390211633374062
_cell_length_b       15.270621822770424
_cell_length_c       16.050691386458453
_cell_angle_alpha    87.95022849435581
_cell_angle_beta     90.26388696391345
_cell_angle_gamma    90.26007984943656

_space_group_name_H-M_alt    "P 1"
_space_group_IT_number       1

loop_
  _space_group_symop_operation_xyz
  'x, y, z'

loop_
  _atom_site_type_symbol
  _atom_site_label
  _atom_site_symmetry_multiplicity
  _atom_site_fract_x
  _atom_site_fract_y
  _atom_site_fract_z
  _atom_site_occupancy
  Zn  Zn1       1.0  0.3976103364476344  0.4997056650163217  0.4986509134568068  1.0000
  Zn  Zn2       1.0  0.6023838037334811  0.5002977577666529  0.501351136340759  1.0000
  H   H1        1.0  0.3787965705413683  0.5977220919928998  0.04962001346979861  1.0000
  H   H2        1.0  0.5360951914722564  0.07250318774108423  0.7102280905386709  1.0000
  H   H3        1.0  0.6212065910473826  0.4022708742945583  0.9503823509025016  1.0000
  H   H4        1.0  0.652379329720354  0.5516646366596447  0.0482721463774496  1.0000
  H   H5        1.0  0.34762522306608906  0.4483276751150314  0.9517308618435367  1.0000
  H   H6        1.0  0.4723138707912469  0.22646039801445284  0.3677329631705392  1.0000
  H   H7        1.0  0.5276934556978149  0.7735411241313342  0.6322647981883736  1.0000
  H   H8        1.0  0.4630940243351277  0.08940351121445642  0.29057136864765454  1.0000
  H   H9        1.0  0.5369084345028982  0.9105953749340402  0.709426462333724  1.0000
  H   H10       1.0  0.4639017143501362  0.9274956707877068  0.28977160282963155  1.0000
  C   C1        1.0  0.502550538941108  0.6701214698563688  0.5004928430069386  1.0000
  C   C2        1.0  0.5002759151847727  0.953425806908207  0.4998137616122665  1.0000
  C   C3        1.0  0.5134003339498747  0.08998705494235543  0.5765703592560814  1.0000
  C   C4        1.0  0.48660212860252733  0.9100131382198884  0.4234280569762704  1.0000
  C   C5        1.0  0.4730386687588251  0.0508274018247477  0.3484727446794552  1.0000
  C   C6        1.0  0.5269624068634186  0.949173438818427  0.6515262739894611  1.0000
  C   C7        1.0  0.4734665997814105  0.961321789588965  0.3479820213094699  1.0000
  C   C8        1.0  0.5265337801234082  0.0386783936553812  0.652017015425152  1.0000
  C   C9        1.0  0.1968085048171915  0.4523763992602596  0.5575172485876937  1.0000
  C   C10       1.0  0.8031897366456207  0.5476094215264594  0.4424716088900454  1.0000
  C   C11       1.0  0.1968363330251961  0.5469594576553405  0.44054528417493105  1.0000
  C   C12       1.0  0.4974748628445483  0.3298807524902402  0.49950679171712425  1.0000
  C   C13       1.0  0.8031577795747112  0.45303350550172894  0.5594527067574335  1.0000
  C   C14       1.0  0.0990490354780746  0.5385204664963582  0.43017103622202785  1.0000
  C   C15       1.0  0.9009492164164074  0.46146336740028476  0.569821616948943  1.0000
  C   C16       1.0  0.5002349791410907  0.5017679018009034  0.6604965976706654  1.0000
  C   C17       1.0  0.49973900475530547  0.4982308687265444  0.33950618236684  1.0000
  C   C18       1.0  0.049689981347803794  0.49993782969185213  0.49947108111396693  1.0000
  C   C19       1.0  0.950306183631568  0.5000460013187364  0.5005209462740228  1.0000
  C   C20       1.0  0.0994321134631448  0.460735033103539  0.5677476951915923  1.0000
  C   C21       1.0  0.9005661330574952  0.5392514359161638  0.43224238962557865  1.0000
  C   C22       1.0  0.04693567991737519  0.5639163801195864  0.356571566170736  1.0000
  C   C23       1.0  0.4981842303831741  0.231307679066056  0.499495120363733  1.0000
  C   C24       1.0  0.9530646411106646  0.4360615768592027  0.643418767582496  1.0000
  C   C25       1.0  0.9503008081725357  0.5658658185864242  0.3576778333930549  1.0000
  C   C26       1.0  0.04970020296194381  0.4341134616038076  0.642310593920776  1.0000
  C   C27       1.0  0.4320493736625792  0.5537494538445245  0.027143657474184103  1.0000
  C   C28       1.0  0.5679544905980407  0.446242845248385  0.9728612192945507  1.0000
  C   C29       1.0  0.5154264967128128  0.5820972993031146  0.9703122482966724  1.0000
  C   C30       1.0  0.484578060341157  0.4178950054397106  0.02969200620955801  1.0000
  C   C31       1.0  0.4988360222224416  0.5027672559460967  0.7502094554575935  1.0000
  C   C32       1.0  0.5011449129994361  0.4972190577619315  0.24979867849276635  1.0000
  C   C33       1.0  0.41501074991523984  0.4717951840436285  0.9734988575157646  1.0000
  C   C34       1.0  0.5018237915861548  0.7686925311681135  0.5005033029095787  1.0000
  C   C35       1.0  0.5849931137922226  0.5281984290948785  0.02650535821869941  1.0000
  C   C36       1.0  0.49823539289638313  0.49950061075882957  0.9140032342586581  1.0000
  C   C37       1.0  0.5017684700207781  0.500492347114843  0.08600100042163214  1.0000
  C   C38       1.0  0.4979772581050597  0.5009835771067301  0.8260649086383582  1.0000
  C   C39       1.0  0.5020237918325918  0.49900483108417143  0.17393135428807946  1.0000
  C   C40       1.0  0.5136267712022544  0.18298931042402702  0.5747793162646107  1.0000
  C   C41       1.0  0.4863812515573755  0.8170115550749841  0.4252190880628676  1.0000
  C   C42       1.0  0.9035955884115195  0.5851034153396525  0.2806233483499484  1.0000
  C   C43       1.0  0.09640746672508269  0.4148562414348477  0.7193606648379359  1.0000
  C   C44       1.0  0.5299605782246601  0.22820545981231535  0.6496286636637765  1.0000
  C   C45       1.0  0.48410314309076347  0.18827684679703083  0.4255743993070525  1.0000
  C   C46       1.0  0.4700467480272508  0.7717940930230324  0.35036977767523336  1.0000
  C   C47       1.0  0.5159041810273806  0.8117227095542391  0.5744234188893318  1.0000
  C   C48       1.0  0.4855841195572097  0.09633659081228531  0.4241240414178976  1.0000
  C   C49       1.0  0.514419037922309  0.9036636044839527  0.5758743756945748  1.0000
  C   C50       1.0  0.499725155379636  0.046574385501983805  0.5001840297172252  1.0000
  N   N1        1.0  0.243705554716712  0.4996282605167438  0.49912492457953306  1.0000
  N   N2        1.0  0.7562920224031161  0.5003634168443157  0.5008706160745647  1.0000
  N   N3        1.0  0.870317918230093  0.5983409734777964  0.2148431529771743  1.0000
  N   N4        1.0  0.1296906396592732  0.4015912179206681  0.7851348084073779  1.0000
  N   N5        1.0  0.5443778646428328  0.26506553989331383  0.7110718714434088  1.0000
  N   N6        1.0  0.45562668403437806  0.7349340008901423  0.2889271895177501  1.0000
  Cl  Cl1       1.0  0.5348969415529794  0.6882529615103222  0.9313908891245719  1.0000
  Cl  Cl2       1.0  0.4651048288380792  0.3117406592899244  0.06861083139902752  1.0000
  Cl  Cl3       1.0  0.1004962933831877  0.5820312873177685  0.26267462368403477  1.0000
  Cl  Cl4       1.0  0.8995116545352959  0.41792702464201176  0.737318157553105  1.0000
  Cl  Cl5       1.0  0.2574503089423316  0.3796519847502111  0.6180422910875552  1.0000
  Cl  Cl6       1.0  0.7425485809785286  0.620320126831892  0.3819382411358348  1.0000
  Cl  Cl7       1.0  0.2593156309572322  0.6216453487861174  0.3836736073401427  1.0000
  Cl  Cl8       1.0  0.7406667422479812  0.3783684657015698  0.6163380946442347  1.0000
  O   O1        1.0  0.4235611487720449  0.6331714230694346  0.4986168802651748  1.0000
  O   O2        1.0  0.576446216203607  0.36682478312317823  0.5013941186554833  1.0000
  O   O3        1.0  0.5819411942497369  0.6345663338735505  0.5020883139263648  1.0000
  O   O4        1.0  0.41806749664668535  0.36544245670826575  0.49789927050670024  1.0000
  O   O5        1.0  0.4214858046176603  0.5003027864637913  0.6237932339391109  1.0000
  O   O6        1.0  0.5784735973472764  0.49969132426856794  0.3762146453776723  1.0000
  O   O7        1.0  0.5800438596665387  0.5024401448042327  0.6264067009521669  1.0000
  O   O8        1.0  0.4199127561103637  0.4975769479163077  0.3735905414582775  1.0000
