data_image0
_chemical_formula_structural       Zn2H24C52N6O8F8
_chemical_formula_sum              "Zn2 H24 C52 N6 O8 F8"
_cell_length_a       18.30216156533691
_cell_length_b       19.22620715981108
_cell_length_c       19.7207091509464
_cell_angle_alpha    90.31696556046674
_cell_angle_beta     90.0061962597981
_cell_angle_gamma    89.90996879932189

_space_group_name_H-M_alt    "P 1"
_space_group_IT_number       1

loop_
  _space_group_symop_operation_xyz
  'x, y, z'

loop_
  _atom_site_type_symbol
  _atom_site_label
  _atom_site_symmetry_multiplicity
  _atom_site_fract_x
  _atom_site_fract_y
  _atom_site_fract_z
  _atom_site_occupancy
  Zn  Zn1       1.0  0.577370964719833  0.49982615425494015  0.4993980965980924  1.0000
  Zn  Zn2       1.0  0.4226349818859915  0.49996226571694546  0.49935389165513305  1.0000
  H   H1        1.0  0.6170967538980249  0.2793858804004117  0.5139998965187758  1.0000
  H   H2        1.0  0.6179390564248166  0.5000481268084371  0.2822241152495479  1.0000
  H   H3        1.0  0.3820973729545471  0.49946535143842413  0.2821735496821987  1.0000
  H   H4        1.0  0.6178903729504128  0.5005398754016  0.7169388009977311  1.0000
  H   H5        1.0  0.6933670034957372  0.5751489873701132  0.5750750249172754  1.0000
  H   H6        1.0  0.3062138935404945  0.42461633275654975  0.4244431005776121  1.0000
  H   H7        1.0  0.6939654469655707  0.42466020237690594  0.42447466176356125  1.0000
  H   H8        1.0  0.306477646439795  0.575101908014183  0.5750526529738735  1.0000
  H   H9        1.0  0.8300329253966438  0.5791584282765003  0.5783589039374418  1.0000
  H   H10       1.0  0.16956646425955307  0.4207250961971881  0.4217090850290148  1.0000
  H   H11       1.0  0.8306164779680358  0.42070065709341964  0.421689153459738  1.0000
  H   H12       1.0  0.38291130928429595  0.7206712159764168  0.5145716456525237  1.0000
  H   H13       1.0  0.169799753745977  0.5791848620523299  0.5783804229697793  1.0000
  H   H14       1.0  0.9326795149995348  0.4859727555574835  0.3914813315776584  1.0000
  H   H15       1.0  0.06732726427536309  0.514170161487968  0.6086251191470282  1.0000
  H   H16       1.0  0.9326056780855011  0.5141461331130587  0.6086260455338035  1.0000
  H   H17       1.0  0.0673978246995617  0.48599472644800584  0.3914854726249217  1.0000
  H   H18       1.0  0.6171275947358978  0.7204741484336098  0.5145346818973522  1.0000
  H   H19       1.0  0.3828717205529841  0.27958785956543153  0.5139638468930983  1.0000
  H   H20       1.0  0.6175820287176562  0.1503966837502873  0.5329486066658617  1.0000
  H   H21       1.0  0.38240703606235377  0.8499191459893398  0.5333732838081743  1.0000
  H   H22       1.0  0.6175133949693715  0.8497047920372084  0.5333424472931227  1.0000
  H   H23       1.0  0.3824827714689647  0.15061076291367212  0.5329130151563319  1.0000
  H   H24       1.0  0.38206344466286174  0.4999546240988624  0.7169217003815902  1.0000
  C   C1        1.0  0.4999999000415584  0.4991780186566431  0.36635175961015426  1.0000
  C   C2        1.0  0.4724539686132943  0.44383181765455504  0.9638207280259437  1.0000
  C   C3        1.0  0.5000596578280393  0.4998438575432615  0.07186056814921218  1.0000
  C   C4        1.0  0.49995703921439355  0.5001702021094233  0.9272548408620765  1.0000
  C   C5        1.0  0.7264875065242505  0.5419172198055549  0.5422190893550577  1.0000
  C   C6        1.0  0.2732927725030052  0.4579097969959919  0.45741526891930556  1.0000
  C   C7        1.0  0.7268213029721337  0.4579215091847928  0.45744476590039074  1.0000
  C   C8        1.0  0.27342668477506743  0.5419004985989135  0.5421951987606591  1.0000
  C   C9        1.0  0.8023178643334106  0.5433579753842113  0.5439274228505582  1.0000
  C   C10       1.0  0.19745855277107438  0.4565227908118958  0.4560061980009138  1.0000
  C   C11       1.0  0.8026550371732524  0.4564986944637753  0.456005782586125  1.0000
  C   C12       1.0  0.49998628467596984  0.5007355869943311  0.6328689662737547  1.0000
  C   C13       1.0  0.19759400928820978  0.5433734551608965  0.5439425670170265  1.0000
  C   C14       1.0  0.8423855447572917  0.4999669909778817  0.5000090453843598  1.0000
  C   C15       1.0  0.15762574111493421  0.5000091815881262  0.5000231148478207  1.0000
  C   C16       1.0  0.9620642661605386  0.49103255302025434  0.4393602192295347  1.0000
  C   C17       1.0  0.0379392503359171  0.5090916645094837  0.5607517804239137  1.0000
  C   C18       1.0  0.9620183852021497  0.509070370383917  0.5607542136903021  1.0000
  C   C19       1.0  0.03798459398316109  0.4910429413282531  0.43936182583205863  1.0000
  C   C20       1.0  0.07714446165816471  0.5000712433620224  0.5000636410628516  1.0000
  C   C21       1.0  0.9228612579597665  0.5000316534627132  0.5000498472301232  1.0000
  C   C22       1.0  0.49997385559293417  0.3641351583256381  0.5031838482291205  1.0000
  C   C23       1.0  0.4999518843274871  0.5003189948406261  0.8523824297642905  1.0000
  C   C24       1.0  0.5000252113244841  0.635652865049295  0.5050856195357696  1.0000
  C   C25       1.0  0.5661983015836112  0.250383113322549  0.5177697138241655  1.0000
  C   C26       1.0  0.4338072134930258  0.7496777407125138  0.5187798041517198  1.0000
  C   C27       1.0  0.5661862580030713  0.7495508198018329  0.5187528244163317  1.0000
  C   C28       1.0  0.4338055907854539  0.25051657986152526  0.5177409232053664  1.0000
  C   C29       1.0  0.5664414550104339  0.1789853948438491  0.5282620757623988  1.0000
  C   C30       1.0  0.4335513072994103  0.821227718169361  0.5290228930859868  1.0000
  C   C31       1.0  0.5664007893201272  0.8210994003469951  0.5289949333961842  1.0000
  C   C32       1.0  0.4335897766380085  0.17912548182838617  0.5282418802940043  1.0000
  C   C33       1.0  0.5000284590792817  0.14270693383836894  0.5338602245409518  1.0000
  C   C34       1.0  0.500055489728865  0.4997372473751654  0.1467441992656973  1.0000
  C   C35       1.0  0.4999645003100782  0.8575847972598041  0.5345995000502128  1.0000
  C   C36       1.0  0.4999913199754857  0.2867713499635514  0.512543317674904  1.0000
  C   C37       1.0  0.5000107830474079  0.7131666575752365  0.5139804311832635  1.0000
  C   C38       1.0  0.4999785770730227  0.9330571925167279  0.545701558767604  1.0000
  C   C39       1.0  0.5000103780376365  0.0674317461667613  0.5453440401023855  1.0000
  C   C40       1.0  0.43361528641165137  0.5000830315899876  0.7443845420544477  1.0000
  C   C41       1.0  0.5663718916390083  0.49995000926966804  0.2547887015675201  1.0000
  C   C42       1.0  0.4336810937460313  0.49913033850966576  0.2547665355722799  1.0000
  C   C43       1.0  0.5663339602697307  0.5008896124500026  0.744390463351415  1.0000
  C   C44       1.0  0.4350919295887151  0.49970767178736264  0.814579365325045  1.0000
  C   C45       1.0  0.49997613725003726  0.5006315810553732  0.7091628046567989  1.0000
  C   C46       1.0  0.5648990730488207  0.5003247391148093  0.1845675091974925  1.0000
  C   C47       1.0  0.43521648440877675  0.4990597086413829  0.1845555396622132  1.0000
  C   C48       1.0  0.564810034059093  0.5009716374475844  0.8145918430533285  1.0000
  C   C49       1.0  0.500018146372227  0.4993989422931622  0.2900322403033329  1.0000
  C   C50       1.0  0.5274609035012148  0.556322968850786  0.9646886143360404  1.0000
  C   C51       1.0  0.47252410320468385  0.44369110220844016  0.03442374973244709  1.0000
  C   C52       1.0  0.527533216350065  0.5561910939387574  0.0352916498055365  1.0000
  N   N1        1.0  0.4351468567897713  0.03463337395545101  0.553649409724855  1.0000
  N   N2        1.0  0.5648363630208735  0.9659893348449486  0.553831530294751  1.0000
  N   N3        1.0  0.4351432556786463  0.9662192325654787  0.5538401138522105  1.0000
  N   N4        1.0  0.5648432450050082  0.034400959532995004  0.5536621201260415  1.0000
  N   N5        1.0  0.6893325629617523  0.49992774192133294  0.4997436117586105  1.0000
  N   N6        1.0  0.3106782606696968  0.49992894009008665  0.49968138379905014  1.0000
  O   O1        1.0  0.5620878913494068  0.4990675130242295  0.39533376825666267  1.0000
  O   O2        1.0  0.4379054650608083  0.5007622994236982  0.6038751663699315  1.0000
  O   O3        1.0  0.5620766396279108  0.5007504129740071  0.6038913383974815  1.0000
  O   O4        1.0  0.4379052445213959  0.49907734607438675  0.3953221559507867  1.0000
  O   O5        1.0  0.5619960169772966  0.3939611203340618  0.5000195879373024  1.0000
  O   O6        1.0  0.4380100390762819  0.6057869220751544  0.5019852892904808  1.0000
  O   O7        1.0  0.5620660134122772  0.6056689069373178  0.501974413701312  1.0000
  O   O8        1.0  0.4379291117493905  0.39408213483717  0.4999985209311646  1.0000
  F   F1        1.0  0.370630236746301  0.49988852165179753  0.8490437718230909  1.0000
  F   F2        1.0  0.6293717313930216  0.5000987451376349  0.1501314308930617  1.0000
  F   F3        1.0  0.37076342255947037  0.4994045285963154  0.1500713278615109  1.0000
  F   F4        1.0  0.6292669728024407  0.5005627463474127  0.8490531377971492  1.0000
  F   F5        1.0  0.5532094479738988  0.6128786532388376  0.9320021268885056  1.0000
  F   F6        1.0  0.44674822481839266  0.3871536983035639  0.06712395447641481  1.0000
  F   F7        1.0  0.5532921759999638  0.6125981262766302  0.06879424845097051  1.0000
  F   F8        1.0  0.4466370766759766  0.38744412692796004  0.9303313388583945  1.0000
