data_image0
_chemical_formula_structural       Cd4P8H48C40N8O32
_chemical_formula_sum              "Cd4 P8 H48 C40 N8 O32"
_cell_length_a       10.858334995825556
_cell_length_b       10.858306951992319
_cell_length_c       13.730609351674651
_cell_angle_alpha    98.8314750678642
_cell_angle_beta     98.83159283842433
_cell_angle_gamma    111.513207297394

_space_group_name_H-M_alt    "P 1"
_space_group_IT_number       1

loop_
  _space_group_symop_operation_xyz
  'x, y, z'

loop_
  _atom_site_type_symbol
  _atom_site_label
  _atom_site_symmetry_multiplicity
  _atom_site_fract_x
  _atom_site_fract_y
  _atom_site_fract_z
  _atom_site_occupancy
  Cd  Cd1       1.0  0.4368203158991335  0.36059422650398426  0.6209166519344509  1.0000
  Cd  Cd2       1.0  0.36059455098006044  0.43681936963523765  0.12091642087035837  1.0000
  Cd  Cd3       1.0  0.5631792560244335  0.6394055247053599  0.37908368018230487  1.0000
  Cd  Cd4       1.0  0.6394059551241966  0.563180387061841  0.8790840244712046  1.0000
  P   P1        1.0  0.3505732972789133  0.3172039541956977  0.3547349228332239  1.0000
  P   P2        1.0  0.3172036259703646  0.350573191723548  0.8547349220022514  1.0000
  P   P3        1.0  0.6494272088253438  0.6827958025013741  0.6452655225083462  1.0000
  P   P4        1.0  0.6827954131399352  0.6494275707398957  0.14526546776299656  1.0000
  P   P5        1.0  0.1954751670509935  0.5087144672999457  0.5691942352498885  1.0000
  P   P6        1.0  0.5087138438758531  0.19547540003098623  0.06919513245151171  1.0000
  P   P7        1.0  0.8045257404206938  0.49128630613896007  0.43080638096499524  1.0000
  P   P8        1.0  0.4912866604019683  0.8045243548404741  0.9308045841485326  1.0000
  H   H1        1.0  0.4045932537417798  0.6478959324174767  0.5646922573741551  1.0000
  H   H2        1.0  0.6478950070556878  0.40459254628268576  0.06469220975925082  1.0000
  H   H3        1.0  0.5954076537299003  0.3521048410214291  0.4353083588407217  1.0000
  H   H4        1.0  0.3521045648678722  0.5954072049266586  0.9353081223575048  1.0000
  H   H5        1.0  0.009951695495239183  0.5442000482034431  0.5925441710262618  1.0000
  H   H6        1.0  0.5441986785836975  0.0099519290852896  0.09254373293494213  1.0000
  H   H7        1.0  0.9900486791631807  0.4558017364895621  0.40745650283710705  1.0000
  H   H8        1.0  0.4558008915134337  0.9900478202984287  0.9074558704402876  1.0000
  H   H9        1.0  0.17371412834824446  0.3412112946519699  0.4071954041595732  1.0000
  H   H10       1.0  0.34121120228634544  0.1737134554577011  0.9071948269917487  1.0000
  H   H11       1.0  0.8262867791234356  0.658789478786936  0.5928052120553035  1.0000
  H   H12       1.0  0.6587887691782085  0.8262873106678583  0.09280494725678781  1.0000
  H   H13       1.0  0.3781322504267451  0.21114489221941568  0.21512435421806947  1.0000
  H   H14       1.0  0.21114605552767782  0.37813307065810875  0.7151237887016323  1.0000
  H   H15       1.0  0.621867319670379  0.7888548571643099  0.7848752491571604  1.0000
  H   H16       1.0  0.7888539159368763  0.6218676954674435  0.2848759855469041  1.0000
  H   H17       1.0  0.11813527904836012  0.16534938619489029  0.5867845872561477  1.0000
  H   H18       1.0  0.1653485311917038  0.1181339782079078  0.08678428928022441  1.0000
  H   H19       1.0  0.8818637673676692  0.8346513835710211  0.41321871747520333  1.0000
  H   H20       1.0  0.8346525058993844  0.8818647654094529  0.9132153696713277  1.0000
  H   H21       1.0  0.97575384115968  0.9329573483580518  0.6107041467050254  1.0000
  H   H22       1.0  0.9329567425229968  0.975756092496006  0.11070494907324499  1.0000
  H   H23       1.0  0.024247471332302005  0.0670444454739183  0.3892980978662096  1.0000
  H   H24       1.0  0.0670437617548245  0.024243662375454295  0.8892947675267993  1.0000
  H   H25       1.0  0.0931379942791181  0.7802847424029123  0.6486224693407864  1.0000
  H   H26       1.0  0.7802856829674668  0.09314000324647508  0.14862485451661914  1.0000
  H   H27       1.0  0.9068611707977186  0.21971398658774893  0.3513755056780853  1.0000
  H   H28       1.0  0.2197148194839187  0.9068597497993666  0.8513741333418993  1.0000
  H   H29       1.0  0.340746450912647  0.8599416756731272  0.6630097649889354  1.0000
  H   H30       1.0  0.859944374704888  0.3407499173167565  0.16301456210782567  1.0000
  H   H31       1.0  0.6592517745041918  0.1400570423529501  0.33698591058054467  1.0000
  H   H32       1.0  0.1400570637536233  0.6592498430424312  0.8369852677170331  1.0000
  H   H33       1.0  0.5254384820618583  0.9112464078571706  0.6233279765606669  1.0000
  H   H34       1.0  0.9112458461445245  0.525438559067716  0.12332820343387141  1.0000
  H   H35       1.0  0.4745605588748702  0.08875435643188469  0.37667314194610674  1.0000
  H   H36       1.0  0.0887542531130023  0.4745601754106801  0.8766698848098147  1.0000
  H   H37       1.0  0.768501652063627  0.0042202601301113  0.6206487643734849  1.0000
  H   H38       1.0  0.0042222230519114645  0.7685025296967892  0.12064756484091531  1.0000
  H   H39       1.0  0.23149658796467779  0.9957784725009091  0.37935274112819434  1.0000
  H   H40       1.0  0.9957778816849158  0.231496210258463  0.8793527096273481  1.0000
  H   H41       1.0  0.8878424838167619  0.25490806351447765  0.6249023101959639  1.0000
  H   H42       1.0  0.25490870865086634  0.8878414288849188  0.1249008445031237  1.0000
  H   H43       1.0  0.1121566867393681  0.7450906709530328  0.37509785104748533  1.0000
  H   H44       1.0  0.7450931348279397  0.1121593518673407  0.8751006136780932  1.0000
  H   H45       1.0  0.7526016529604506  0.3976924129976637  0.6338901740868581  1.0000
  H   H46       1.0  0.3976939793425345  0.7526014436929955  0.13388918691290294  1.0000
  H   H47       1.0  0.24739832215697535  0.6023083567791261  0.3661110576447301  1.0000
  H   H48       1.0  0.6023078641362786  0.2473993370592638  0.866112271268314  1.0000
  C   C1        1.0  0.1624943317791505  0.09337821476680831  0.6027924968293166  1.0000
  C   C2        1.0  0.0933792821937942  0.16249778078831406  0.10279361998268403  1.0000
  C   C3        1.0  0.8375049790791637  0.9066255942599992  0.3972090210725697  1.0000
  C   C4        1.0  0.9066212220840271  0.8375019740831462  0.8972060966173602  1.0000
  C   C5        1.0  0.08449568571241874  0.96559361695585  0.6158631068552439  1.0000
  C   C6        1.0  0.9655932578216949  0.08449375884968902  0.11586504648094835  1.0000
  C   C7        1.0  0.9155034830172825  0.0344051156860488  0.3841363256466793  1.0000
  C   C8        1.0  0.0344077774429579  0.9155049829420535  0.8841338837290781  1.0000
  C   C9        1.0  0.15002079584148476  0.8808248420245874  0.6374764197203648  1.0000
  C   C10       1.0  0.880825584875261  0.1500248922328851  0.13747980260480835  1.0000
  C   C11       1.0  0.8499782359630785  0.119175913136381  0.36252105507878  1.0000
  C   C12       1.0  0.11917491940256032  0.8499748626385679  0.862519913995236  1.0000
  C   C13       1.0  0.2895378063889212  0.9255361919316344  0.6451773007359665  1.0000
  C   C14       1.0  0.9255385297185728  0.2895375188447673  0.14518244189412852  1.0000
  C   C15       1.0  0.7104596199459294  0.07446049626202009  0.35481949056995193  1.0000
  C   C16       1.0  0.07446384474707204  0.7104622488277742  0.8548182298970703  1.0000
  C   C17       1.0  0.3610140505168927  0.05427809275363418  0.6291973275895162  1.0000
  C   C18       1.0  0.054279885325392664  0.36101502322605217  0.1291994693250942  1.0000
  C   C19       1.0  0.6389849831140992  0.9457226642329531  0.3708008759511615  1.0000
  C   C20       1.0  0.9457202157585698  0.6389837130779552  0.8707993476601177  1.0000
  C   C21       1.0  0.508616385716401  0.10522351744183571  0.6304222077372189  1.0000
  C   C22       1.0  0.10522297843463242  0.5086162734188591  0.13042384544961294  1.0000
  C   C23       1.0  0.4913827811868643  0.8947752133744444  0.36957649602317844  1.0000
  C   C24       1.0  0.8947780586564562  0.4913824701985092  0.869575813501939  1.0000
  C   C25       1.0  0.5773716775277649  0.0186175112400875  0.6257907838439822  1.0000
  C   C26       1.0  0.018621392974701213  0.5773756709074861  0.1257911156041231  1.0000
  C   C27       1.0  0.42262736158252795  0.9813832512233491  0.3742096059212658  1.0000
  C   C28       1.0  0.9813795144969859  0.4226251025314199  0.8742095006107535  1.0000
  C   C29       1.0  0.7146088977231174  0.07133738480455781  0.6236652644139442  1.0000
  C   C30       1.0  0.07133469591247624  0.7146054178842929  0.12366455153076569  1.0000
  C   C31       1.0  0.28538934047875125  0.9286613460008368  0.37633551234621626  1.0000
  C   C32       1.0  0.9286663430050481  0.28539332755868674  0.8763358361623121  1.0000
  C   C33       1.0  0.7805979662746197  0.20894628463777554  0.625990915600042  1.0000
  C   C34       1.0  0.20894974133388186  0.7806006146022495  0.12598883684886888  1.0000
  C   C35       1.0  0.2194020070163702  0.7910544833133956  0.3740095873900204  1.0000
  C   C36       1.0  0.7910507647703753  0.2193991420948294  0.8740116084927013  1.0000
  C   C37       1.0  0.7059641362228178  0.28928943347054314  0.6311920642439051  1.0000
  C   C38       1.0  0.2892873533684649  0.7059595345351253  0.1311915060284505  1.0000
  C   C39       1.0  0.29403596851400954  0.7107093064847021  0.36880821022435845  1.0000
  C   C40       1.0  0.7107131545622282  0.29404022398757235  0.8688096680546454  1.0000
  N   N1        1.0  0.2965505584332391  0.1360864759071561  0.6091621418369615  1.0000
  N   N2        1.0  0.1360867331303837  0.2965492898058741  0.1091632399497442  1.0000
  N   N3        1.0  0.7034490153167567  0.8639132771277998  0.39083891902132006  1.0000
  N   N4        1.0  0.8639143039607049  0.7034494538114869  0.8908364190018079  1.0000
  N   N5        1.0  0.574028160296784  0.238495105939215  0.6331876836490765  1.0000
  N   N6        1.0  0.2384986578014505  0.5740316557199135  0.1331881289232015  1.0000
  N   N7        1.0  0.4259704774460856  0.7615046397823945  0.3668125352428647  1.0000
  N   N8        1.0  0.7615027806570681  0.42596810463927426  0.866811700901657  1.0000
  O   O1        1.0  0.2504685309025945  0.41627702364321784  0.6187632745092488  1.0000
  O   O2        1.0  0.41627776832250873  0.250469776838564  0.11876504606248522  1.0000
  O   O3        1.0  0.7495310410209655  0.5837227275661261  0.38123705760749976  1.0000
  O   O4        1.0  0.5837231391491713  0.7495309966003417  0.8812355701523916  1.0000
  O   O5        1.0  0.4557240865495019  0.34488861085033307  0.4530286993376721  1.0000
  O   O6        1.0  0.3448881542532831  0.4557237049736427  0.9530278474684267  1.0000
  O   O7        1.0  0.5442760200137613  0.6551101309305308  0.5469723038721173  1.0000
  O   O8        1.0  0.6551099488498836  0.5442770501764399  0.04697170033048077  1.0000
  O   O9        1.0  0.38324510097803716  0.4405187427862032  0.306352522158278  1.0000
  O   O10       1.0  0.4405194653049591  0.38324559125071994  0.8063528063285477  1.0000
  O   O11       1.0  0.616755806493643  0.5594820306527029  0.6936480940565988  1.0000
  O   O12       1.0  0.5594814421667279  0.6167551821881856  0.193647809886329  1.0000
  O   O13       1.0  0.315589595061482  0.6503394962827967  0.580046302116273  1.0000
  O   O14       1.0  0.6503393153722287  0.31558998141542105  0.08004729166979985  1.0000
  O   O15       1.0  0.6844113124101981  0.34966127715610906  0.4199543140986038  1.0000
  O   O16       1.0  0.3496602565513315  0.6844097697939162  0.9199530404469558  1.0000
  O   O17       1.0  0.0971687312548397  0.5415053972860521  0.631825023150313  1.0000
  O   O18       1.0  0.5415054853704434  0.09716855127396681  0.13182535327275965  1.0000
  O   O19       1.0  0.9028308388422845  0.4584943520976737  0.36817458022491684  1.0000
  O   O20       1.0  0.4584931505459905  0.9028311926220238  0.8681741368776559  1.0000
  O   O21       1.0  0.20277432766296496  0.2678195601261563  0.3744485146211219  1.0000
  O   O22       1.0  0.26781934005545344  0.20277521107825439  0.8744480117091203  1.0000
  O   O23       1.0  0.7972256438015963  0.732181205999396  0.6255512596274145  1.0000
  O   O24       1.0  0.7321806314091007  0.797225555047298  0.12555176253941622  1.0000
  O   O25       1.0  0.3441889464386563  0.18956819315040008  0.2787869891051501  1.0000
  O   O26       1.0  0.1895691320632409  0.3441906392694563  0.7787865135077328  1.0000
  O   O27       1.0  0.6558087534706516  0.8104315434322373  0.7212116590789251  1.0000
  O   O28       1.0  0.8104313722145806  0.6558091156020041  0.22121320309231152  1.0000
  O   O29       1.0  0.12151820432121943  0.44406339821873775  0.457638087615429  1.0000
  O   O30       1.0  0.4440627234272583  0.12151888115511159  0.9576392076351683  1.0000
  O   O31       1.0  0.8784831026914549  0.5559383901363831  0.5423619707312286  1.0000
  O   O32       1.0  0.5559376494047257  0.8784829017122747  0.04236073748667478  1.0000
