data_image0
_chemical_formula_structural       NiH50C28N4O4
_chemical_formula_sum              "Ni1 H50 C28 N4 O4"
_cell_length_a       8.806282014091531
_cell_length_b       10.056297222212566
_cell_length_c       10.280613714356944
_cell_angle_alpha    63.43826386660653
_cell_angle_beta     88.14421480516154
_cell_angle_gamma    66.32501905044798

_space_group_name_H-M_alt    "P 1"
_space_group_IT_number       1

loop_
  _space_group_symop_operation_xyz
  'x, y, z'

loop_
  _atom_site_type_symbol
  _atom_site_label
  _atom_site_symmetry_multiplicity
  _atom_site_fract_x
  _atom_site_fract_y
  _atom_site_fract_z
  _atom_site_occupancy
  Ni  Ni1       1.0  0.500003225888676  0.9999996585233009  0.4999993927350132  1.0000
  H   H1        1.0  0.4746261616023517  0.0900270183981817  0.69235064318827  1.0000
  H   H2        1.0  0.5253783751154443  0.9099712960950441  0.3076373435417992  1.0000
  H   H3        1.0  0.23464826657590274  0.9896444568266957  0.4804752356544314  1.0000
  H   H4        1.0  0.7653592665017968  0.010357678552224999  0.5195265107550995  1.0000
  H   H5        1.0  0.33867768894497635  0.39467494711877993  0.5627811919628272  1.0000
  H   H6        1.0  0.6613229598349263  0.6053247241681349  0.4372199414816221  1.0000
  H   H7        1.0  0.30957700036278607  0.38298849083531655  0.3990147000486104  1.0000
  H   H8        1.0  0.6904260102164841  0.6170160781111989  0.6009812527147744  1.0000
  H   H9        1.0  0.14179547975968632  0.2369988285339488  0.5060874056890016  1.0000
  H   H10       1.0  0.8581990043848791  0.7630045782530175  0.4939151921450388  1.0000
  H   H11       1.0  0.23198459732986276  0.1663898321716815  0.8239456419799039  1.0000
  H   H12       1.0  0.7680193110237281  0.833602439264105  0.17605867685723092  1.0000
  H   H13       1.0  0.13093278290033789  0.3644399760018402  0.6680806823004204  1.0000
  H   H14       1.0  0.8690763024071871  0.6355535728399958  0.3319297001601811  1.0000
  H   H15       1.0  0.9222411181614589  0.2860415547417007  0.8172982810527856  1.0000
  H   H16       1.0  0.07776291099570186  0.7139556774535833  0.18270771470096747  1.0000
  H   H17       1.0  0.883674886170702  0.3139691120529733  0.6374540062787233  1.0000
  H   H18       1.0  0.11632701111842189  0.6860355008014806  0.3625468286620618  1.0000
  H   H19       1.0  0.8670797292547193  0.0550033890615822  0.8237550326442927  1.0000
  H   H20       1.0  0.13292432186284484  0.9449962576041314  0.17624405021546613  1.0000
  H   H21       1.0  0.07229161545264864  0.9817824201756196  0.9152816502110356  1.0000
  H   H22       1.0  0.9277101150466436  0.018214776255590006  0.0847195761119366  1.0000
  H   H23       1.0  0.9821022192927557  0.055989109812458096  0.5969843750173709  1.0000
  H   H24       1.0  0.017901344159135038  0.9440142423028635  0.4030140464828733  1.0000
  H   H25       1.0  0.07899100703347982  0.8578318909273148  0.752776104514716  1.0000
  H   H26       1.0  0.9210096733171794  0.14217021130735927  0.2472200538738107  1.0000
  H   H27       1.0  0.32617385245848135  0.9103001932982056  0.786395481027796  1.0000
  H   H28       1.0  0.6738268326973439  0.0897019171751339  0.21360164627976266  1.0000
  H   H29       1.0  0.2304477687118761  0.7331979903197734  0.6325243177411153  1.0000
  H   H30       1.0  0.769550144535927  0.2668078145550936  0.36747028553326533  1.0000
  H   H31       1.0  0.43144824326260084  0.5752669493807827  0.5423168992752353  1.0000
  H   H32       1.0  0.5685496795955416  0.42473887197141375  0.4576796418372241  1.0000
  H   H33       1.0  0.34534324973227365  0.7826431324337193  0.4033913389301844  1.0000
  H   H34       1.0  0.6546580946842228  0.2173626972519358  0.5966070272737412  1.0000
  H   H35       1.0  0.3922177341133731  0.6488527884367556  0.8679581622548297  1.0000
  H   H36       1.0  0.6077743909715424  0.35114810220638765  0.13203882769010988  1.0000
  H   H37       1.0  0.5759436402871573  0.6398652448405998  0.7879696191902426  1.0000
  H   H38       1.0  0.42405070589860133  0.3601307949550971  0.21203918354021306  1.0000
  H   H39       1.0  0.4901875519769803  0.49874981983139577  0.8090506140703085  1.0000
  H   H40       1.0  0.5098017044222091  0.501249845647095  0.19094701952003126  1.0000
  H   H41       1.0  0.9610873614217187  0.7278831295751471  0.9515663330415977  1.0000
  H   H42       1.0  0.0388993042747998  0.2721276714441032  0.04843129189049479  1.0000
  H   H43       1.0  0.04332793639669311  0.6577282072343709  0.7451778085831079  1.0000
  H   H44       1.0  0.9566652848231313  0.34227023326905476  0.25482218099747916  1.0000
  H   H45       1.0  0.9326161844922751  0.5355963518661752  0.7987193742018022  1.0000
  H   H46       1.0  0.0673821265141186  0.4643984629544633  0.20129178451889368  1.0000
  H   H47       1.0  0.7593369486253959  0.6416467975737844  0.09750719000713565  1.0000
  H   H48       1.0  0.2406598389821966  0.3583566532159139  0.9025011461767248  1.0000
  H   H49       1.0  0.761648786536469  0.5247975452037038  0.00948114691976796  1.0000
  H   H50       1.0  0.23834561524590472  0.4752009667330769  0.9905275253499611  1.0000
  C   C1        1.0  0.392147552829357  0.31854529096540324  0.5069346905134964  1.0000
  C   C2        1.0  0.6078554577499133  0.6814592779811122  0.49306126224988833  1.0000
  C   C3        1.0  0.22366561418797193  0.16195988935573521  0.6161786647104606  1.0000
  C   C4        1.0  0.776335674631916  0.8380434681888288  0.3838198319541917  1.0000
  C   C5        1.0  0.1450755063339884  0.23698211218255952  0.7170198361159521  1.0000
  C   C6        1.0  0.8549296505288239  0.7630151008207733  0.2829841842175185  1.0000
  C   C7        1.0  0.9741058317063533  0.2339260861489549  0.7429261945601483  1.0000
  C   C8        1.0  0.025898284618165214  0.7660760491351724  0.2570746956769554  1.0000
  C   C9        1.0  0.9894521725229171  0.05883035434044359  0.806161409576042  1.0000
  C   C10       1.0  0.010551349747878216  0.9411705503497885  0.19384004914204667  1.0000
  C   C11       1.0  0.06647166951629666  0.9844328383283167  0.7055582572710223  1.0000
  C   C12       1.0  0.933530162565873  0.0155692859077305  0.2944407702924181  1.0000
  C   C13       1.0  0.23800139106766954  0.985948024458473  0.680027071600307  1.0000
  C   C14       1.0  0.761999303698495  0.0140541024921959  0.31997199354533734  1.0000
  C   C15       1.0  0.3511694104769347  0.7437748957709686  0.6286266850678147  1.0000
  C   C16       1.0  0.6488301373628927  0.2562272174169991  0.3713704798219553  1.0000
  C   C17       1.0  0.42958983356894725  0.6956395743009197  0.5116364153519584  1.0000
  C   C18       1.0  0.5704119840977098  0.3043625252191334  0.4883597054543571  1.0000
  C   C19       1.0  0.45910615741567523  0.6264345010311488  0.7825645988429598  1.0000
  C   C20       1.0  0.5408899324898753  0.3735651646369291  0.21743474709222713  1.0000
  C   C21       1.0  0.7340110540507325  0.8294067263845977  0.8037986354378363  1.0000
  C   C22       1.0  0.2659973263303925  0.1705618456478319  0.19618301513985162  1.0000
  C   C23       1.0  0.8911187336423511  0.6795528746447063  0.9116718985702477  1.0000
  C   C24       1.0  0.10887279464912325  0.3204444038887574  0.08833644842583507  1.0000
  C   C25       1.0  0.005672545177780792  0.5786864892181995  0.8418753410343243  1.0000
  C   C26       1.0  0.9943241312365956  0.4213120172893383  0.15813325607099674  1.0000
  C   C27       1.0  0.8391552604561029  0.5686494027398297  0.046839290808342975  1.0000
  C   C28       1.0  0.16083916054694922  0.4313491421516033  0.953173257137543  1.0000
  N   N1        1.0  0.39156443336757013  0.15645078583018798  0.5915017731448062  1.0000
  N   N2        1.0  0.6084362929693512  0.8435537720682474  0.4084923169449155  1.0000
  N   N3        1.0  0.3152891538707365  0.9178297578823162  0.5804085169975651  1.0000
  N   N4        1.0  0.6847171766840034  0.0821698915928195  0.419591459616818  1.0000
  O   O1        1.0  0.6923853315241287  0.8242215856095357  0.6877843683851381  1.0000
  O   O2        1.0  0.307619574121226  0.1757656893974797  0.312214360277018  1.0000
  O   O3        1.0  0.6564133839529446  0.9436840568754546  0.8360622195522254  1.0000
  O   O4        1.0  0.34357050777010295  0.05633281182243621  0.16392112385749164  1.0000
