data_image0
_chemical_formula_structural       Cd6H96C162O36
_chemical_formula_sum              "Cd6 H96 C162 O36"
_cell_length_a       8.036552623097679
_cell_length_b       28.329249047267602
_cell_length_c       28.322034970016684
_cell_angle_alpha    119.99122153196531
_cell_angle_beta     90.00111781720312
_cell_angle_gamma    90.00059279756609

_space_group_name_H-M_alt    "P 1"
_space_group_IT_number       1

loop_
  _space_group_symop_operation_xyz
  'x, y, z'

loop_
  _atom_site_type_symbol
  _atom_site_label
  _atom_site_symmetry_multiplicity
  _atom_site_fract_x
  _atom_site_fract_y
  _atom_site_fract_z
  _atom_site_occupancy
  Cd  Cd1       1.0  0.833409629423386  0.39068420855750935  0.39076885553114243  1.0000
  Cd  Cd2       1.0  0.49998823258919606  3.846228146758362e-06  0.6092953127993327  1.0000
  Cd  Cd3       1.0  0.16657598327803674  0.6093160769695842  9.637907132288382e-05  1.0000
  Cd  Cd4       1.0  0.5000060338746478  4.186934709992237e-06  0.37467068441105056  1.0000
  Cd  Cd5       1.0  0.1667128211786348  0.37466429612151614  0.9999949793304738  1.0000
  Cd  Cd6       1.0  0.833262840695433  0.6253240968785789  0.6253199575947477  1.0000
  H   H1        1.0  0.6404746070499245  0.22323526903731056  0.35947153181015074  1.0000
  H   H2        1.0  0.30725480142774586  0.13624972066524085  0.7767869899413712  1.0000
  H   H3        1.0  0.9738323063735236  0.6404944451435456  0.8637585529439066  1.0000
  H   H4        1.0  0.35952759519998523  0.7767712326343598  0.13624372590160766  1.0000
  H   H5        1.0  0.6927126558643977  0.8637452821364491  0.6405275398865413  1.0000
  H   H6        1.0  0.026156745081820504  0.3595182401297449  0.22326905338453432  1.0000
  H   H7        1.0  0.4276126982284297  0.15654432715971467  0.3540919972522261  1.0000
  H   H8        1.0  0.09442590342489861  0.19759517739343838  0.8434738916027484  1.0000
  H   H9        1.0  0.7609719497958595  0.6458282929255504  0.8023954677930548  1.0000
  H   H10       1.0  0.5724010895452452  0.8434609309873763  0.19755249372555278  1.0000
  H   H11       1.0  0.9055489895482938  0.8023962169076599  0.6458660538117372  1.0000
  H   H12       1.0  0.23901051807455792  0.354185376285713  0.1565733233995346  1.0000
  H   H13       1.0  0.0624577465732159  0.28544055180133654  0.4199058028594109  1.0000
  H   H14       1.0  0.7292098117881167  0.13444781508077616  0.7145503832307797  1.0000
  H   H15       1.0  0.39583189218456033  0.5800508663798213  0.8655576064792285  1.0000
  H   H16       1.0  0.9375586696652365  0.7145647607723761  0.13445859598220267  1.0000
  H   H17       1.0  0.27075631671593925  0.8655520609160166  0.5801004105422507  1.0000
  H   H18       1.0  0.604157963275057  0.419962997962365  0.2855143294761717  1.0000
  H   H19       1.0  0.2771524697588532  0.35115107991023115  0.42494075186726843  1.0000
  H   H20       1.0  0.9438567325857505  0.0737456365888251  0.6488489689742708  1.0000
  H   H21       1.0  0.6105101742450431  0.5750555959888858  0.9262755313265245  1.0000
  H   H22       1.0  0.722851131733414  0.6488567945687649  0.07378683944703113  1.0000
  H   H23       1.0  0.056113227252431806  0.9262567275387852  0.5751036175751879  1.0000
  H   H24       1.0  0.3894849368069657  0.4249574836301235  0.3512274210111528  1.0000
  H   H25       1.0  0.27972979198455056  0.13006554026674175  0.4040846067515957  1.0000
  H   H26       1.0  0.9465348140101  0.27402923874159774  0.8699224651133619  1.0000
  H   H27       1.0  0.6129782247564322  0.5958363271734939  0.7259452445145698  1.0000
  H   H28       1.0  0.720283030781502  0.8699348632197186  0.2740133311502504  1.0000
  H   H29       1.0  0.053466243426335304  0.7259620797490386  0.5958727941927293  1.0000
  H   H30       1.0  0.38699521945348886  0.40417787315971054  0.13011283188625103  1.0000
  H   H31       1.0  0.0646707928528869  0.06639866543439157  0.40328682926652704  1.0000
  H   H32       1.0  0.7315009028865164  0.3368984680408005  0.9335943885401861  1.0000
  H   H33       1.0  0.39785916024122514  0.5966554444626411  0.6630811046859222  1.0000
  H   H34       1.0  0.9353302897376568  0.9336035551588608  0.3368896766192434  1.0000
  H   H35       1.0  0.26851217959116985  0.6630956437716976  0.5966757290768854  1.0000
  H   H36       1.0  0.6021003110709485  0.4033426973961411  0.06642228776915005  1.0000
  H   H37       1.0  0.6895699158520046  0.15069435968104736  0.3663003901215163  1.0000
  H   H38       1.0  0.3563689194593067  0.21564078359363503  0.8493244716267725  1.0000
  H   H39       1.0  0.0229562886633659  0.6337677641274201  0.7844615595845  1.0000
  H   H40       1.0  0.3104504056526878  0.849308469603102  0.21562129285276657  1.0000
  H   H41       1.0  0.6436143592370129  0.7843672201983694  0.6336897033626556  1.0000
  H   H42       1.0  0.9770137557007743  0.3662337304539633  0.15069643888062959  1.0000
  H   H43       1.0  0.9027474963097789  0.2147897491933081  0.3664385840238324  1.0000
  H   H44       1.0  0.5695275789876106  0.1516820202421841  0.7852391779685064  1.0000
  H   H45       1.0  0.2361940334012189  0.6335928096552622  0.8484042097370477  1.0000
  H   H46       1.0  0.0972819870041022  0.7852160486405637  0.15165492858920973  1.0000
  H   H47       1.0  0.4304387105988213  0.8483214943614215  0.6335581556603885  1.0000
  H   H48       1.0  0.7637863286734685  0.3664250945957903  0.2148206237416943  1.0000
  H   H49       1.0  0.06487061614647871  0.3450937362697107  0.5407921101797656  1.0000
  H   H50       1.0  0.7315898274745438  0.19565258708959044  0.6549198799600974  1.0000
  H   H51       1.0  0.39810795787222025  0.459206907483143  0.8042807491684201  1.0000
  H   H52       1.0  0.9351053907826242  0.6549057725342281  0.19570329662669653  1.0000
  H   H53       1.0  0.26847030121473386  0.8043479891997692  0.4592643861025535  1.0000
  H   H54       1.0  0.6019154048442986  0.5407978947836581  0.34506320484025105  1.0000
  H   H55       1.0  0.9713310284950724  0.2510076438829572  0.4929970929760117  1.0000
  H   H56       1.0  0.6379595494180137  0.24196059458025604  0.7490235185336118  1.0000
  H   H57       1.0  0.3044817325677372  0.5070740005270696  0.7580437769674547  1.0000
  H   H58       1.0  0.028633702538478203  0.7489910869848443  0.24200000586666445  1.0000
  H   H59       1.0  0.3620916986315238  0.7580417488577496  0.5070637629432184  1.0000
  H   H60       1.0  0.6955369042710232  0.49294056819864107  0.2509616764624525  1.0000
  H   H61       1.0  0.4620663657948896  0.3057147851959741  0.513062729075557  1.0000
  H   H62       1.0  0.1287293933481095  0.20732481081501686  0.6942436224938859  1.0000
  H   H63       1.0  0.7952465251849291  0.4868383592168756  0.7925946381057828  1.0000
  H   H64       1.0  0.5378913929099839  0.694292729854432  0.20732379075398194  1.0000
  H   H65       1.0  0.8713267107497629  0.7926509521521937  0.4868989937648396  1.0000
  H   H66       1.0  0.20477048252669763  0.5131603461113202  0.3057525913410046  1.0000
  H   H67       1.0  0.5557323953048368  0.39985199107918856  0.5578601175791391  1.0000
  H   H68       1.0  0.22249392033654664  0.15797530768437448  0.6000912765926715  1.0000
  H   H69       1.0  0.8890061822970098  0.4419763407446954  0.84188950536376  1.0000
  H   H70       1.0  0.4442338394546114  0.6001553741114094  0.15797209816174979  1.0000
  H   H71       1.0  0.7775724596875975  0.8419948623874947  0.44208818556028723  1.0000
  H   H72       1.0  0.11101073377896141  0.5580104270066428  0.3999053109820991  1.0000
  H   H73       1.0  0.8949128228232724  0.1968933474844405  0.5179427454827277  1.0000
  H   H74       1.0  0.5614740728129065  0.32102876304298184  0.8030771082940903  1.0000
  H   H75       1.0  0.22807564221217555  0.4820751790442871  0.6789507488980178  1.0000
  H   H76       1.0  0.10510080603052072  0.8031092364570825  0.32105233905238617  1.0000
  H   H77       1.0  0.4385500480129495  0.6789643078915618  0.4820394416800583  1.0000
  H   H78       1.0  0.771938633861815  0.5179107537871771  0.19685109603064888  1.0000
  H   H79       1.0  0.7976069725655108  0.15484380681480298  0.5696476050473861  1.0000
  H   H80       1.0  0.46414262225093245  0.41475567865730073  0.8450824110359746  1.0000
  H   H81       1.0  0.1308066812292878  0.4303512110292261  0.5851984828255042  1.0000
  H   H82       1.0  0.20244026444601101  0.8451492807654972  0.41480223298254526  1.0000
  H   H83       1.0  0.535888465013855  0.585237914344994  0.43031886033807626  1.0000
  H   H84       1.0  0.8691968815841661  0.5696387280483748  0.15482507797580786  1.0000
  H   H85       1.0  0.6237011235519319  0.45397137194445514  0.6426236915263958  1.0000
  H   H86       1.0  0.29051544317350425  0.18864020703285436  0.5459877787725063  1.0000
  H   H87       1.0  0.9570648715671483  0.3572775819675727  0.8112691721408041  1.0000
  H   H88       1.0  0.37631459804057243  0.5460485059743192  0.18865600587611203  1.0000
  H   H89       1.0  0.7095089573135098  0.8113373795150808  0.35732919961117204  1.0000
  H   H90       1.0  0.0429544956477699  0.6427148745769174  0.45399480963015293  1.0000
  H   H91       1.0  0.38769650830223423  0.2268363171582877  0.49071937611039823  1.0000
  H   H92       1.0  0.05430726939988519  0.2638463599036955  0.7731241351987279  1.0000
  H   H93       1.0  0.7208121997395907  0.5092644232876327  0.7360896430154327  1.0000
  H   H94       1.0  0.6122928713849021  0.7731499900696407  0.26386936068185923  1.0000
  H   H95       1.0  0.9457241780932506  0.7361469505290683  0.5092842168757343  1.0000
  H   H96       1.0  0.27921775558934303  0.49075530807665774  0.22683228122309632  1.0000
  C   C1        1.0  0.6075430082704899  0.32896256173145133  0.39792272146376473  1.0000
  C   C2        1.0  0.27424342917884553  0.06890731992459131  0.6710437718750627  1.0000
  C   C3        1.0  0.940895820027123  0.6021263792075618  0.93112680374513  1.0000
  C   C4        1.0  0.392455223262715  0.671041054824613  0.06896678770554145  1.0000
  C   C5        1.0  0.7257203511661602  0.9310932101226682  0.6021354709442194  1.0000
  C   C6        1.0  0.05909217630954801  0.3978867287917822  0.3290035260442608  1.0000
  C   C7        1.0  0.47354835676750895  0.2911489144543965  0.3939896246960188  1.0000
  C   C8        1.0  0.1402951588593311  0.10281405003385666  0.7088560158576485  1.0000
  C   C9        1.0  0.8069151582447988  0.6060039015620264  0.8972001821460369  1.0000
  C   C10       1.0  0.5264501698953411  0.7088576681616701  0.1028412167399184  1.0000
  C   C11       1.0  0.8596732547136126  0.8971847568002574  0.6060395129657294  1.0000
  C   C12       1.0  0.19307661630969622  0.39400751734100947  0.2912023641179218  1.0000
  C   C13       1.0  0.5138046596558539  0.23612145926130532  0.373317983715225  1.0000
  C   C14       1.0  0.18058419578594004  0.13720328561373668  0.7638938361345495  1.0000
  C   C15       1.0  0.8471579270133419  0.6266500897366643  0.8628050340073516  1.0000
  C   C16       1.0  0.48620328086239795  0.7638839736717458  0.13720067177926146  1.0000
  C   C17       1.0  0.8193930858921165  0.8627930723192208  0.6266850460170161  1.0000
  C   C18       1.0  0.15283049389062603  0.37336222499263283  0.23616126147375385  1.0000
  C   C19       1.0  0.3949223088270486  0.19930280748325666  0.370464101296335  1.0000
  C   C20       1.0  0.061731902566293705  0.17118509767298232  0.8007080976146242  1.0000
  C   C21       1.0  0.7282807065704233  0.6294795461701811  0.8288147729557878  1.0000
  C   C22       1.0  0.6050946968078321  0.8007012511500804  0.17116249693821575  1.0000
  C   C23       1.0  0.9382436842932905  0.828809403812073  0.6295161629432897  1.0000
  C   C24       1.0  0.27170282976422305  0.3705354792702451  0.19934223226822922  1.0000
  C   C25       1.0  0.23099795441765286  0.21650416509277193  0.3878527401232859  1.0000
  C   C26       1.0  0.8977822921999491  0.1713604950212474  0.7834981455881121  1.0000
  C   C27       1.0  0.5643638741197493  0.6120961552781807  0.8286456268905411  1.0000
  C   C28       1.0  0.7690187103107889  0.7835009099865503  0.17134526650086462  1.0000
  C   C29       1.0  0.10219151636906082  0.8286380880314682  0.6121328953638213  1.0000
  C   C30       1.0  0.4356180499931314  0.3879187593466824  0.21655856344349894  1.0000
  C   C31       1.0  0.18955075823276252  0.27154327621118324  0.4068766459701791  1.0000
  C   C32       1.0  0.8563160607624598  0.13532815400706277  0.7284566938433414  1.0000
  C   C33       1.0  0.5229391625191155  0.5930742375642668  0.864678840590628  1.0000
  C   C34       1.0  0.8104612998994085  0.7284624444771239  0.1353273054186347  1.0000
  C   C35       1.0  0.1436502079919322  0.8646716302393856  0.5931254903674628  1.0000
  C   C36       1.0  0.47704744446394187  0.4069405774584923  0.2716124114304819  1.0000
  C   C37       1.0  0.30936886341337555  0.3086015009643006  0.4101030675311677  1.0000
  C   C38       1.0  0.9761202480989442  0.10147810731212564  0.6914011693730231  1.0000
  C   C39       1.0  0.6427545728059556  0.5898725481219459  0.8985344881631576  1.0000
  C   C40       1.0  0.6906316669314309  0.6914052488592334  0.10149815999691475  1.0000
  C   C41       1.0  0.023846439577518204  0.8985233804642193  0.5899214677016716  1.0000
  C   C42       1.0  0.35724314561549153  0.410140138425227  0.3086685647315832  1.0000
  C   C43       1.0  0.10591762400259343  0.17744873746016762  0.3859817195755966  1.0000
  C   C44       1.0  0.7727136602052697  0.20854817059257882  0.8225551040091759  1.0000
  C   C45       1.0  0.43925989736029436  0.6139775709962837  0.7914659186588157  1.0000
  C   C46       1.0  0.8940996120638901  0.8225563021813258  0.20853275936688215  1.0000
  C   C47       1.0  0.22726722948139164  0.7914498736296096  0.6139987749455074  1.0000
  C   C48       1.0  0.560719351514308  0.38603858392248463  0.17749758896170684  1.0000
  C   C49       1.0  0.15017028794358822  0.13482687973070998  0.3956988457845227  1.0000
  C   C50       1.0  0.8169759490601508  0.2608877537416918  0.8651687706772223  1.0000
  C   C51       1.0  0.4834411428074788  0.6042379650331  0.7391056729322969  1.0000
  C   C52       1.0  0.8498376953612664  0.8651773512139586  0.26087281999047474  1.0000
  C   C53       1.0  0.1830228070756021  0.7391072983200646  0.604267022942345  1.0000
  C   C54       1.0  0.5165319782361311  0.3957738209922539  0.1348718289874924  1.0000
  C   C55       1.0  0.0301831885695805  0.09927615169871742  0.3956995640028538  1.0000
  C   C56       1.0  0.6970000443436676  0.296438296876666  0.9007229716773467  1.0000
  C   C57       1.0  0.36341894837409683  0.6042526154974086  0.7035590291520181  1.0000
  C   C58       1.0  0.9698241339269771  0.900727062629791  0.2964261048087308  1.0000
  C   C59       1.0  0.3030030284096553  0.7035577071300523  0.6042683862483145  1.0000
  C   C60       1.0  0.6365430504542574  0.39575053101613383  0.09930631509341477  1.0000
  C   C61       1.0  0.863038816748585  0.10560785756678116  0.3856122697333291  1.0000
  C   C62       1.0  0.5298551865268453  0.2800296600221871  0.8944007342611116  1.0000
  C   C63       1.0  0.19630754296551342  0.6143785505710825  0.7200092775831309  1.0000
  C   C64       1.0  0.13696838770587766  0.8943966551727272  0.28001294505723007  1.0000
  C   C65       1.0  0.4701443474967562  0.7199717202339928  0.6143636768737154  1.0000
  C   C66       1.0  0.8036543820833231  0.38561839107106277  0.10562960121315265  1.0000
  C   C67       1.0  0.8193982395837837  0.147074245768458  0.3746326106073354  1.0000
  C   C68       1.0  0.486193956814418  0.22758957419282697  0.852946785433936  1.0000
  C   C69       1.0  0.15274353956201742  0.6253919847570801  0.7724791923781711  1.0000
  C   C70       1.0  0.1806206359907918  0.852929658778848  0.22756979246884163  1.0000
  C   C71       1.0  0.5137903238361616  0.7724143789666016  0.6253566992003242  1.0000
  C   C72       1.0  0.8472232147199962  0.37461091824850706  0.1470884542618975  1.0000
  C   C73       1.0  0.9385006448759584  0.18260892800251588  0.3749106185174185  1.0000
  C   C74       1.0  0.6052913894708354  0.1923340100519441  0.8174124181084964  1.0000
  C   C75       1.0  0.2718772654119377  0.6250927240760191  0.8077273025469367  1.0000
  C   C76       1.0  0.06151767652387721  0.8173960691232268  0.19230824798565746  1.0000
  C   C77       1.0  0.3946835839156009  0.8076679579232219  0.6250759787140581  1.0000
  C   C78       1.0  0.7281018393845076  0.3749196811987546  0.18264024112435354  1.0000
  C   C79       1.0  0.7292746669899872  0.06969426113964527  0.38594843691542025  1.0000
  C   C80       1.0  0.396079881840528  0.316280019211604  0.9303111780791867  1.0000
  C   C81       1.0  0.06250949034860298  0.6140532913290786  0.6837646619107788  1.0000
  C   C82       1.0  0.2707244641151477  0.930311657811444  0.3162663489815571  1.0000
  C   C83       1.0  0.6039239695125147  0.6837192369071161  0.6140252908553094  1.0000
  C   C84       1.0  0.9374537012482662  0.3859353406179835  0.06970396616636525  1.0000
  C   C85       1.0  0.834262170256551  0.478104648486891  0.5369828030162012  1.0000
  C   C86       1.0  0.5007926625290225  0.058887625702979673  0.5219456600349304  1.0000
  C   C87       1.0  0.16698745510557697  0.4631516055849831  0.9410653855119763  1.0000
  C   C88       1.0  0.16563319078071712  0.5218560852497874  0.058888670104430156  1.0000
  C   C89       1.0  0.49928073422317704  0.9411078489895389  0.46306880187217564  1.0000
  C   C90       1.0  0.832945248353134  0.5368540127014116  0.4779317930025472  1.0000
  C   C91       1.0  0.8174320922832977  0.38055972957543843  0.5584523848739736  1.0000
  C   C92       1.0  0.48417018360004255  0.1778618980480148  0.6194299577923417  1.0000
  C   C93       1.0  0.15069727592594973  0.4414748072491365  0.8220433355442155  1.0000
  C   C94       1.0  0.18254888362434943  0.6194452530552113  0.17787725745904484  1.0000
  C   C95       1.0  0.5158884538973824  0.8221277085754507  0.44155513689183573  1.0000
  C   C96       1.0  0.8493288245485431  0.5585206768349948  0.3805610403222346  1.0000
  C   C97       1.0  0.9318398973066381  0.33703578348774244  0.5338099907659526  1.0000
  C   C98       1.0  0.5985481690103073  0.19673077997259014  0.6629732746585972  1.0000
  C   C99       1.0  0.2650698236194343  0.46617773809866514  0.8032037988867202  1.0000
  C   C100      1.0  0.06812833993259201  0.6629672889459286  0.196773064782171  1.0000
  C   C101      1.0  0.40151148761182753  0.8032659062633697  0.46623540170622857  1.0000
  C   C102      1.0  0.7349480927884073  0.5338256700973149  0.33701781322974267  1.0000
  C   C103      1.0  0.8783642190000692  0.2832738932674773  0.5072103668551621  1.0000
  C   C104      1.0  0.5450154985735907  0.22390875120582626  0.7167410097138216  1.0000
  C   C105      1.0  0.21153421406742007  0.49281155102298896  0.7760674364341328  1.0000
  C   C106      1.0  0.12160155882261142  0.7167306418167101  0.22393964957912263  1.0000
  C   C107      1.0  0.4550308694841689  0.7760927811475185  0.49283233833526197  1.0000
  C   C108      1.0  0.7884758103910982  0.5071986283966652  0.2832511189210082  1.0000
  C   C109      1.0  0.7078426506973302  0.2705901613419642  0.5046741560197674  1.0000
  C   C110      1.0  0.374482033961698  0.23405616644603808  0.7293998062492193  1.0000
  C   C111      1.0  0.04098928422529011  0.4953247312265887  0.7659100115841184  1.0000
  C   C112      1.0  0.2921197850037061  0.729410271478919  0.23408131271234825  1.0000
  C   C113      1.0  0.6255713350620555  0.7659372882221549  0.49534054027817853  1.0000
  C   C114      1.0  0.9590257880052633  0.5046813951105805  0.2705803083950897  1.0000
  C   C115      1.0  0.5953679142494155  0.3137540888412361  0.5180264882033185  1.0000
  C   C116      1.0  0.2620409807137634  0.2042426469617667  0.6862150226378958  1.0000
  C   C117      1.0  0.9285498924899257  0.48190582624918926  0.7956919686904554  1.0000
  C   C118      1.0  0.4045986520012335  0.6862510246277511  0.20425553356520956  1.0000
  C   C119      1.0  0.7380194342534239  0.7957418856216447  0.48195804487794897  1.0000
  C   C120      1.0  0.07146395425495199  0.518092831878306  0.3137808858822241  1.0000
  C   C121      1.0  0.6487664236366584  0.36756560323868837  0.5441669208171405  1.0000
  C   C122      1.0  0.3154927461242636  0.17656497864872028  0.6323992311327586  1.0000
  C   C123      1.0  0.9820108889844265  0.45572515789635315  0.8233296812062393  1.0000
  C   C124      1.0  0.35120628540737203  0.6324400775187513  0.17658225977507408  1.0000
  C   C125      1.0  0.684569779445205  0.823415286748208  0.4558146027455053  1.0000
  C   C126      1.0  0.0180059008038072  0.544266649836544  0.3675977866223263  1.0000
  C   C127      1.0  0.650167846762642  0.22201666813278834  0.5062989855024257  1.0000
  C   C128      1.0  0.3167617511521216  0.2842605030113534  0.7779560644535694  1.0000
  C   C129      1.0  0.9833023674956821  0.49370606604319534  0.7157038941479499  1.0000
  C   C130      1.0  0.34982338370237903  0.7779818191756432  0.2842789367613251  1.0000
  C   C131      1.0  0.683282830607105  0.7157308962949216  0.4936936840336158  1.0000
  C   C132      1.0  0.016713847142021607  0.5062980976812099  0.2219927489439755  1.0000
  C   C133      1.0  0.7613022216994879  0.19469981376764886  0.5231534531028004  1.0000
  C   C134      1.0  0.4278600078735196  0.32842923805362306  0.8052675746182416  1.0000
  C   C135      1.0  0.09446052557391481  0.47685998631729404  0.6715395583844954  1.0000
  C   C136      1.0  0.23871329966006272  0.8053005325182029  0.32845158724619256  1.0000
  C   C137      1.0  0.5721676908085129  0.6715645127875123  0.47683176378540554  1.0000
  C   C138      1.0  0.9055470360569589  0.5231354227775356  0.1946672696564917  1.0000
  C   C139      1.0  0.7060613840045703  0.1712844140674364  0.5532266227555738  1.0000
  C   C140      1.0  0.37259360894820764  0.38190168096119975  0.8286648420064467  1.0000
  C   C141      1.0  0.03924869338971598  0.4467736127407492  0.6180530159655859  1.0000
  C   C142      1.0  0.29397585353301287  0.8287117670772234  0.3819395157730697  1.0000
  C   C143      1.0  0.6274287693045862  0.6180929621174229  0.4467586807293884  1.0000
  C   C144      1.0  0.9607586482155597  0.5532205753894672  0.17126525790937566  1.0000
  C   C145      1.0  0.8701472533723731  0.43196800536618724  0.6065931410208664  1.0000
  C   C146      1.0  0.5369512233770165  0.1746132227578343  0.568018755746472  1.0000
  C   C147      1.0  0.20348411703199082  0.39332825469978167  0.8252932053007456  1.0000
  C   C148      1.0  0.12985345029736817  0.5680380717182771  0.17461619677222032  1.0000
  C   C149      1.0  0.46309109603785004  0.8253754373279564  0.3933920924952475  1.0000
  C   C150      1.0  0.7965447927600311  0.6066618446183725  0.43196012001647693  1.0000
  C   C151      1.0  0.7571259209425493  0.46062291243966064  0.6499833796794477  1.0000
  C   C152      1.0  0.4239529460951419  0.18935705792908678  0.539354302853269  1.0000
  C   C153      1.0  0.0905038933978872  0.3499336499075911  0.8105641698285311  1.0000
  C   C154      1.0  0.24288897048719346  0.5393895775913365  0.18935838397153762  1.0000
  C   C155      1.0  0.5760794461294695  0.8106267972295883  0.34998235101146247  1.0000
  C   C156      1.0  0.9095219999203153  0.6500549654250066  0.4606265632264411  1.0000
  C   C157      1.0  0.4792484543244627  0.2118677672464031  0.5085169132964467  1.0000
  C   C158      1.0  0.14583007302868373  0.2966096184743421  0.7880818456989971  1.0000
  C   C159      1.0  0.8123775979167432  0.491475745938665  0.7033301975363032  1.0000
  C   C160      1.0  0.520753479703096  0.7881224659202317  0.2966378702459523  1.0000
  C   C161      1.0  0.854206205010648  0.7033807720803722  0.4914753028716561  1.0000
  C   C162      1.0  0.18763745991299174  0.5085389816302596  0.2118561686494048  1.0000
  O   O1        1.0  0.5738761085614  0.37912559110710486  0.413305306973875  1.0000
  O   O2        1.0  0.24050718567198714  0.034110489702747986  0.6208806095517972  1.0000
  O   O3        1.0  0.907193424779436  0.5867722416000734  0.9659445865796245  1.0000
  O   O4        1.0  0.42612237005619846  0.6208794093633755  0.03418578644128441  1.0000
  O   O5        1.0  0.7594557144136544  0.9658917177561439  0.586768600560106  1.0000
  O   O6        1.0  0.09280018475018892  0.4132326882287459  0.37917226927060454  1.0000
  O   O7        1.0  0.7563391523351654  0.31059491988336424  0.3847844072381221  1.0000
  O   O8        1.0  0.42303601471160596  0.07412481881511479  0.6894109069492416  1.0000
  O   O9        1.0  0.089665473602345  0.6152884790737049  0.9259169426630507  1.0000
  O   O10       1.0  0.24365742830399742  0.6894080351774434  0.07419725437463151  1.0000
  O   O11       1.0  0.5769343632310823  0.9258767751483677  0.6152847994842221  1.0000
  O   O12       1.0  0.9103213104644468  0.3847290645460859  0.31062958807132196  1.0000
  O   O13       1.0  0.5798533608783458  0.07675694036502285  0.3745719512826184  1.0000
  O   O14       1.0  0.24662780476830196  0.29785717893434366  0.9232133765864391  1.0000
  O   O15       1.0  0.9131194472368094  0.6254573384544883  0.7022220233320836  1.0000
  O   O16       1.0  0.4201566805251603  0.9232374004203051  0.2978372188448334  1.0000
  O   O17       1.0  0.753371286985967  0.7021431887118795  0.6253558573290832  1.0000
  O   O18       1.0  0.08684256673845428  0.37452238003706384  0.07675481522094428  1.0000
  O   O19       1.0  0.7630205870955606  0.03155158748002412  0.3966527993366356  1.0000
  O   O20       1.0  0.42981986225847635  0.3651073994432754  0.9684790404320938  1.0000
  O   O21       1.0  0.09621747619490151  0.6033354393363695  0.6349038618415577  1.0000
  O   O22       1.0  0.2369604524052349  0.9684666376099429  0.3651056935191122  1.0000
  O   O23       1.0  0.570177937004992  0.6348903744366439  0.603358634063305  1.0000
  O   O24       1.0  0.9037549300226929  0.3966552803974536  0.031561308012555835  1.0000
  O   O25       1.0  0.9229761499740763  0.44615527541537153  0.5029156812271652  1.0000
  O   O26       1.0  0.5895735700972722  0.05675440684552072  0.5538793865906513  1.0000
  O   O27       1.0  0.2559774758650235  0.49717884847586924  0.9432143135695485  1.0000
  O   O28       1.0  0.07703556115409782  0.5538260650817932  0.05676292678914058  1.0000
  O   O29       1.0  0.41046340138925796  0.9432406784387908  0.49712915050316303  1.0000
  O   O30       1.0  0.7440084479508898  0.5028273236447234  0.4460321936531173  1.0000
  O   O31       1.0  0.7444718244743312  0.5115379767372445  0.569113479070559  1.0000
  O   O32       1.0  0.4109426610720917  0.057605945659666806  0.4885227576879387  1.0000
  O   O33       1.0  0.07696864561247452  0.43104487545634396  0.9423108481819896  1.0000
  O   O34       1.0  0.2553131325265952  0.4884000923370309  0.057593490573516724  1.0000
  O   O35       1.0  0.5891534957664392  0.9423859755717887  0.43093442306704355  1.0000
  O   O36       1.0  0.9229160653262624  0.5689622849664817  0.511309229827198  1.0000
