data_image0
_chemical_formula_structural       Al2C24S6N6O24
_chemical_formula_sum              "Al2 C24 S6 N6 O24"
_cell_length_a       4.056684668212747
_cell_length_b       20.15066980724969
_cell_length_c       20.150681677272036
_cell_angle_alpha    120.00027969034805
_cell_angle_beta     89.99986437589696
_cell_angle_gamma    89.99906889255757

_space_group_name_H-M_alt    "P 1"
_space_group_IT_number       1

loop_
  _space_group_symop_operation_xyz
  'x, y, z'

loop_
  _atom_site_type_symbol
  _atom_site_label
  _atom_site_symmetry_multiplicity
  _atom_site_fract_x
  _atom_site_fract_y
  _atom_site_fract_z
  _atom_site_occupancy
  Al  Al1       1.0  0.9816728427867504  0.5000011423158667  0.4999995793710356  1.0000
  Al  Al2       1.0  0.981706387245197  0.16667008842777858  0.833333217606743  1.0000
  C   C1        1.0  0.48545781045839237  0.442433272400109  0.3834553592395338  1.0000
  C   C2        1.0  0.4854568491836206  0.44102165014381706  0.5575675237044423  1.0000
  C   C3        1.0  0.48544243848198226  0.6165475375818019  0.5589774963044222  1.0000
  C   C4        1.0  0.48551840469642127  0.22562068321433065  0.7757314291957658  1.0000
  C   C5        1.0  0.4855155588464797  0.050113601761999846  0.774378082685594  1.0000
  C   C6        1.0  0.4855051152882269  0.22427260874464125  0.949888231346826  1.0000
  C   C7        1.0  0.4966234027852893  0.4282188762915878  0.6793138812880742  1.0000
  C   C8        1.0  0.4966434542506876  0.23839780840227576  0.6539600170030725  1.0000
  C   C9        1.0  0.4977737619004756  0.39870712891178056  0.6006640590069169  1.0000
  C   C10       1.0  0.4978595596247999  0.26790871119781906  0.732606704802052  1.0000
  C   C11       1.0  0.4929091266342383  0.29679569124163385  0.6342260736254914  1.0000
  C   C12       1.0  0.49298718004623515  0.36981408375271474  0.6990368967954127  1.0000
  C   C13       1.0  0.49660867655642715  0.7510943498151619  0.5717772636482439  1.0000
  C   C14       1.0  0.4966355121594077  0.9155642148409482  0.7615997295385669  1.0000
  C   C15       1.0  0.4977616520880306  0.70195592860874  0.6012904028336552  1.0000
  C   C16       1.0  0.4978391408749233  0.9647003383441515  0.7320888791301813  1.0000
  C   C17       1.0  0.49289700081271104  0.8374303882817882  0.703200587405867  1.0000
  C   C18       1.0  0.49296431204727753  0.829223036537762  0.6301815735673275  1.0000
  C   C19       1.0  0.49662774619181965  0.3206864842940291  0.24890193191124152  1.0000
  C   C20       1.0  0.4966400205104479  0.3460427264215653  0.08443722355924173  1.0000
  C   C21       1.0  0.4977779705026325  0.39933782642744836  0.2980443760670895  1.0000
  C   C22       1.0  0.4978340747541169  0.26739718036801463  0.03530286981975193  1.0000
  C   C23       1.0  0.49290912947062543  0.3657766910194482  0.16257233061298854  1.0000
  C   C24       1.0  0.4929856208487422  0.30096629952970494  0.1707788786388421  1.0000
  S   S1        1.0  0.499685978535453  0.29951282443506927  0.5502428612804096  1.0000
  S   S2        1.0  0.4998027078391445  0.36710665450134167  0.7830252416335173  1.0000
  S   S3        1.0  0.4996596918105638  0.7507332152530494  0.7004859137168397  1.0000
  S   S4        1.0  0.4997816758946528  0.915919205488521  0.6328912447541699  1.0000
  S   S5        1.0  0.49967680945117376  0.449758534911986  0.24927032074926816  1.0000
  S   S6        1.0  0.499788135666094  0.2169773017613537  0.08408005077597384  1.0000
  N   N1        1.0  0.5182952025932084  0.5083506288530799  0.7368733098940653  1.0000
  N   N2        1.0  0.5182606987544318  0.15825111631058758  0.5964034536780575  1.0000
  N   N3        1.0  0.5182681259001498  0.7285184468052535  0.49164545875083837  1.0000
  N   N4        1.0  0.5182651060915191  0.9381497872198993  0.8417435367360756  1.0000
  N   N5        1.0  0.518300317135946  0.26312818890273343  0.2714765078968853  1.0000
  N   N6        1.0  0.5182614235921861  0.403598919297842  0.061849698257404426  1.0000
  O   O1        1.0  0.7154393977260441  0.5827208752192446  0.5733149967755651  1.0000
  O   O2        1.0  0.7154489177130544  0.4905935895604968  0.417276888574655  1.0000
  O   O3        1.0  0.7154632559913453  0.4266830229089179  0.5094058909748115  1.0000
  O   O4        1.0  0.24199638353142927  0.585225940306536  0.5147389621274671  1.0000
  O   O5        1.0  0.24200744360565812  0.4852626796479028  0.5704840720285418  1.0000
  O   O6        1.0  0.2420204393576598  0.4295174192026039  0.41477851658608245  1.0000
  O   O7        1.0  0.7154733481935623  0.17609317946164518  0.9160652144389374  1.0000
  O   O8        1.0  0.7154738014763211  0.23997843664135124  0.8239109025907824  1.0000
  O   O9        1.0  0.715482869470037  0.08393435230269106  0.7600219242332216  1.0000
  O   O10       1.0  0.24202763875553762  0.23717149695481518  0.9185550994542526  1.0000
  O   O11       1.0  0.24203443959690674  0.08144857330521657  0.8186100490330406  1.0000
  O   O12       1.0  0.24204063597510841  0.1813916817803615  0.762834472392342  1.0000
  O   O13       1.0  0.4755351631164616  0.5231710357300159  0.8042034799106192  1.0000
  O   O14       1.0  0.5823408140885463  0.5555029957880322  0.716355195479615  1.0000
  O   O15       1.0  0.47529556433709536  0.14342119114542118  0.5290791564396714  1.0000
  O   O16       1.0  0.5824256928557432  0.11111024411290762  0.6169274533590682  1.0000
  O   O17       1.0  0.47548487650021803  0.7810247075396575  0.4768226625489761  1.0000
  O   O18       1.0  0.5823209420357501  0.6608476959279413  0.44449450626547105  1.0000
  O   O19       1.0  0.47530839033370853  0.8856555271333162  0.8565725224369063  1.0000
  O   O20       1.0  0.5824455623931826  0.005814504099134707  0.8888840913237744  1.0000
  O   O21       1.0  0.4755171419137626  0.19579835088968875  0.2189658427163295  1.0000
  O   O22       1.0  0.5823686621409864  0.28364504914866734  0.3391453783090627  1.0000
  O   O23       1.0  0.47528737895220274  0.4709247651511532  0.11434482979697691  1.0000
  O   O24       1.0  0.5824372813382866  0.3830748324272903  0.9941854629115527  1.0000
