data_image0
_chemical_formula_structural       Cd4H64C40N8Cl8O8
_chemical_formula_sum              "Cd4 H64 C40 N8 Cl8 O8"
_cell_length_a       8.025958106001378
_cell_length_b       9.458263775621727
_cell_length_c       17.230652997141604
_cell_angle_alpha    99.60259783429822
_cell_angle_beta     89.99996731513313
_cell_angle_gamma    90.00006257197029

_space_group_name_H-M_alt    "P 1"
_space_group_IT_number       1

loop_
  _space_group_symop_operation_xyz
  'x, y, z'

loop_
  _atom_site_type_symbol
  _atom_site_label
  _atom_site_symmetry_multiplicity
  _atom_site_fract_x
  _atom_site_fract_y
  _atom_site_fract_z
  _atom_site_occupancy
  Cd  Cd1       1.0  0.5268877296712234  0.48094899605288793  0.7507728654552112  1.0000
  Cd  Cd2       1.0  0.026886390974823402  0.5190499784436328  0.7492276732357439  1.0000
  Cd  Cd3       1.0  0.4731112981100197  0.5190533725228051  0.24922696255966773  1.0000
  Cd  Cd4       1.0  0.9731126368041887  0.4809491713630649  0.2507724373677007  1.0000
  H   H1        1.0  0.2731410440265591  0.30463481307155865  0.6190753972218062  1.0000
  H   H2        1.0  0.7731400082247507  0.6953600860958106  0.880925277931226  1.0000
  H   H3        1.0  0.7268592297109394  0.695365412776475  0.38092365220386176  1.0000
  H   H4        1.0  0.22686151146574932  0.3046347726435457  0.11907501606042811  1.0000
  H   H5        1.0  0.4986070763862714  0.2690610106220248  0.3883503996952911  1.0000
  H   H6        1.0  0.9986076554651506  0.7309447687569914  0.11165045335172863  1.0000
  H   H7        1.0  0.5013931973518596  0.7309402875254492  0.6116487489304845  1.0000
  H   H8        1.0  0.0013926182729094001  0.26905759794857426  0.8883499548519183  1.0000
  H   H9        1.0  0.7587629561559198  0.36874315249262685  0.45445919350921576  1.0000
  H   H10       1.0  0.258763251387947  0.6312581275643653  0.045541308442402305  1.0000
  H   H11       1.0  0.24123856353777037  0.6312559991858464  0.5455403369051055  1.0000
  H   H12       1.0  0.7412370223478818  0.36874102037220513  0.9544593823498033  1.0000
  H   H13       1.0  0.759810761780713  0.43818581006927093  0.6021000120971606  1.0000
  H   H14       1.0  0.2598105450344406  0.5618112238895349  0.8979002838073598  1.0000
  H   H15       1.0  0.24018951195616725  0.5618133434793293  0.39789893812839955  1.0000
  H   H16       1.0  0.740189728700138  0.43818577944815457  0.1021002085846305  1.0000
  H   H17       1.0  0.08527749678113142  0.9962863167167981  0.3087370248281687  1.0000
  H   H18       1.0  0.585275805693108  0.0037137390516548  0.1912634109831401  1.0000
  H   H19       1.0  0.9147215309991383  0.0037149776887872993  0.6912632841754844  1.0000
  H   H20       1.0  0.4147232220862593  0.9962854126257241  0.8087361194314228  1.0000
  H   H21       1.0  0.995756401993468  0.1643803346767569  0.34766728588815  1.0000
  H   H22       1.0  0.495755583914921  0.8356200788363354  0.1523336518905793  1.0000
  H   H23       1.0  0.004242625786176301  0.8356198874293811  0.6523329239154023  1.0000
  H   H24       1.0  0.5042446898215333  0.16438014139967547  0.847667138101734  1.0000
  H   H25       1.0  0.8086789232962417  0.958011669235148  0.3628440107181348  1.0000
  H   H26       1.0  0.30867960201118905  0.0419885822532606  0.1371563825212903  1.0000
  H   H27       1.0  0.1913201044827774  0.041987480571549406  0.6371560998853099  1.0000
  H   H28       1.0  0.6913206717256131  0.9580116398534245  0.8628438272821413  1.0000
  H   H29       1.0  0.8652621901178037  0.05652700002055162  0.45655529223412833  1.0000
  H   H30       1.0  0.3652616405665868  0.9434743752092558  0.04344460923405789  1.0000
  H   H31       1.0  0.13473808361997902  0.9434742962562482  0.5434444365805291  1.0000
  H   H32       1.0  0.6347386331705708  0.05652584876810351  0.956555020380492  1.0000
  H   H33       1.0  0.9623601850307113  0.8885457988158476  0.4200310652881285  1.0000
  H   H34       1.0  0.46235977518835375  0.11145458731012783  0.07996929866570211  1.0000
  H   H35       1.0  0.03764008870706451  0.11145549746095179  0.5799686635265218  1.0000
  H   H36       1.0  0.5376404985481004  0.8885456329258831  0.9200314913266113  1.0000
  H   H37       1.0  0.26543031758038893  0.8870377528808221  0.40162185433270287  1.0000
  H   H38       1.0  0.7654301235320773  0.11296353114646963  0.098379226537304  1.0000
  H   H39       1.0  0.7345699561573867  0.11296354339598479  0.5983778744819546  1.0000
  H   H40       1.0  0.23457015020507305  0.8870366928308968  0.9016204030772457  1.0000
  H   H41       1.0  0.4104915365220806  0.0103509121309102  0.45178267913732384  1.0000
  H   H42       1.0  0.9104925221373394  0.9896494248129174  0.048218855078296506  1.0000
  H   H43       1.0  0.5895087372157023  0.9896503841458894  0.5482170496773336  1.0000
  H   H44       1.0  0.08950650564230501  0.010350797293220599  0.9517813547252558  1.0000
  H   H45       1.0  0.5056995024080635  0.8865713993087498  0.31575185296406977  1.0000
  H   H46       1.0  0.0056977238547589  0.11343180177011901  0.1842494758009323  1.0000
  H   H47       1.0  0.49429952537255434  0.1134298969675029  0.6842478758507013  1.0000
  H   H48       1.0  0.9943025498820505  0.8865684203365662  0.8157507340024992  1.0000
  H   H49       1.0  0.5018302842557534  0.07679330417806803  0.3226986406793202  1.0000
  H   H50       1.0  0.0018295480176818005  0.9232098878994609  0.17730442938955093  1.0000
  H   H51       1.0  0.49816874352458745  0.9232069216694183  0.6773004087464685  1.0000
  H   H52       1.0  0.9981694797619628  0.07679033420667741  0.8226957804139943  1.0000
  H   H53       1.0  0.3396932320216522  0.969602391085019  0.27362480026477703  1.0000
  H   H54       1.0  0.8396902868675797  0.030401102600663397  0.22637646485407006  1.0000
  H   H55       1.0  0.6603070417161306  0.030398905191788093  0.7263749285498804  1.0000
  H   H56       1.0  0.16030874091178765  0.9695980490767154  0.7736230655604928  1.0000
  H   H57       1.0  0.5586533592315066  0.5796800548156185  0.9361776375157831  1.0000
  H   H58       1.0  0.05865336316455941  0.4203200235517103  0.5638218339440898  1.0000
  H   H59       1.0  0.4413469145050258  0.4203190968623077  0.06382189289865893  1.0000
  H   H60       1.0  0.9413481565297633  0.5796802004261962  0.4361777956703393  1.0000
  H   H61       1.0  0.48823302008779024  0.4224073661708019  0.9125129386996208  1.0000
  H   H62       1.0  0.9882334323894569  0.5775930829335253  0.5874881914656102  1.0000
  H   H63       1.0  0.5117672536486638  0.577592854065209  0.0874878512926855  1.0000
  H   H64       1.0  0.0117668413469971  0.42240713730248564  0.41251259852670336  1.0000
  C   C1        1.0  0.37718099018389495  0.3164750280581714  0.5799673272645478  1.0000
  C   C2        1.0  0.8771798922819657  0.6835210345565771  0.9200334272626165  1.0000
  C   C3        1.0  0.6228192835552095  0.6835273442594173  0.42003134037244655  1.0000
  C   C4        1.0  0.12282038145101382  0.31647382231156485  0.07996744691804031  1.0000
  C   C5        1.0  0.36654053649183294  0.2719460860854142  0.4985309077701033  1.0000
  C   C6        1.0  0.8665399982930426  0.7280552902643436  0.0014689934544804902  1.0000
  C   C7        1.0  0.6334609832041593  0.7280552158039555  0.5014670804777879  1.0000
  C   C8        1.0  0.13346152140092474  0.27194493184288854  0.9985312163488375  1.0000
  C   C9        1.0  0.5050449139465772  0.29305840492582286  0.45232268710591234  1.0000
  C   C10       1.0  0.0050453032516486  0.7069437288931013  0.04767680201687339  1.0000
  C   C11       1.0  0.4949553597916251  0.7069418246635593  0.5476752019419919  1.0000
  C   C12       1.0  0.9949549704845283  0.2930554209141434  0.9523233085864505  1.0000
  C   C13       1.0  0.6495684842812467  0.35123676922561503  0.4890931346588446  1.0000
  C   C14       1.0  0.14956884347361676  0.6487633447388604  0.010906708712013801  1.0000
  C   C15       1.0  0.35043178945563375  0.6487623843229783  0.5109058155667157  1.0000
  C   C16       1.0  0.8504314302619351  0.3512347327689511  0.9890933026911952  1.0000
  C   C17       1.0  0.650217604389802  0.3910180015757235  0.5706202078793581  1.0000
  C   C18       1.0  0.1502161640961077  0.6089810828390371  0.9293797271208319  1.0000
  C   C19       1.0  0.34978391530521696  0.6089822261435388  0.4293782613573073  1.0000
  C   C20       1.0  0.8497841096390958  0.39101699279809304  0.07062086447126602  1.0000
  C   C21       1.0  0.20404279417635254  0.22273022672248996  0.4611862829100346  1.0000
  C   C22       1.0  0.7040435199112169  0.777269933095667  0.038814130268974595  1.0000
  C   C23       1.0  0.7959562336039883  0.7772699991250036  0.5388127665157469  1.0000
  C   C24       1.0  0.2959592457411659  0.2227324336109931  0.9611862779344307  1.0000
  C   C25       1.0  0.044930284383724504  0.0646245151696476  0.3631988287744505  1.0000
  C   C26       1.0  0.5449286023651113  0.9353755052511663  0.13680161472547073  1.0000
  C   C27       1.0  0.9550699893530777  0.9353757069370375  0.6368013810289811  1.0000
  C   C28       1.0  0.4550716713720463  0.0646247187261935  0.863198014889079  1.0000
  C   C29       1.0  0.9126465672510663  0.9876226456557188  0.40369978578570437  1.0000
  C   C30       1.0  0.4126460112827318  0.012378769216212502  0.0963006868417366  1.0000
  C   C31       1.0  0.08735370648671652  0.0123786506210806  0.5962999430289528  1.0000
  C   C32       1.0  0.5873542624540704  0.9876214528904729  0.9036995229616879  1.0000
  C   C33       1.0  0.3279487767845667  0.9901783821828973  0.4003914496600914  1.0000
  C   C34       1.0  0.8279484495619728  0.009822954745217802  0.09961019948520543  1.0000
  C   C35       1.0  0.6720490050391633  0.009823984521574401  0.59960895854379  1.0000
  C   C36       1.0  0.17205057821828973  0.9901783396603677  0.9003901095184474  1.0000
  C   C37       1.0  0.42489425215119786  0.9814877371850346  0.3239778975934798  1.0000
  C   C38       1.0  0.9248913523121163  0.018514756973999597  0.1760238322781262  1.0000
  C   C39       1.0  0.5751047756290646  0.018513557220551  0.6760224114101803  1.0000
  C   C40       1.0  0.0751076754685016  0.98148653930226  0.823975896536652  1.0000
  N   N1        1.0  0.5155756988357328  0.3755171499096904  0.6149808376760718  1.0000
  N   N2        1.0  0.015575577582261206  0.624479668207492  0.8850200849590736  1.0000
  N   N3        1.0  0.4844245749023985  0.6244841482377836  0.3850183109497038  1.0000
  N   N4        1.0  0.9844246961516206  0.37551733138884913  0.1149815678106805  1.0000
  N   N5        1.0  0.19637512570061946  0.09966702870575969  0.4104460100487159  1.0000
  N   N6        1.0  0.6963747016558345  0.9003331262650319  0.08955382440268518  1.0000
  N   N7        1.0  0.8036239020803466  0.9003342694411741  0.5895531385771733  1.0000
  N   N8        1.0  0.30362432612513157  0.09966817188190191  0.9104453242232113  1.0000
  Cl  Cl1       1.0  0.2550073051884781  0.32364757493864  0.7695920925231193  1.0000
  Cl  Cl2       1.0  0.7550026880653037  0.6763516012795491  0.7304078225085108  1.0000
  Cl  Cl3       1.0  0.7449967064217661  0.6763547955099157  0.23040715530240874  1.0000
  Cl  Cl4       1.0  0.24499509375600334  0.32364540766907635  0.26959092931706863  1.0000
  Cl  Cl5       1.0  0.8003228890658608  0.31866879953715  0.7579223135978597  1.0000
  Cl  Cl6       1.0  0.3003180282951234  0.6813293422111784  0.7420780737871766  1.0000
  Cl  Cl7       1.0  0.19967863062755953  0.6813292817125571  0.24207653742747232  1.0000
  Cl  Cl8       1.0  0.6996747696987529  0.31867515599526547  0.25792659413956903  1.0000
  O   O1        1.0  0.535331511934082  0.503393351643588  0.8902267019786692  1.0000
  O   O2        1.0  0.03533155807073031  0.496606704421133  0.6097733541143171  1.0000
  O   O3        1.0  0.46466876180272026  0.4966068704630969  0.10977350782476243  1.0000
  O   O4        1.0  0.96466996162296  0.5033924472573333  0.3902261763000041  1.0000
  O   O5        1.0  0.07725174331084624  0.3029953681149422  0.4764820428557641  1.0000
  O   O6        1.0  0.5772511389779283  0.6970057547928405  0.023517913496064625  1.0000
  O   O7        1.0  0.9227485304269295  0.6970059281618576  0.5235176859588933  1.0000
  O   O8        1.0  0.42275038071603893  0.30299446731439156  0.976482296307246  1.0000
