data_image0
_chemical_formula_structural       Zn2H22C42Br2N2O8
_chemical_formula_sum              "Zn2 H22 C42 Br2 N2 O8"
_cell_length_a       9.586714549587693
_cell_length_b       11.01789581439505
_cell_length_c       15.29375527761195
_cell_angle_alpha    89.5778509562279
_cell_angle_beta     90.8112820686127
_cell_angle_gamma    89.92958502890802

_space_group_name_H-M_alt    "P 1"
_space_group_IT_number       1

loop_
  _space_group_symop_operation_xyz
  'x, y, z'

loop_
  _atom_site_type_symbol
  _atom_site_label
  _atom_site_symmetry_multiplicity
  _atom_site_fract_x
  _atom_site_fract_y
  _atom_site_fract_z
  _atom_site_occupancy
  Zn  Zn1       1.0  0.6421264940746312  0.5012330247229285  0.5022072975938839  1.0000
  Zn  Zn2       1.0  0.357889082277694  0.4987613066180145  0.4977898738988457  1.0000
  H   H1        1.0  0.586844257480024  0.6683393538822244  0.7736810738386594  1.0000
  H   H2        1.0  0.41326211291614356  0.3316205175330822  0.22631458614776526  1.0000
  H   H3        1.0  0.6312348631911959  0.7901523909834932  0.07374495451708189  1.0000
  H   H4        1.0  0.36883503316224153  0.2098210916194247  0.9262544495802415  1.0000
  H   H5        1.0  0.28625950871541045  0.8863619641979668  0.45686056425979865  1.0000
  H   H6        1.0  0.7137173656650262  0.11362797146034612  0.5431927799136955  1.0000
  H   H7        1.0  0.2877157244805629  0.11483421090574103  0.45362449292834117  1.0000
  H   H8        1.0  0.7122571011814286  0.8851584680869139  0.5464366697682408  1.0000
  H   H9        1.0  0.1354376553777143  0.33212684966857603  0.562938030631642  1.0000
  H   H10       1.0  0.8645778645796866  0.6678738277809301  0.437056482123161  1.0000
  H   H11       1.0  0.13328023445949808  0.6653440926652152  0.4353019540354451  1.0000
  H   H12       1.0  0.8667363648218397  0.33465477543754923  0.5646945352516963  1.0000
  H   H13       1.0  0.19094777724630765  0.3429021923931757  0.749223682903519  1.0000
  H   H14       1.0  0.10484785063171387  0.15009983880534614  0.6835253748634356  1.0000
  H   H15       1.0  0.2665721903834778  0.9743111451914499  0.6679235360010052  1.0000
  H   H16       1.0  0.5128808776404908  0.9918077841008991  0.718844796288259  1.0000
  H   H17       1.0  0.5978189219444018  0.18402931673125514  0.7853092517371107  1.0000
  H   H18       1.0  0.4019600855603328  0.8158247797649095  0.2145581800497993  1.0000
  H   H19       1.0  0.48656748666408584  0.0081578672749743  0.28103743796881986  1.0000
  H   H20       1.0  0.7327995724181448  0.025886283385616993  0.33208510861341267  1.0000
  H   H21       1.0  0.8947663390833682  0.8502332190157559  0.316588206523555  1.0000
  H   H22       1.0  0.8089670063138285  0.6573311365163619  0.2508886760233792  1.0000
  C   C1        1.0  0.4993853312058221  0.7377411890980029  0.5026446104014111  1.0000
  C   C2        1.0  0.5006127940857396  0.26225227541868174  0.4973695266772394  1.0000
  C   C3        1.0  0.5950938920035185  0.7091318898898179  0.04009986997304789  1.0000
  C   C4        1.0  0.40496971762681966  0.2908497571434268  0.9598988098911858  1.0000
  C   C5        1.0  0.37905237242935635  0.9372521018054483  0.47594073217759086  1.0000
  C   C6        1.0  0.6209202494418165  0.06274508227393481  0.524108629334556  1.0000
  C   C7        1.0  0.37995281447427226  0.06335450425825681  0.4737934163373011  1.0000
  C   C8        1.0  0.6200169089676065  0.9366354542635662  0.5262690651916982  1.0000
  C   C9        1.0  0.5009636375145448  0.12671810228587077  0.4978665387457965  1.0000
  C   C10       1.0  0.49900793092064777  0.8732736318768418  0.5021815493940237  1.0000
  C   C11       1.0  0.07334059451241609  0.4063555613211776  0.5351944740454683  1.0000
  C   C12       1.0  0.9266738072225208  0.5936396551775616  0.4647948418690077  1.0000
  C   C13       1.0  0.071797182511439  0.5922027117520514  0.46362604344900393  1.0000
  C   C14       1.0  0.9282183069389942  0.4077970525426053  0.5363665137278841  1.0000
  C   C15       1.0  0.5006242611585208  0.5096228062279237  0.3287756998778377  1.0000
  C   C16       1.0  0.4994121807628814  0.4903651780456855  0.67122091051948  1.0000
  C   C17       1.0  0.449507690207014  0.3882386969511769  0.816329668981602  1.0000
  C   C18       1.0  0.5504974302356443  0.611746546537489  0.1836649235649688  1.0000
  C   C19       1.0  0.49812094240274246  0.4892179126240919  0.7694175497374545  1.0000
  C   C20       1.0  0.5019124029573802  0.5107646282652709  0.23058039796053717  1.0000
  C   C21       1.0  0.5478569564646205  0.5923115722117273  0.8121366600939692  1.0000
  C   C22       1.0  0.4522128159746898  0.40765916540957653  0.18785491553560965  1.0000
  C   C23       1.0  0.5480749677210497  0.6001667398024679  0.903439381738515  1.0000
  C   C24       1.0  0.4520073601481513  0.39980673303011116  0.09655482090214207  1.0000
  C   C25       1.0  0.5000255332486816  0.4983604661411576  0.9534428887176387  1.0000
  C   C26       1.0  0.5000454554392632  0.5016257366759548  0.04656100906000658  1.0000
  C   C27       1.0  0.4517297343777499  0.392208127662677  0.9089503794211565  1.0000
  C   C28       1.0  0.5483150978860748  0.6077789596237225  0.0910488726669101  1.0000
  C   C29       1.0  0.5946487220880883  0.7047732253299088  0.9510403516755374  1.0000
  C   C30       1.0  0.4054201127643609  0.29520388557339317  0.04895837139995509  1.0000
  C   C31       1.0  0.399940816244836  0.27620852955757164  0.771419505217011  1.0000
  C   C32       1.0  0.2612254901129845  0.2658310410089014  0.7419910912993044  1.0000
  C   C33       1.0  0.21363699635453764  0.1578255014169585  0.7049234562532758  1.0000
  C   C34       1.0  0.30367427855946966  0.05884175146685071  0.6965852678494997  1.0000
  C   C35       1.0  0.4421296103150141  0.0687254078324386  0.7250551782996195  1.0000
  C   C36       1.0  0.48998281412145417  0.17673282500388152  0.7621083925591063  1.0000
  C   C37       1.0  0.5999180554738216  0.7238292827183769  0.2285684970113522  1.0000
  C   C38       1.0  0.5097573048032087  0.8232430503376236  0.23781893359217318  1.0000
  C   C39       1.0  0.5574361105524088  0.9313057517687684  0.2748667797613748  1.0000
  C   C40       1.0  0.6958517025229868  0.9413175749738231  0.30340896331244227  1.0000
  C   C41       1.0  0.7860095293729399  0.8424075160978503  0.2951150281456519  1.0000
  C   C42       1.0  0.7385747316285886  0.7343367239012435  0.2580612800308444  1.0000
  Br  Br1       1.0  0.6584961594042722  0.8445220392381431  0.888754269096175  1.0000
  Br  Br2       1.0  0.34163520873529757  0.15544055945711927  0.11123947035598997  1.0000
  N   N1        1.0  0.8567790111389753  0.5012691605234066  0.5012472854698584  1.0000
  N   N2        1.0  0.14323649476803976  0.4987278826968549  0.4987459440866146  1.0000
  O   O1        1.0  0.6180779954298216  0.6857052107721415  0.5065820180316791  1.0000
  O   O2        1.0  0.3819065480568184  0.3142982324067916  0.49343201900988015  1.0000
  O   O3        1.0  0.6185585656166879  0.31556720616924133  0.5008369941540778  1.0000
  O   O4        1.0  0.3814280060984103  0.6844226085541223  0.4991719089104122  1.0000
  O   O5        1.0  0.618218689632755  0.5097010857700042  0.3682281632825379  1.0000
  O   O6        1.0  0.3818083609392531  0.4902986977667537  0.6317696525328528  1.0000
  O   O7        1.0  0.6185432245086631  0.4943167853065231  0.63586577811175  1.0000
  O   O8        1.0  0.38148182957503696  0.5056657614833924  0.3641354192535714  1.0000
