data_image0
_chemical_formula_structural       Ca3H6C18O12
_chemical_formula_sum              "Ca3 H6 C18 O12"
_cell_length_a       8.266536296550896
_cell_length_b       8.266544523409102
_cell_length_c       8.266534832291606
_cell_angle_alpha    66.28679499523102
_cell_angle_beta     66.2869092703767
_cell_angle_gamma    66.28669519250614

_space_group_name_H-M_alt    "P 1"
_space_group_IT_number       1

loop_
  _space_group_symop_operation_xyz
  'x, y, z'

loop_
  _atom_site_type_symbol
  _atom_site_label
  _atom_site_symmetry_multiplicity
  _atom_site_fract_x
  _atom_site_fract_y
  _atom_site_fract_z
  _atom_site_occupancy
  Ca  Ca1       1.0  0.3260335468014262  0.32603009809849237  0.32603535234448333  1.0000
  Ca  Ca2       1.0  0.6739644039807544  0.6739668047815927  0.6739658403082772  1.0000
  Ca  Ca3       1.0  0.499996321246769  0.4999984323831726  0.49999805281606086  1.0000
  H   H1        1.0  0.631227811699624  0.9258602221010224  0.18050773636147716  1.0000
  H   H2        1.0  0.1805086114184674  0.6312258529999044  0.9258614462582458  1.0000
  H   H3        1.0  0.9258655831238941  0.18050647115371282  0.631226683851608  1.0000
  H   H4        1.0  0.3687750223826001  0.07413807144288141  0.8194909083261666  1.0000
  H   H5        1.0  0.819492772423935  0.36876829281207085  0.07413826215133655  1.0000
  H   H6        1.0  0.07414068845987017  0.819489069761133  0.3687716827006753  1.0000
  C   C1        1.0  0.7519232269162828  0.9173767211933496  0.060563341225190394  1.0000
  C   C2        1.0  0.0605624594701054  0.7519200698719929  0.9173798430029195  1.0000
  C   C3        1.0  0.9173785385691318  0.06056144863269002  0.7519228388120426  1.0000
  C   C4        1.0  0.24808000994788412  0.08262019760521612  0.9394369079091405  1.0000
  C   C5        1.0  0.9394389332549622  0.24807408481808585  0.08262227762229199  1.0000
  C   C6        1.0  0.08262245137398581  0.9394340808027267  0.2480776773664743  1.0000
  C   C7        1.0  0.902714114031582  0.7590753773437489  0.06910453289993497  1.0000
  C   C8        1.0  0.06910401477044552  0.9027114337184017  0.7590786893190254  1.0000
  C   C9        1.0  0.7590772801532778  0.06910175484252791  0.9027158035733296  1.0000
  C   C10       1.0  0.0972868803528684  0.24092015653072005  0.9308971893863927  1.0000
  C   C11       1.0  0.9308986894821131  0.097282714963427  0.24092048168400748  1.0000
  C   C12       1.0  0.24092332477322734  0.930895167094427  0.09728793258974379  1.0000
  C   C13       1.0  0.9041183738571376  0.6080331791803745  0.24743162042081918  1.0000
  C   C14       1.0  0.24743450486533186  0.9041173858758073  0.6080326811485719  1.0000
  C   C15       1.0  0.6080348392928131  0.24742941393931522  0.9041188670541231  1.0000
  C   C16       1.0  0.09587745539232623  0.3919664747595777  0.7525681068529266  1.0000
  C   C17       1.0  0.7525726710226622  0.09587951933707473  0.3919599252270202  1.0000
  C   C18       1.0  0.39196271314875725  0.7525688681251597  0.09588192725975384  1.0000
  O   O1        1.0  0.05377273507713189  0.4861070220207895  0.2635517514928267  1.0000
  O   O2        1.0  0.2635493019952407  0.0537732655223522  0.48610866646088624  1.0000
  O   O3        1.0  0.4861103042607127  0.2635481877541467  0.0537712231730438  1.0000
  O   O4        1.0  0.9462237699065663  0.5138857375664259  0.7364517109896911  1.0000
  O   O5        1.0  0.736455345136754  0.9462277610566688  0.5138796639811929  1.0000
  O   O6        1.0  0.5138832869503746  0.7364500857007529  0.9462311833605102  1.0000
  O   O7        1.0  0.7519230094967638  0.6145035235688712  0.37866965796678914  1.0000
  O   O8        1.0  0.3786745334070644  0.7519203160334342  0.6145030719669223  1.0000
  O   O9        1.0  0.6145052463364564  0.3786691082448571  0.7519232414844271  1.0000
  O   O10       1.0  0.2480706715719876  0.38549885479663715  0.6213213672810698  1.0000
  O   O11       1.0  0.6213246035142886  0.2480724404153918  0.3854969034868532  1.0000
  O   O12       1.0  0.3854973192037787  0.6213208866968076  0.24807404361836657  1.0000
