data_image0
_chemical_formula_structural       Cd2H36C32S4N8
_chemical_formula_sum              "Cd2 H36 C32 S4 N8"
_cell_length_a       5.803137604361013
_cell_length_b       8.727693315849784
_cell_length_c       18.246086834780037
_cell_angle_alpha    90.00066410096424
_cell_angle_beta     90.00384485188249
_cell_angle_gamma    97.55038502002242

_space_group_name_H-M_alt    "P 1"
_space_group_IT_number       1

loop_
  _space_group_symop_operation_xyz
  'x, y, z'

loop_
  _atom_site_type_symbol
  _atom_site_label
  _atom_site_symmetry_multiplicity
  _atom_site_fract_x
  _atom_site_fract_y
  _atom_site_fract_z
  _atom_site_occupancy
  Cd  Cd1       1.0  0.4999869896786678  0.49999091184403  0.9999983104597876  1.0000
  Cd  Cd2       1.0  0.5000285524460608  0.9999991674994391  0.5000023387293383  1.0000
  H   H1        1.0  0.8596760737798091  0.8099343562244882  0.9778029915567856  1.0000
  H   H2        1.0  0.1403627528152853  0.6900589203837414  0.4778018367598663  1.0000
  H   H3        1.0  0.14029754521288137  0.19004111236483817  0.022195097335348603  1.0000
  H   H4        1.0  0.8596568873871532  0.309959458998904  0.5221957040927379  1.0000
  H   H5        1.0  0.9279908769987911  0.0450110378024746  0.8985014561965486  1.0000
  H   H6        1.0  0.0720383231021273  0.4549750434490747  0.3984967486222928  1.0000
  H   H7        1.0  0.0720114285912317  0.9549703169268113  0.10150704585579012  1.0000
  H   H8        1.0  0.927937571244797  0.545048940987236  0.6014958597460236  1.0000
  H   H9        1.0  0.2536360702762579  0.9043712825424989  0.8019461578315514  1.0000
  H   H10       1.0  0.7463854277780441  0.5956238026315431  0.30194873536014205  1.0000
  H   H11       1.0  0.7463860987915965  0.0956240079219199  0.1980502868407967  1.0000
  H   H12       1.0  0.2536134487998822  0.40436677783799263  0.6980466132125116  1.0000
  H   H13       1.0  0.21139662337916576  0.6770165783608844  0.8861385696093794  1.0000
  H   H14       1.0  0.7886272799524648  0.8229807887802495  0.38614749897393363  1.0000
  H   H15       1.0  0.7885905931279923  0.3229670269862622  0.11384636577425773  1.0000
  H   H16       1.0  0.21140693818370684  0.17700530897847236  0.6138516859730744  1.0000
  H   H17       1.0  0.6692326857789155  0.23562006524550577  0.8221861877606289  1.0000
  H   H18       1.0  0.3307658939778904  0.2643687815770619  0.3221842217486143  1.0000
  H   H19       1.0  0.3307981321472013  0.7643844986758666  0.17782450654953416  1.0000
  H   H20       1.0  0.6692239695835767  0.7356379330917804  0.6778122229990232  1.0000
  H   H21       1.0  0.47551169101512153  0.13345972577103282  0.7587238881708487  1.0000
  H   H22       1.0  0.5244872349518913  0.3665190232719198  0.25872615601821997  1.0000
  H   H23       1.0  0.5244978237165937  0.8665597697730972  0.24128680620527382  1.0000
  H   H24       1.0  0.4754771970187619  0.6334899026071881  0.7412659042719625  1.0000
  H   H25       1.0  0.8592625985695292  0.2119528347074962  0.6997995984406986  1.0000
  H   H26       1.0  0.1407153455954315  0.2880379864360522  0.19979174956544205  1.0000
  H   H27       1.0  0.1407376375802301  0.7880631599830394  0.30020780756576226  1.0000
  H   H28       1.0  0.8592449843521164  0.7119674590887539  0.8002101758524419  1.0000
  H   H29       1.0  0.8103480345970907  0.0077895796731083985  0.7065245019771212  1.0000
  H   H30       1.0  0.1896539358361906  0.49219370825044007  0.20651630518749906  1.0000
  H   H31       1.0  0.18964056465949844  0.9922286794740102  0.29347303892337356  1.0000
  H   H32       1.0  0.8102884939392326  0.5078082031561805  0.7934861683130806  1.0000
  H   H33       1.0  0.0026948776850091033  0.1172497200267202  0.7690605007259707  1.0000
  H   H34       1.0  0.9972998528652254  0.3827458856500385  0.2690460275211777  1.0000
  H   H35       1.0  0.9973124267512719  0.8827489777364478  0.23093813622784154  1.0000
  H   H36       1.0  0.002661524349967715  0.6172468598273966  0.7309608304315917  1.0000
  C   C1        1.0  0.9907712136093494  0.3918389038599556  0.9161382336249988  1.0000
  C   C2        1.0  0.009226529097091403  0.1081390182094779  0.41614205705410984  1.0000
  C   C3        1.0  0.009213844582014043  0.6081423837076088  0.0838598552622187  1.0000
  C   C4        1.0  0.9908420089360134  0.891864536828976  0.5838669930071562  1.0000
  C   C5        1.0  0.7295847983323469  0.835880550640489  0.9380988465960058  1.0000
  C   C6        1.0  0.2704411179557269  0.6641122802540166  0.43809881805179884  1.0000
  C   C7        1.0  0.27040067446290544  0.1640938090421642  0.061902530651636305  1.0000
  C   C8        1.0  0.7295670829202123  0.33590028013123424  0.5618981747430071  1.0000
  C   C9        1.0  0.7660010769401994  0.966338213263434  0.8938989152057463  1.0000
  C   C10       1.0  0.23401886680261438  0.5336469626216528  0.39389404002979944  1.0000
  C   C11       1.0  0.234012253372434  0.03365588834815011  0.10610684654397323  1.0000
  C   C12       1.0  0.7659815849782561  0.4663701874271098  0.6061013085989799  1.0000
  C   C13       1.0  0.5957839931338711  0.9941566539385464  0.8426827791238979  1.0000
  C   C14       1.0  0.4042398934227123  0.505835441586477  0.3426794455196075  1.0000
  C   C15       1.0  0.4042226803004212  0.005847816236283201  0.1573213384708438  1.0000
  C   C16       1.0  0.5957486824006253  0.49417357794332883  0.6573164511723847  1.0000
  C   C17       1.0  0.3917387843579831  0.888939423141906  0.8407366929821195  1.0000
  C   C18       1.0  0.6082749408738053  0.6110582752590547  0.34073867086088694  1.0000
  C   C19       1.0  0.6082728206906863  0.1110546716749141  0.15926578039393044  1.0000
  C   C20       1.0  0.3917237404383655  0.3889403890095123  0.659257225792608  1.0000
  C   C21       1.0  0.3674318513750378  0.7616528404522143  0.8872560140207639  1.0000
  C   C22       1.0  0.6325783392280471  0.7383422396889472  0.3872601217969987  1.0000
  C   C23       1.0  0.6325678988484355  0.2383423631179298  0.11273878649799941  1.0000
  C   C24       1.0  0.36745160211246736  0.26165770069093247  0.6127385151244342  1.0000
  C   C25       1.0  0.6349659379152826  0.1277956059915155  0.79048715150293  1.0000
  C   C26       1.0  0.365036825004907  0.3721910969933546  0.2904871986849501  1.0000
  C   C27       1.0  0.36504850843081027  0.8722135141946126  0.20952189865450074  1.0000
  C   C28       1.0  0.6349362302176756  0.6278178623995175  0.7095081499682651  1.0000
  C   C29       1.0  0.8391420628461574  0.1149495523501116  0.7385129223766074  1.0000
  C   C30       1.0  0.16085243448902983  0.3850451260070571  0.2385070828716991  1.0000
  C   C31       1.0  0.1608568617487265  0.8850595075265629  0.26149064717754567  1.0000
  C   C32       1.0  0.8391042281490185  0.6149591503974747  0.7614953906120122  1.0000
  S   S1        1.0  0.23797163117428966  0.3479136927266779  0.8854631377865518  1.0000
  S   S2        1.0  0.7620118497901557  0.1520805628963089  0.3854724924111822  1.0000
  S   S3        1.0  0.7620095863411436  0.6520837489069178  0.11453111470316911  1.0000
  S   S4        1.0  0.23804522573884407  0.8479079335657714  0.6145354615092276  1.0000
  N   N1        1.0  0.8120049424213531  0.424801980141268  0.9380616405358921  1.0000
  N   N2        1.0  0.18798403315184933  0.07516816226253549  0.4380598315078075  1.0000
  N   N3        1.0  0.18797518415563266  0.5751896827842915  0.0619380925700099  1.0000
  N   N4        1.0  0.8120704898228297  0.9248341834621171  0.5619464782589176  1.0000
  N   N5        1.0  0.5345043418006981  0.7338498056309817  0.934594063189188  1.0000
  N   N6        1.0  0.4655210087280963  0.7661393194342236  0.4345938792293964  1.0000
  N   N7        1.0  0.4654738180192126  0.266131455160064  0.0654023815204994  1.0000
  N   N8        1.0  0.5345011836451761  0.2338652106283376  0.5654036615887251  1.0000
