data_image0
_chemical_formula_structural       Cs4H28C28N8O32
_chemical_formula_sum              "Cs4 H28 C28 N8 O32"
_cell_length_a       4.611284940009008
_cell_length_b       15.04198339520438
_cell_length_c       17.372710517154164
_cell_angle_alpha    106.71803111028277
_cell_angle_beta     90.00017641870735
_cell_angle_gamma    89.99981187722138

_space_group_name_H-M_alt    "P 1"
_space_group_IT_number       1

loop_
  _space_group_symop_operation_xyz
  'x, y, z'

loop_
  _atom_site_type_symbol
  _atom_site_label
  _atom_site_symmetry_multiplicity
  _atom_site_fract_x
  _atom_site_fract_y
  _atom_site_fract_z
  _atom_site_occupancy
  Cs  Cs1       1.0  0.8760823132515442  0.36841992340388435  0.5417051036460165  1.0000
  Cs  Cs2       1.0  0.37608002775149874  0.131579858048589  0.958294784166398  1.0000
  Cs  Cs3       1.0  0.12391695310970617  0.6315804321079312  0.45829457868302376  1.0000
  Cs  Cs4       1.0  0.623921407202694  0.8684204974623739  0.04170489816331717  1.0000
  H   H1        1.0  0.542623257175272  0.3741123142047017  0.7456790403862712  1.0000
  H   H2        1.0  0.0426251889084313  0.1258842422562054  0.7543208870401372  1.0000
  H   H3        1.0  0.4573781777828856  0.6258887190347693  0.2543219686825751  1.0000
  H   H4        1.0  0.9573762460539542  0.8741140309612094  0.24567825629328874  1.0000
  H   H5        1.0  0.19161547547690108  0.44902128003251823  0.9329754876650753  1.0000
  H   H6        1.0  0.6916106531527575  0.05097654762168699  0.5670248925327998  1.0000
  H   H7        1.0  0.8083837908816207  0.5509797695771469  0.06702437432939236  1.0000
  H   H8        1.0  0.30839295040319564  0.9490224115080538  0.4329750040035948  1.0000
  H   H9        1.0  0.8054709066210036  0.6601711529903441  0.8421044951388907  1.0000
  H   H10       1.0  0.30546723798872927  0.8398288225768058  0.6578958737602747  1.0000
  H   H11       1.0  0.1945261911445684  0.33982989662016655  0.15789536685489483  1.0000
  H   H12       1.0  0.6945320283813244  0.1601701365546404  0.3421040227747553  1.0000
  H   H13       1.0  0.24839958152701064  0.3736937974192856  0.398821081719369  1.0000
  H   H14       1.0  0.748398672823157  0.12630687117937361  0.1011796684348099  1.0000
  H   H15       1.0  0.7515996848409329  0.6263065417231886  0.601179747683368  1.0000
  H   H16       1.0  0.2516005935414398  0.8736934761477643  0.8988205874310822  1.0000
  H   H17       1.0  0.4906527570988359  0.4504937772868163  0.4116546356161592  1.0000
  H   H18       1.0  0.9906547021831213  0.0495067092515882  0.08834569293480142  1.0000
  H   H19       1.0  0.5093443406728112  0.5495065700411814  0.5883456202490507  1.0000
  H   H20       1.0  0.009344564178121599  0.9504936462602201  0.9116539893942317  1.0000
  H   H21       1.0  0.8573359003820755  0.3293326904463286  0.3147726042703455  1.0000
  H   H22       1.0  0.3573365502161039  0.17066790897229825  0.18522706713167741  1.0000
  H   H23       1.0  0.14266770316172034  0.6706676732484524  0.6852265045232002  1.0000
  H   H24       1.0  0.6426627161518396  0.8293324301701761  0.8147737622710594  1.0000
  H   H25       1.0  0.04417473804052461  0.2399520209425462  0.3126229820437487  1.0000
  H   H26       1.0  0.5441712032304409  0.2600481221237487  0.1873768868246302  1.0000
  H   H27       1.0  0.9558266969191251  0.7600469463727181  0.6873763409551117  1.0000
  H   H28       1.0  0.45583023173045223  0.7399522170178727  0.8126239425787888  1.0000
  C   C1        1.0  0.4499799300113594  0.5464660835629973  0.7280340421087389  1.0000
  C   C2        1.0  0.949975271089876  0.9535330926070102  0.7719656642188468  1.0000
  C   C3        1.0  0.5500193363526122  0.453533577850969  0.27196546055486703  1.0000
  C   C4        1.0  0.05002616387039889  0.046466560621439605  0.2280344119822857  1.0000
  C   C5        1.0  0.6534941865472986  0.5197185648146387  0.7866512744460934  1.0000
  C   C6        1.0  0.1534874647607083  0.9802808278200105  0.7133493930090397  1.0000
  C   C7        1.0  0.3465029112270841  0.48028108841550937  0.21334880175368204  1.0000
  C   C8        1.0  0.8465118016093526  0.0197181313114356  0.28665050352599053  1.0000
  C   C9        1.0  0.6735303225587898  0.42698589185247476  0.7871406580165186  1.0000
  C   C10       1.0  0.17353018147782961  0.0730119663716806  0.7128585637667371  1.0000
  C   C11       1.0  0.32647111239205634  0.5730144718431589  0.2128584507763449  1.0000
  C   C12       1.0  0.8264690848888775  0.9269870009444361  0.2871407592314342  1.0000
  C   C13       1.0  0.8627296503231606  0.40361235768672543  0.8408240195613601  1.0000
  C   C14       1.0  0.36272863713190867  0.09638535195767871  0.6591753208808343  1.0000
  C   C15       1.0  0.1372717846371145  0.5963872955417175  0.15917605663977247  1.0000
  C   C16       1.0  0.6372727978338233  0.9036129130750652  0.3408243959894435  1.0000
  C   C17       1.0  0.040457703069762395  0.4686634615299851  0.8927671831583126  1.0000
  C   C18       1.0  0.5404578942992727  0.0313344848279371  0.6072331022402438  1.0000
  C   C19       1.0  0.9595393946991562  0.5313375798958546  0.10723325237232471  1.0000
  C   C20       1.0  0.4595435406616133  0.9686658543136845  0.3927677271631751  1.0000
  C   C21       1.0  0.0123240430797225  0.5601956001409577  0.891509970604645  1.0000
  C   C22       1.0  0.5123154808436112  0.9398018046938291  0.6084912163903412  1.0000
  C   C23       1.0  0.9876730546885782  0.43980475537171065  0.10848971172371338  1.0000
  C   C24       1.0  0.48768378553040737  0.06019783216612501  0.3915100068838271  1.0000
  C   C25       1.0  0.8213497284414472  0.5873298812616171  0.8402286842805466  1.0000
  C   C26       1.0  0.3213366169326122  0.9126686772744039  0.6597724823171518  1.0000
  C   C27       1.0  0.17864953791980298  0.4126704742501984  0.1597709980484936  1.0000
  C   C28       1.0  0.6786604808478388  0.08733027367321711  0.3402279877540551  1.0000
  N   N1        1.0  0.8778452838247831  0.3072012359952439  0.8439061303267295  1.0000
  N   N2        1.0  0.37784535791943336  0.19279713132211643  0.656095119871793  1.0000
  N   N3        1.0  0.12215181394748238  0.6927997972459324  0.15609487874075972  1.0000
  N   N4        1.0  0.6221560770408415  0.8072025219063264  0.3439049563293466  1.0000
  N   N5        1.0  0.1892573115157674  0.6309488479792832  0.947431332807632  1.0000
  N   N6        1.0  0.6892510409801246  0.8690491447436914  0.5525678506724603  1.0000
  N   N7        1.0  0.810739786252533  0.3690515075333849  0.052568349520719024  1.0000
  N   N8        1.0  0.31074605679301476  0.13094913666009234  0.4474307191227567  1.0000
  O   O1        1.0  0.35958179786257455  0.6299036041821042  0.7484123524107177  1.0000
  O   O2        1.0  0.8595691348321424  0.8700949488837395  0.7515871175543793  1.0000
  O   O3        1.0  0.6404239742708171  0.3700967676965021  0.2515861828466583  1.0000
  O   O4        1.0  0.1404279629416152  0.12990401843322993  0.24841220544311682  1.0000
  O   O5        1.0  0.38898822136952294  0.4841630714561446  0.6638294529872866  1.0000
  O   O6        1.0  0.8889868814869999  0.0158353280344699  0.8361689365149942  1.0000
  O   O7        1.0  0.6110088763987774  0.5158372840565235  0.3361702293410715  1.0000
  O   O8        1.0  0.1110145534693032  0.9841636474654718  0.16382981294700721  1.0000
  O   O9        1.0  0.3596917620176398  0.4203831283296965  0.4411117565453183  1.0000
  O   O10       1.0  0.8596908724620036  0.07961678332627291  0.05888716313145181  1.0000
  O   O11       1.0  0.64030967293656  0.5796172271812667  0.558887925784397  1.0000
  O   O12       1.0  0.1403083938992395  0.9203835721855428  0.9411125191975813  1.0000
  O   O13       1.0  0.6891994742148383  0.2522242286964556  0.8079282851098031  1.0000
  O   O14       1.0  0.1891993665120779  0.24777566677741455  0.6920737796443107  1.0000
  O   O15       1.0  0.31079979214703  0.7477768127285388  0.19207215042151662  1.0000
  O   O16       1.0  0.8108020684542723  0.7522232841685085  0.3079266904282464  1.0000
  O   O17       1.0  0.9805730496998919  0.3006223279361181  0.3483726205008112  1.0000
  O   O18       1.0  0.4805730009453201  0.1993781747034333  0.1516271281910306  1.0000
  O   O19       1.0  0.019428385250954198  0.6993780357595156  0.6516264882920525  1.0000
  O   O20       1.0  0.5194284340122195  0.8006221726228591  0.8483731276755364  1.0000
  O   O21       1.0  0.0796581203654654  0.28640546098701236  0.8828166737769224  1.0000
  O   O22       1.0  0.5796564492529157  0.2135917441199809  0.6171846036144686  1.0000
  O   O23       1.0  0.920343314585999  0.7135955886218002  0.11718318821822754  1.0000
  O   O24       1.0  0.42034715430030184  0.7864079091076165  0.38281547258735327  1.0000
  O   O25       1.0  0.13637359219274003  0.7134928754857909  0.9536774528923148  1.0000
  O   O26       1.0  0.6363724822482837  0.7865058528631155  0.5463218770880048  1.0000
  O   O27       1.0  0.8636256741752035  0.28650746365668317  0.04632337651042922  1.0000
  O   O28       1.0  0.3636267841184234  0.21349311445300154  0.4536774459101736  1.0000
  O   O29       1.0  0.3819870380292443  0.6045113880942451  0.9859814540711157  1.0000
  O   O30       1.0  0.8819865423017818  0.8954871391870896  0.5140186034864271  1.0000
  O   O31       1.0  0.6180122283292703  0.3954896615154198  0.014018407923344994  1.0000
  O   O32       1.0  0.1180170612535463  0.10451113402947242  0.48598053984768097  1.0000
