data_image0
_chemical_formula_structural       Li4H12C12S4O18
_chemical_formula_sum              "Li4 H12 C12 S4 O18"
_cell_length_a       7.654739749902282
_cell_length_b       8.52657090425643
_cell_length_c       9.353980719808598
_cell_angle_alpha    83.14554527321476
_cell_angle_beta     67.71431833787669
_cell_angle_gamma    76.27703547171565

_space_group_name_H-M_alt    "P 1"
_space_group_IT_number       1

loop_
  _space_group_symop_operation_xyz
  'x, y, z'

loop_
  _atom_site_type_symbol
  _atom_site_label
  _atom_site_symmetry_multiplicity
  _atom_site_fract_x
  _atom_site_fract_y
  _atom_site_fract_z
  _atom_site_occupancy
  Li  Li1       1.0  0.29796897500548175  0.8619697911282174  0.943676465788144  1.0000
  Li  Li2       1.0  0.7020315291733822  0.13803157646951547  0.05632289135481029  1.0000
  Li  Li3       1.0  0.22556398663653715  0.5373276231651686  0.9915457987218945  1.0000
  Li  Li4       1.0  0.7744336782593778  0.4626737168633497  0.008453408537363302  1.0000
  H   H1        1.0  0.37660932420238424  0.7296625396364504  0.1992614177004768  1.0000
  H   H2        1.0  0.6233893133117974  0.27033517877054447  0.8007389551468478  1.0000
  H   H3        1.0  0.5408359053015986  0.8109093326300395  0.07463563640236974  1.0000
  H   H4        1.0  0.45916214393800914  0.1890908052767486  0.9253667906235779  1.0000
  H   H5        1.0  0.18974715453092736  0.8148531250644027  0.7095874696981069  1.0000
  H   H6        1.0  0.8102548482200264  0.18514826299258397  0.29041567838568466  1.0000
  H   H7        1.0  0.3660578074990187  0.9863074506826872  0.19495803656594293  1.0000
  H   H8        1.0  0.6339436692981267  0.0136902952935216  0.8050424861650783  1.0000
  H   H9        1.0  0.27802906992483406  0.880210917585991  0.4499597932982767  1.0000
  H   H10       1.0  0.7219769486582309  0.1197856590406232  0.5500393963119663  1.0000
  H   H11       1.0  0.2520699949726933  0.4292031015295521  0.6005306780176342  1.0000
  H   H12       1.0  0.7479344176143101  0.5707995124042922  0.39946727675516064  1.0000
  C   C1        1.0  0.20858308299941092  0.18928800691931255  0.6809449809867019  1.0000
  C   C2        1.0  0.7914212330806832  0.8107097666261112  0.3190556916280159  1.0000
  C   C3        1.0  0.2164368489641859  0.03416158043395259  0.6376613586970024  1.0000
  C   C4        1.0  0.783569944606775  0.9658374247094554  0.3623373057487101  1.0000
  C   C5        1.0  0.2688411245977065  0.0014816126306129997  0.4826953069430289  1.0000
  C   C6        1.0  0.7311660758685504  0.9985161922981121  0.5173076389833754  1.0000
  C   C7        1.0  0.3171476519092167  0.1227505734600243  0.3685517523182327  1.0000
  C   C8        1.0  0.6828552558052084  0.877247187254312  0.6314493762116343  1.0000
  C   C9        1.0  0.30958412817263786  0.2781921694240168  0.4125656594150727  1.0000
  C   C10       1.0  0.690415601018337  0.7218067696569221  0.5874342228924123  1.0000
  C   C11       1.0  0.2561309193111255  0.31006971815069306  0.5673035187721638  1.0000
  C   C12       1.0  0.7438734932758778  0.6899328957831512  0.43269443600063096  1.0000
  S   S1        1.0  0.13658292760805327  0.2339240621619894  0.8770770089925011  1.0000
  S   S2        1.0  0.8634147823910614  0.7660772816806157  0.12292432169475376  1.0000
  S   S3        1.0  0.3697253545970227  0.4288199542920521  0.26605396526953473  1.0000
  S   S4        1.0  0.6302704210825993  0.5711777346386812  0.7339451959800982  1.0000
  O   O1        1.0  0.246632925460986  0.10465140591461618  0.9476726482114587  1.0000
  O   O2        1.0  0.7533645129524376  0.8953511495849253  0.05233077127910944  1.0000
  O   O3        1.0  0.399667063965893  0.8187155298945112  0.11915724728235234  1.0000
  O   O4        1.0  0.6003312794110017  0.18128339826237996  0.8808441526542836  1.0000
  O   O5        1.0  0.18230972564654024  0.39139145827964933  0.8756713554024528  1.0000
  O   O6        1.0  0.8176921192431976  0.6086099164280441  0.12432436068333887  1.0000
  O   O7        1.0  0.9273512129231632  0.24086471199173326  0.9491377058766378  1.0000
  O   O8        1.0  0.07264450673619655  0.7591438712798322  0.05085917020647205  1.0000
  O   O9        1.0  0.17398680112961531  0.9186126694090929  0.7521548143175849  1.0000
  O   O10       1.0  0.8260137030492486  0.08138869818863978  0.24784454282536242  1.0000
  O   O11       1.0  0.34868374028508964  0.5772954464164212  0.34166047668125543  1.0000
  O   O12       1.0  0.6513074034022068  0.4227034042357403  0.6583357708331478  1.0000
  O   O13       1.0  0.2386993449701436  0.4446438344194945  0.18229369125575093  1.0000
  O   O14       1.0  0.7612963116509736  0.5553490122157781  0.8177071261218033  1.0000
  O   O15       1.0  0.5735250222984121  0.3650310013313387  0.16642313666628886  1.0000
  O   O16       1.0  0.42647114402541336  0.6349703182379257  0.8335722796521167  1.0000
  O   O17       1.0  0.374987061447662  0.09745148283698059  0.21733405640607378  1.0000
  O   O18       1.0  0.6250158011635492  0.9025462740632689  0.7826649486957892  1.0000
