data_image0
_chemical_formula_structural       K2Sr2Tb2H12C32N4O26
_chemical_formula_sum              "K2 Sr2 Tb2 H12 C32 N4 O26"
_cell_length_a       8.023676495159485
_cell_length_b       10.851900557929573
_cell_length_c       12.069223640041464
_cell_angle_alpha    75.38996432001737
_cell_angle_beta     71.19384050821624
_cell_angle_gamma    74.7355917941902

_space_group_name_H-M_alt    "P 1"
_space_group_IT_number       1

loop_
  _space_group_symop_operation_xyz
  'x, y, z'

loop_
  _atom_site_type_symbol
  _atom_site_label
  _atom_site_symmetry_multiplicity
  _atom_site_fract_x
  _atom_site_fract_y
  _atom_site_fract_z
  _atom_site_occupancy
  K   K1        1.0  0.2705345554542049  0.5895876828437636  0.40579437232562315  1.0000
  K   K2        1.0  0.7294596854241321  0.41042282802754926  0.5942090394891439  1.0000
  Sr  Sr1       1.0  0.07457783853725893  0.8948589488028347  0.15394882439220228  1.0000
  Sr  Sr2       1.0  0.9254233546034244  0.10514091153996218  0.8460513294119708  1.0000
  Tb  Tb1       1.0  0.18753149769425898  0.25994909169346414  0.2812881407451755  1.0000
  Tb  Tb2       1.0  0.8124673403381025  0.7400497822309686  0.7187135663867467  1.0000
  H   H1        1.0  0.440201637641657  0.861471279567219  0.9598761757318287  1.0000
  H   H2        1.0  0.5597971991287524  0.13852759870457723  0.04012470213915262  1.0000
  H   H3        1.0  0.39408486332121856  0.996054539109046  0.993957150464567  1.0000
  H   H4        1.0  0.6059192365562821  0.003944351350533297  0.006044253697759058  1.0000
  H   H5        1.0  0.18073261800351048  0.3290914366240827  0.8118557650093622  1.0000
  H   H6        1.0  0.8192678090959832  0.670906470891225  0.18814581701646915  1.0000
  H   H7        1.0  0.28925689029297535  0.6599442043843594  0.8978297594291079  1.0000
  H   H8        1.0  0.7107432603612907  0.34005468345542766  0.10217000612330915  1.0000
  H   H9        1.0  0.4253492985490652  0.18801239149246377  0.6807622001030111  1.0000
  H   H10       1.0  0.574653978302493  0.8119894182037298  0.31923790094374743  1.0000
  H   H11       1.0  0.839030624082085  0.045561968669332494  0.3837036017346663  1.0000
  H   H12       1.0  0.1609716064972205  0.9544388815659486  0.6162936232775209  1.0000
  C   C1        1.0  0.13747021277087157  0.18629005191406378  0.04377871673003143  1.0000
  C   C2        1.0  0.8625273101156882  0.8137088167897346  0.9562232734595216  1.0000
  C   C3        1.0  0.2592545325780265  0.5485931623772654  0.13705355514247228  1.0000
  C   C4        1.0  0.740745068971627  0.4514076730693829  0.8629450652459171  1.0000
  C   C5        1.0  0.15944164720378504  0.273287302606839  0.5596998492233213  1.0000
  C   C6        1.0  0.8405608598207477  0.7267125673039628  0.4402991922622804  1.0000
  C   C7        1.0  0.6201690966648241  0.12028051929594599  0.2307345663609369  1.0000
  C   C8        1.0  0.37982973884363963  0.8797183633232135  0.7692654822491108  1.0000
  C   C9        1.0  0.18865642287482848  0.31680722565518943  0.991794753265232  1.0000
  C   C10       1.0  0.8113421399742508  0.6831926242463523  0.008205966654209383  1.0000
  C   C11       1.0  0.25019424279459207  0.4929882661227935  0.0363143434502434  1.0000
  C   C12       1.0  0.749806950346084  0.5070115942200032  0.9636858103539298  1.0000
  C   C13       1.0  0.35650818849125443  0.21526559320129474  0.5162007608162327  1.0000
  C   C14       1.0  0.6434945924546157  0.7847333050797544  0.48379843862091587  1.0000
  C   C15       1.0  0.5786683088149545  0.14046414912078828  0.35640005497860733  1.0000
  C   C16       1.0  0.421332886849612  0.8595357025272817  0.6436017573474402  1.0000
  C   C17       1.0  0.20346564846409626  0.37701383775679886  0.873559381707125  1.0000
  C   C18       1.0  0.7965334622276573  0.6229840688852447  0.12644165411539632  1.0000
  C   C19       1.0  0.26410380855290333  0.5616140648546802  0.9202345549467169  1.0000
  C   C20       1.0  0.735895028217513  0.4383848134171086  0.07976632292426449  1.0000
  C   C21       1.0  0.4731815126905303  0.17436398059316363  0.5884507009248878  1.0000
  C   C22       1.0  0.5268207216746107  0.8256368566000203  0.4115490118701075  1.0000
  C   C23       1.0  0.7026873202469089  0.09391441319180416  0.422690809444191  1.0000
  C   C24       1.0  0.2973159578665872  0.9060873921570192  0.5773101208635013  1.0000
  C   C25       1.0  0.24203232538317837  0.502047637373799  0.8367866735181623  1.0000
  C   C26       1.0  0.7579667840466228  0.497950273615615  0.16321353304342526  1.0000
  C   C27       1.0  0.6493752348316733  0.11221399658762007  0.5405102834412504  1.0000
  C   C28       1.0  0.35062409532053374  0.8877878017940473  0.4594898375174666  1.0000
  C   C29       1.0  0.24718364760947517  0.57043228253697  0.7104972508415984  1.0000
  C   C30       1.0  0.7528143648730464  0.42956951931879667  0.2895014946528748  1.0000
  C   C31       1.0  0.7803299553797489  0.05959968786569187  0.6142547283296054  1.0000
  C   C32       1.0  0.21966909580334718  0.9404030995351886  0.38574191763382265  1.0000
  N   N1        1.0  0.21495381223754617  0.37284233256558946  0.07028655111904676  1.0000
  N   N2        1.0  0.7850460644953897  0.6271575269039431  0.9297130564818235  1.0000
  N   N3        1.0  0.41010440492298983  0.20096999603769913  0.4020326788709383  1.0000
  N   N4        1.0  0.5898991458498983  0.799030842028749  0.5979675801273601  1.0000
  O   O1        1.0  0.14533395558386533  0.13755456909677827  0.1504584759991232  1.0000
  O   O2        1.0  0.8546659236729611  0.8624452816780205  0.8495427901236142  1.0000
  O   O3        1.0  0.26056833058070344  0.46693397407285164  0.234965637598485  1.0000
  O   O4        1.0  0.7394251911456423  0.5330697466857969  0.7650352996876678  1.0000
  O   O5        1.0  0.07874879380219818  0.322866353059446  0.4779899772198918  1.0000
  O   O6        1.0  0.9212511336057643  0.6771286560828145  0.5220082154135213  1.0000
  O   O7        1.0  0.4915149701853353  0.17172466549594392  0.1805293829984222  1.0000
  O   O8        1.0  0.5084836458626683  0.8282703253835918  0.8194715804754367  1.0000
  O   O9        1.0  0.890930780090443  0.34111730247834515  0.3008762532800305  1.0000
  O   O10       1.0  0.10906514994314889  0.6588825456766684  0.6991233742327979  1.0000
  O   O11       1.0  0.1397636538073286  0.0584558653030101  0.3884545171353082  1.0000
  O   O12       1.0  0.860233318712666  0.9415449553550204  0.6115454986292833  1.0000
  O   O13       1.0  0.09192721054493093  0.13024497453842088  0.9813969855735394  1.0000
  O   O14       1.0  0.9080703136035737  0.8697538898180066  0.0186058338769471  1.0000
  O   O15       1.0  0.4009021121437898  0.904287341851642  0.030954138029073906  1.0000
  O   O16       1.0  0.5990993561801689  0.09571154251403868  0.9690470029875797  1.0000
  O   O17       1.0  0.2601310170965689  0.6670695601056805  0.12102722535369997  1.0000
  O   O18       1.0  0.7398696256775567  0.3329322521913482  0.8789709540255117  1.0000
  O   O19       1.0  0.9109785947383882  0.7323964218553626  0.32988640070280445  1.0000
  O   O20       1.0  0.08902500797147894  0.26759956153644265  0.6701132725889778  1.0000
  O   O21       1.0  0.19906096566564468  0.8657815227651111  0.3287419325256807  1.0000
  O   O22       1.0  0.8009465799577314  0.1342144849833105  0.671255233071328  1.0000
  O   O23       1.0  0.7696902070851265  0.0563805030859967  0.18413644221413247  1.0000
  O   O24       1.0  0.23030993978330383  0.9436183977958946  0.8158608355554691  1.0000
  O   O25       1.0  0.3788748545296842  0.5356419164365673  0.6273638463649648  1.0000
  O   O26       1.0  0.6211226658329848  0.4643569609619647  0.3726364853027136  1.0000
