data_image0
_chemical_formula_structural       Al2H9C24S6N3O12
_chemical_formula_sum              "Al2 H9 C24 S6 N3 O12"
_cell_length_a       4.014337157772567
_cell_length_b       20.09288223445666
_cell_length_c       20.08891088220881
_cell_angle_alpha    120.00652059098711
_cell_angle_beta     90.00331112895175
_cell_angle_gamma    89.99186351832567

_space_group_name_H-M_alt    "P 1"
_space_group_IT_number       1

loop_
  _space_group_symop_operation_xyz
  'x, y, z'

loop_
  _atom_site_type_symbol
  _atom_site_label
  _atom_site_symmetry_multiplicity
  _atom_site_fract_x
  _atom_site_fract_y
  _atom_site_fract_z
  _atom_site_occupancy
  Al  Al1       1.0  0.08163190045925009  0.500013037646127  0.5000281884977299  1.0000
  Al  Al2       1.0  0.9961470858654309  0.1666621857083753  0.8333176150814978  1.0000
  H   H1        1.0  0.7740306870280166  0.18952169592809312  0.6294219965827922  1.0000
  H   H2        1.0  0.7740740165061482  0.9399287676147737  0.8104794116608007  1.0000
  H   H3        1.0  0.7739334180835656  0.37054689558157605  0.060077108671542576  1.0000
  H   H4        1.0  0.2367996455900823  0.5158728639053507  0.768362531682584  1.0000
  H   H5        1.0  0.22802330562138454  0.5246498183943941  0.6868955532436233  1.0000
  H   H6        1.0  0.2370577571597252  0.7524486500648635  0.48410853498734246  1.0000
  H   H7        1.0  0.2280782046699201  0.662219477153144  0.47532749257851503  1.0000
  H   H8        1.0  0.2370604521610886  0.2316596967857834  0.24752766989884387  1.0000
  H   H9        1.0  0.22816935549113987  0.31311769793452277  0.3377910663408913  1.0000
  C   C1        1.0  0.5796291722625497  0.441402342602693  0.38219510766806053  1.0000
  C   C2        1.0  0.5796537261492817  0.44079263851608613  0.5586325802866696  1.0000
  C   C3        1.0  0.5795630554172462  0.617838849668388  0.5592512267479606  1.0000
  C   C4        1.0  0.49789295603165573  0.22773965563216322  0.7762629124890098  1.0000
  C   C5        1.0  0.49803880716729754  0.04853712382032417  0.7722239828082423  1.0000
  C   C6        1.0  0.49795390574327303  0.2237125806480975  0.951439231145649  1.0000
  C   C7        1.0  0.4009660307965035  0.422468598472001  0.6692234791267567  1.0000
  C   C8        1.0  0.6500231644952876  0.24481446413621183  0.6619149651034988  1.0000
  C   C9        1.0  0.5531106984720253  0.396995444769317  0.5975446539028156  1.0000
  C   C10       1.0  0.5075537704757949  0.27010175556843313  0.7329401477898686  1.0000
  C   C11       1.0  0.6215154964224681  0.30116196335305295  0.6392651683094357  1.0000
  C   C12       1.0  0.4513772943523549  0.36735283045319284  0.6930207358486912  1.0000
  C   C13       1.0  0.40103385612383136  0.746742666538502  0.5775290763921745  1.0000
  C   C14       1.0  0.6501628871010183  0.9171184537463118  0.7551680184333309  1.0000
  C   C15       1.0  0.5530939366480112  0.7005543413369324  0.6030184593385429  1.0000
  C   C16       1.0  0.5076812643455995  0.9628455414416661  0.729884129233632  1.0000
  C   C17       1.0  0.6215845496891531  0.8381098581189476  0.6988287177896384  1.0000
  C   C18       1.0  0.4515010035922415  0.8256726652716325  0.6326312555722924  1.0000
  C   C19       1.0  0.4009593413575416  0.33078933214278544  0.2532550608265467  1.0000
  C   C20       1.0  0.6500522067889777  0.33806394971534093  0.08288853572550185  1.0000
  C   C21       1.0  0.553103898891095  0.4024695244800043  0.2994593683441523  1.0000
  C   C22       1.0  0.5075951811446869  0.2670448878142295  0.03715292380273643  1.0000
  C   C23       1.0  0.6214403799137925  0.3607290028901105  0.1618953862235203  1.0000
  C   C24       1.0  0.451458345691968  0.3069718081351596  0.17432862875764954  1.0000
  S   S1        1.0  0.7430840155807276  0.30711387138720164  0.5603051013584307  1.0000
  S   S2        1.0  0.3338270971490616  0.36115566632513907  0.7724074254636123  1.0000
  S   S3        1.0  0.7430577320834431  0.7532185642118776  0.6929113376598864  1.0000
  S   S4        1.0  0.3340182180206241  0.9112348223580612  0.6387925345310352  1.0000
  S   S5        1.0  0.74296944220265  0.43968915851245066  0.24678052103067213  1.0000
  S   S6        1.0  0.3339499456355739  0.22758748214975807  0.08876644330020163  1.0000
  N   N1        1.0  0.22903327614795896  0.4899024204032473  0.710291624376339  1.0000
  N   N2        1.0  0.22913390548221457  0.7203798004461817  0.5100757683840699  1.0000
  N   N3        1.0  0.229157723298691  0.2897205306892445  0.2796199683190821  1.0000
  O   O1        1.0  0.8208438041417877  0.5850674496924881  0.573776306828002  1.0000
  O   O2        1.0  0.8208966892602305  0.4886992732749959  0.4149663983140002  1.0000
  O   O3        1.0  0.8209435139590936  0.42627173573257676  0.5113387748386559  1.0000
  O   O4        1.0  0.356103800486558  0.5819219102067023  0.5067830174048354  1.0000
  O   O5        1.0  0.3562404416030986  0.4932718139291125  0.5752002738308946  1.0000
  O   O6        1.0  0.3562291598148093  0.4248506151049156  0.4181102773245017  1.0000
  O   O7        1.0  0.730577881326539  0.17544800216529657  0.9166252001505057  1.0000
  O   O8        1.0  0.7305576629777448  0.2411854019588516  0.8245255518757092  1.0000
  O   O9        1.0  0.7305614725754735  0.08335081432718275  0.7587869620424925  1.0000
  O   O10       1.0  0.2590228701220454  0.23828448761343418  0.9190102244026904  1.0000
  O   O11       1.0  0.2590661824233891  0.08096512826739395  0.8192435757997175  1.0000
  O   O12       1.0  0.2590083004178254  0.1807302704836928  0.7616845029495495  1.0000
