data_image0
_chemical_formula_structural       Cs4H32C56N4O16
_chemical_formula_sum              "Cs4 H32 C56 N4 O16"
_cell_length_a       5.041567334837057
_cell_length_b       15.630091140801348
_cell_length_c       16.5327827856701
_cell_angle_alpha    101.48912820364654
_cell_angle_beta     89.97031123425238
_cell_angle_gamma    99.31118007290816

_space_group_name_H-M_alt    "P 1"
_space_group_IT_number       1

loop_
  _space_group_symop_operation_xyz
  'x, y, z'

loop_
  _atom_site_type_symbol
  _atom_site_label
  _atom_site_symmetry_multiplicity
  _atom_site_fract_x
  _atom_site_fract_y
  _atom_site_fract_z
  _atom_site_occupancy
  Cs  Cs1       1.0  0.9999902194426155  2.567576309800153e-06  0.4999964410375313  1.0000
  Cs  Cs2       1.0  0.9999997334457404  2.2618335008999938e-06  3.747965208999761e-07  1.0000
  Cs  Cs3       1.0  0.19499123193003232  0.9999213735166492  0.7499975102543106  1.0000
  Cs  Cs4       1.0  0.8050098766632912  8.144312926819997e-05  0.24999592864727296  1.0000
  H   H1        1.0  0.809129430154904  0.5287134940066238  0.48375541869100397  1.0000
  H   H2        1.0  0.2822871448054939  0.47095519473349867  0.01576093103216178  1.0000
  H   H3        1.0  0.19086936152063314  0.4712965940541238  0.5162472599093704  1.0000
  H   H4        1.0  0.7176461628581521  0.5290350294878935  0.9842392025331179  1.0000
  H   H5        1.0  0.42717335317646377  0.4688256062726807  0.382235997993007  1.0000
  H   H6        1.0  0.9607496354073886  0.5311192069291621  0.11732761161128737  1.0000
  H   H7        1.0  0.5728264314409088  0.5311824990352039  0.6177638857934866  1.0000
  H   H8        1.0  0.039180352053911315  0.4688643926841253  0.8826755023091053  1.0000
  H   H9        1.0  0.3695550996418503  0.5420983327449491  0.26429272731213155  1.0000
  H   H10       1.0  0.8288076714659238  0.4579533008048813  0.23532888700709978  1.0000
  H   H11       1.0  0.6304519613135112  0.4579124207741642  0.7357076571648662  1.0000
  H   H12       1.0  0.17117686192952414  0.5420362519361602  0.7646820029257597  1.0000
  H   H13       1.0  0.5308593923884215  0.6596554773832749  0.18519830113739028  1.0000
  H   H14       1.0  0.8723022514914974  0.3406806721452824  0.3146789255190754  1.0000
  H   H15       1.0  0.4691546035280679  0.34034535148038  0.8147971799435896  1.0000
  H   H16       1.0  0.12770014427899656  0.6593128578249574  0.6853290866813779  1.0000
  H   H17       1.0  0.8571698066356603  0.7921451250374786  0.1713026273521621  1.0000
  H   H18       1.0  0.06599467152415878  0.20834289673528864  0.3288857922462399  1.0000
  H   H19       1.0  0.14284419283543304  0.20785570676849122  0.8286904348484825  1.0000
  H   H20       1.0  0.9340116910458034  0.791646665665027  0.6711184443588252  1.0000
  H   H21       1.0  0.2408767743861944  0.8491091636572037  0.2722594598886232  1.0000
  H   H22       1.0  0.3929492874819331  0.15122888301149115  0.2280126828942457  1.0000
  H   H23       1.0  0.7591319419433018  0.15089696314585407  0.7277346049719924  1.0000
  H   H24       1.0  0.6070372508229196  0.8487606875259742  0.7719836936287265  1.0000
  H   H25       1.0  0.7688758177964202  0.8034787761378581  0.5115335939635699  1.0000
  H   H26       1.0  0.9672547420937075  0.1964546686564219  0.9884838366526836  1.0000
  H   H27       1.0  0.23112761842147478  0.19653661572402834  0.4884634347363744  1.0000
  H   H28       1.0  0.03272584352801997  0.8035428349567014  0.011521905093431439  1.0000
  H   H29       1.0  0.5897634807647874  0.7372140505409062  0.5758165419000747  1.0000
  H   H30       1.0  0.8544347196884771  0.2625581992601198  0.9241024426584374  1.0000
  H   H31       1.0  0.41027102515757  0.2627960481768739  0.4241794824772072  1.0000
  H   H32       1.0  0.14556239790827868  0.7374366622656866  0.07589916854189482  1.0000
  C   C1        1.0  0.19175194004361618  0.6694249753759037  0.48477298698085036  1.0000
  C   C2        1.0  0.5240269460294228  0.330306486764023  0.014994460635584482  1.0000
  C   C3        1.0  0.8082699927053199  0.3305837912390572  0.5152288348275604  1.0000
  C   C4        1.0  0.47594174218096436  0.6696870518167657  0.9850044829379103  1.0000
  C   C5        1.0  0.9697820874840486  0.6339825979452769  0.4230793915572661  1.0000
  C   C6        1.0  0.33712439797314175  0.36578015749626747  0.07659157205104349  1.0000
  C   C7        1.0  0.030237202441377068  0.36602484757765547  0.5769197609616157  1.0000
  C   C8        1.0  0.6628624667620358  0.634214038428631  0.9234123334005702  1.0000
  C   C9        1.0  0.9432406387079765  0.6756669611088881  0.355521419917828  1.0000
  C   C10       1.0  0.2686169871694801  0.32421268632000283  0.1442262696900372  1.0000
  C   C11       1.0  0.05678030392562754  0.3243358554912489  0.6444732271449283  1.0000
  C   C12       1.0  0.7313907040232053  0.675783493925671  0.8557804291685613  1.0000
  C   C13       1.0  0.13018422233731997  0.7507601589024802  0.3456025073168405  1.0000
  C   C14       1.0  0.3805830916040946  0.2492529793711142  0.1543437433783836  1.0000
  C   C15       1.0  0.8698337437726947  0.2492446403079853  0.6543949346876872  1.0000
  C   C16       1.0  0.6194097256536535  0.7507412184525535  0.8456589522493658  1.0000
  C   C17       1.0  0.3542689139994548  0.7868740313761079  0.4064346461606121  1.0000
  C   C18       1.0  0.5689125510968153  0.21312091114536708  0.0936181009537052  1.0000
  C   C19       1.0  0.6457480627233422  0.21313275352953545  0.593563171777454  1.0000
  C   C20       1.0  0.43107002218587803  0.7868726284331871  0.9063808417244914  1.0000
  C   C21       1.0  0.7846827806871417  0.5606230034775451  0.4320954647887731  1.0000
  C   C22       1.0  0.22576336572428343  0.43913379873393416  0.06749408872946822  1.0000
  C   C23       1.0  0.21534246567951945  0.4393884147414653  0.5679038343655166  1.0000
  C   C24       1.0  0.7742046534691838  0.5608584108059915  0.9325088373475054  1.0000
  C   C25       1.0  0.5687346076521109  0.5270261969002448  0.3745813594214624  1.0000
  C   C26       1.0  0.043415194472551384  0.4728265168689916  0.1249824449334014  1.0000
  C   C27       1.0  0.43127145999736166  0.47298257151673084  0.625418044529809  1.0000
  C   C28       1.0  0.956549181482309  0.5271623805921379  0.87502166908898  1.0000
  C   C29       1.0  0.5373113375019543  0.5673779952937537  0.3087554767991705  1.0000
  C   C30       1.0  0.9712348277014513  0.4325787232451149  0.1908602441960738  1.0000
  C   C31       1.0  0.4627076210252952  0.43262878828326734  0.691243550451162  1.0000
  C   C32       1.0  0.02875038129553075  0.5674161315408455  0.809146205532322  1.0000
  C   C33       1.0  0.7230597780620799  0.6421482668763546  0.29722341123485313  1.0000
  C   C34       1.0  0.08189112570070017  0.3578233836294302  0.2024821305050182  1.0000
  C   C35       1.0  0.2769595141652487  0.3578552129983095  0.7027701517841862  1.0000
  C   C36       1.0  0.918120863165022  0.6421734581116424  0.7975252980864127  1.0000
  C   C37       1.0  0.6967425144707704  0.6850459757802483  0.23041768494726256  1.0000
  C   C38       1.0  0.012639851056768207  0.3151417345700552  0.2694517431505545  1.0000
  C   C39       1.0  0.30327544683193247  0.3149548518973192  0.7695790053180787  1.0000
  C   C40       1.0  0.9873642004519139  0.6848511365391374  0.7305537247731309  1.0000
  C   C41       1.0  0.8803466577347617  0.7585303858407143  0.22211791763513838  1.0000
  C   C42       1.0  0.12284930667348698  0.2417808074444352  0.2779394488995166  1.0000
  C   C43       1.0  0.11967594063703048  0.24147177189836813  0.7778741851508357  1.0000
  C   C44       1.0  0.8771573921019638  0.7582133884346831  0.722065664713277  1.0000
  C   C45       1.0  0.09725172106838184  0.7912465853156547  0.2795010052878411  1.0000
  C   C46       1.0  0.3070525510072315  0.2089606602004963  0.2205961494306408  1.0000
  C   C47       1.0  0.9027725271850853  0.2087588762683268  0.7204965616015357  1.0000
  C   C48       1.0  0.6929415897018811  0.7910322160806372  0.7794044813718628  1.0000
  C   C49       1.0  0.5723978512351379  0.7855983932799049  0.5372818201702216  1.0000
  C   C50       1.0  0.7886277662919241  0.21420159743296097  0.9626821766323275  1.0000
  C   C51       1.0  0.4276168162036881  0.21441170180577276  0.4627160196463009  1.0000
  C   C52       1.0  0.21136009796969546  0.7857945887431299  0.037318476304435015  1.0000
  C   C53       1.0  0.4843095864672406  0.8685195994849835  0.5916727990396851  1.0000
  C   C54       1.0  0.617950114571009  0.13119098205234536  0.9082854058218146  1.0000
  C   C55       1.0  0.5157030902806099  0.1314904895735225  0.4083298786653984  1.0000
  C   C56       1.0  0.3820598974581202  0.8688018975758213  0.09171340979725778  1.0000
  N   N1        1.0  0.3744337520175235  0.7428214685051557  0.4714054710377055  1.0000
  N   N2        1.0  0.6330848951508796  0.2569757954882945  0.02849379450929489  1.0000
  N   N3        1.0  0.6255769447031695  0.2571886233531302  0.5285947879149404  1.0000
  N   N4        1.0  0.3668927224697213  0.7430197302359361  0.9715049196381571  1.0000
  O   O1        1.0  0.21936145952280817  0.63721378903854  0.5462293538994203  1.0000
  O   O2        1.0  0.5843523146716549  0.36245708803937754  0.9535123801967772  1.0000
  O   O3        1.0  0.7806465991816933  0.362798953260601  0.45376898750288325  1.0000
  O   O4        1.0  0.41561041923884545  0.6375364471714846  0.0464889826407386  1.0000
  O   O5        1.0  0.5192470739106553  0.8541104298092178  0.40249118362851277  1.0000
  O   O6        1.0  0.6671502815561183  0.1460871581936445  0.0978122394834955  1.0000
  O   O7        1.0  0.48074775326733027  0.14589966017318548  0.5975096810674074  1.0000
  O   O8        1.0  0.33282997941259396  0.853905721503196  0.902184763893807  1.0000
  O   O9        1.0  0.6615502398089034  0.9182606205385255  0.6418469952247676  1.0000
  O   O10       1.0  0.7457685083212056  0.08165006859383082  0.8580188121000276  1.0000
  O   O11       1.0  0.33846341885289627  0.08174350908517883  0.3581563689678404  1.0000
  O   O12       1.0  0.254261998767255  0.9183441334092065  0.14198267165748035  1.0000
  O   O13       1.0  0.24345866803676583  0.8791000732648583  0.5824717391777624  1.0000
  O   O14       1.0  0.36652351713757264  0.12033736120158518  0.91759054368503  1.0000
  O   O15       1.0  0.7565513623329636  0.12090869175929701  0.4175306881181271  1.0000
  O   O16       1.0  0.6334802177159701  0.8796508926115365  0.08240074338909409  1.0000
