data_image0
_chemical_formula_structural       V8Zn2H8C8N4O20
_chemical_formula_sum              "V8 Zn2 H8 C8 N4 O20"
_cell_length_a       6.966797458822798
_cell_length_b       7.9890929489909235
_cell_length_c       11.56251115802998
_cell_angle_alpha    89.99976740996608
_cell_angle_beta     90.00020325869741
_cell_angle_gamma    115.8573509230788

_space_group_name_H-M_alt    "P 1"
_space_group_IT_number       1

loop_
  _space_group_symop_operation_xyz
  'x, y, z'

loop_
  _atom_site_type_symbol
  _atom_site_label
  _atom_site_symmetry_multiplicity
  _atom_site_fract_x
  _atom_site_fract_y
  _atom_site_fract_z
  _atom_site_occupancy
  V   V1        1.0  0.42381100119496296  0.5760805758092999  0.39581938006663353  1.0000
  V   V2        1.0  0.15238256879279533  0.5761060667128532  0.6041587816147143  1.0000
  V   V3        1.0  0.8476341241656654  0.4239049448568366  0.10416108066389282  1.0000
  V   V4        1.0  0.5761890032306808  0.4239165823644555  0.895826189564879  1.0000
  V   V5        1.0  0.5761906953283644  0.42391307668917483  0.6041784710163115  1.0000
  V   V6        1.0  0.8476184321579439  0.4238861948231829  0.3958373397413554  1.0000
  V   V7        1.0  0.15237226419919386  0.576109571774694  0.8958367703951565  1.0000
  V   V8        1.0  0.42381386300536417  0.5760937612712668  0.10417425608829231  1.0000
  Zn  Zn1       1.0  0.6777972817907952  6.093453627900002e-06  0.2500009134884635  1.0000
  Zn  Zn2       1.0  0.3222007154605607  0.9999945134153735  0.7500003970370273  1.0000
  H   H1        1.0  0.9923908871913059  9.035985033990002e-05  0.0728303925753266  1.0000
  H   H2        1.0  0.007607154346231942  0.9999074651765839  0.9271709179540581  1.0000
  H   H3        1.0  0.9923857863521306  8.954915865190003e-05  0.4271746992716601  1.0000
  H   H4        1.0  0.007607948908507618  0.9999082755981378  0.5728257463891069  1.0000
  H   H5        1.0  0.3589830752370915  2.6982124980000504e-07  0.0695769640687871  1.0000
  H   H6        1.0  0.6410142707341181  0.999996164235327  0.9304260761898464  1.0000
  H   H7        1.0  0.3589808127324048  2.2262700625000012e-06  0.430429372592002  1.0000
  H   H8        1.0  0.6410136623870174  0.9999942076070882  0.5695728027995486  1.0000
  C   C1        1.0  0.0784233065719846  9.362955184860001e-05  0.1508366946419031  1.0000
  C   C2        1.0  0.9215740393960845  0.9999028045086863  0.8491646158886681  1.0000
  C   C3        1.0  0.0784222298396742  9.31759166036e-05  0.3491647194678436  1.0000
  C   C4        1.0  0.9215729851338283  0.9999018670868339  0.6508365910623866  1.0000
  C   C5        1.0  0.27782410782700856  6.0848807806000035e-06  0.1500265296653183  1.0000
  C   C6        1.0  0.7221711071464941  0.999988958122657  0.8499747808649117  1.0000
  C   C7        1.0  0.27782011890050745  8.409185959100004e-06  0.3499813637252132  1.0000
  C   C8        1.0  0.7221743562173444  0.9999880246931668  0.6500199468023027  1.0000
  N   N1        1.0  0.980465430086582  0.00010589217699670003  0.2500038304914014  1.0000
  N   N2        1.0  0.019531176024287302  0.9998919327612015  0.7499966151724281  1.0000
  N   N3        1.0  0.37531006613270546  0.9999837126573115  0.2500018010215186  1.0000
  N   N4        1.0  0.624685844411829  1.2721310540100009e-05  0.7500003743715596  1.0000
  O   O1        1.0  0.4025748178543865  0.5459695388700397  0.5694175018765932  1.0000
  O   O2        1.0  0.1434233991409926  0.5457879611536072  0.4305806031769706  1.0000
  O   O3        1.0  0.8565762568685359  0.45419373787522244  0.930579277771514  1.0000
  O   O4        1.0  0.5974487937002664  0.4540499775822724  0.0694165896146615  1.0000
  O   O5        1.0  0.5974177034073591  0.45401437659158733  0.4305803492100537  1.0000
  O   O6        1.0  0.8565803840954233  0.45420986423810933  0.5694198424945114  1.0000
  O   O7        1.0  0.14342591379648437  0.545815214796086  0.0694203030188092  1.0000
  O   O8        1.0  0.4025703363443042  0.5459756672358864  0.9305803965785274  1.0000
  O   O9        1.0  0.5789480868917922  0.7999315609877445  0.38089687144188394  1.0000
  O   O10       1.0  0.22097962960886974  0.7999348242978358  0.6190428547350777  1.0000
  O   O11       1.0  0.7790355489143581  0.2000844646194366  0.1190508166360758  1.0000
  O   O12       1.0  0.42104329529112056  0.20006288305182102  0.8809031053640483  1.0000
  O   O13       1.0  0.4210586114857194  0.2000634827373631  0.6191061688286439  1.0000
  O   O14       1.0  0.7790248049014468  0.2000671739142135  0.3809524017471304  1.0000
  O   O15       1.0  0.2209602287669341  0.7999203148805876  0.8809487641532102  1.0000
  O   O16       1.0  0.5789524823948612  0.7999418964422704  0.11909907001732731  1.0000
  O   O17       1.0  0.36532457202220303  0.49162179403249706  0.24999644027784032  1.0000
  O   O18       1.0  0.12655732451611362  0.4916667637271317  0.7499991627132658  1.0000
  O   O19       1.0  0.8734462815755818  0.508342189032902  0.25000128294261265  1.0000
  O   O20       1.0  0.6346777314966658  0.5083788131185045  0.750000545932089  1.0000
