data_image0
_chemical_formula_structural       Mn2P2H30C40N4O10
_chemical_formula_sum              "Mn2 P2 H30 C40 N4 O10"
_cell_length_a       9.344277440049243
_cell_length_b       10.219139030320251
_cell_length_c       10.715215994437527
_cell_angle_alpha    74.95161964803208
_cell_angle_beta     69.2471824581883
_cell_angle_gamma    84.05287150607072

_space_group_name_H-M_alt    "P 1"
_space_group_IT_number       1

loop_
  _space_group_symop_operation_xyz
  'x, y, z'

loop_
  _atom_site_type_symbol
  _atom_site_label
  _atom_site_symmetry_multiplicity
  _atom_site_fract_x
  _atom_site_fract_y
  _atom_site_fract_z
  _atom_site_occupancy
  Mn  Mn1       1.0  0.5860492118332488  0.1267994382445892  0.13954204874833911  1.0000
  Mn  Mn2       1.0  0.41395307337718623  0.8732041346811883  0.8604665457187298  1.0000
  P   P1        1.0  0.2809245606786419  0.11514949580772081  0.04107132162459238  1.0000
  P   P2        1.0  0.719078966708892  0.8848490263277284  0.9589222711807395  1.0000
  H   H1        1.0  0.15513604764825573  0.9170418203842203  0.166502794687645  1.0000
  H   H2        1.0  0.8448685155677966  0.0829627753513051  0.8334983120224138  1.0000
  H   H3        1.0  0.21424205911154104  0.3132370323712906  0.8959217034597274  1.0000
  H   H4        1.0  0.7857613806089317  0.6867665524654782  0.10407533298994308  1.0000
  H   H5        1.0  0.056146352706676304  0.20432941135972985  0.9918055830850249  1.0000
  H   H6        1.0  0.9438582481038934  0.7956731618363619  0.008191345001876028  1.0000
  H   H7        1.0  0.9450810904173184  0.191601243018404  0.2606052095600474  1.0000
  H   H8        1.0  0.05492468564649762  0.8083993026086205  0.7393946563224533  1.0000
  H   H9        1.0  0.8557469964036815  0.3385164222391808  0.4260502678717585  1.0000
  H   H10       1.0  0.14425542823148163  0.6614790495174531  0.573953750486183  1.0000
  H   H11       1.0  0.9564652624366587  0.5750494435837653  0.3569980928578218  1.0000
  H   H12       1.0  0.04353022735448062  0.42495006954829506  0.6430089331062162  1.0000
  H   H13       1.0  0.23481341538848008  0.5120640449461221  0.9618247580390998  1.0000
  H   H14       1.0  0.7651820285429524  0.4879385125829785  0.038176864337074776  1.0000
  H   H15       1.0  0.8238720386694355  0.895633102259197  0.2277932110832523  1.0000
  H   H16       1.0  0.17612576587927725  0.10436541029613981  0.7722030822224184  1.0000
  H   H17       1.0  0.9376696785179135  0.8243897358602935  0.4136139171578889  1.0000
  H   H18       1.0  0.062324727899870404  0.1756067463746689  0.5863820587571739  1.0000
  H   H19       1.0  0.8472957729128225  0.9414559181814821  0.6106471206734696  1.0000
  H   H20       1.0  0.1527043863552038  0.058538543470874116  0.38935037961436336  1.0000
  H   H21       1.0  0.4913627118050529  0.3075046755469515  0.7043414876424237  1.0000
  H   H22       1.0  0.5086419240723431  0.6924958725686139  0.29565406298674896  1.0000
  H   H23       1.0  0.6807138831552848  0.1205032859310862  0.7150841278356453  1.0000
  H   H24       1.0  0.31928615843425945  0.8794982685853087  0.2849125912234102  1.0000
  H   H25       1.0  0.32825562908612943  0.4560995583732252  0.5761263708654027  1.0000
  H   H26       1.0  0.6717409943113708  0.5439009758219626  0.42387352069733447  1.0000
  H   H27       1.0  0.240302652600846  0.5100813376212728  0.37211298100002216  1.0000
  H   H28       1.0  0.7596928923182277  0.48991514043108  0.6278891776119906  1.0000
  H   H29       1.0  0.3390589497148114  0.36771440993853594  0.19943658705737013  1.0000
  H   H30       1.0  0.6609433747752719  0.6322871421418698  0.800565961342926  1.0000
  C   C1        1.0  0.1519329983975055  0.2525300882944777  0.9990446144597982  1.0000
  C   C2        1.0  0.8480704747046558  0.747471469767703  0.0009529119757515274  1.0000
  C   C3        1.0  0.0959567438945186  0.3408946397008563  0.09951556864644572  1.0000
  C   C4        1.0  0.9040444228757281  0.6591079274083568  0.900483353229383  1.0000
  C   C5        1.0  0.9885651521364451  0.2941050761790082  0.23119608216741477  1.0000
  C   C6        1.0  0.011434903616247997  0.7058954624089965  0.7688036830500026  1.0000
  C   C7        1.0  0.9386458000980654  0.3771393797126805  0.32393911425422306  1.0000
  C   C8        1.0  0.06135425228436021  0.6228611554872003  0.6760643858504308  1.0000
  C   C9        1.0  0.9941639299518742  0.5085150920658847  0.286343523567986  1.0000
  C   C10       1.0  0.005836154969678403  0.49148341551237706  0.7136614002443551  1.0000
  C   C11       1.0  0.10123640036610485  0.5566360299331022  0.15528952007736763  1.0000
  C   C12       1.0  0.8987658732088732  0.4433685614621651  0.8447132270659168  1.0000
  C   C13       1.0  0.16224752771223191  0.6975751614256609  0.1118810852791938  1.0000
  C   C14       1.0  0.8377501490472028  0.3024304338293433  0.8881256314594027  1.0000
  C   C15       1.0  0.1515861735962218  0.47230869521197155  0.0633656610259052  1.0000
  C   C16       1.0  0.8484126843144183  0.5276948784031744  0.9366374574556318  1.0000
  C   C17       1.0  0.789764789766956  0.9458430372655255  0.3122924549158341  1.0000
  C   C18       1.0  0.21023759069363024  0.0541554805822102  0.6877042924106362  1.0000
  C   C19       1.0  0.8521225051019742  0.9055594794996368  0.41853071299732386  1.0000
  C   C20       1.0  0.1478741875866092  0.0944370036874602  0.5814673573717499  1.0000
  C   C21       1.0  0.8039300067130739  0.9702619427369968  0.5251231674707951  1.0000
  C   C22       1.0  0.1960666859755165  0.029734540450100197  0.4748749028982786  1.0000
  C   C23       1.0  0.6948280596980966  0.0770615991841552  0.5235002436627455  1.0000
  C   C24       1.0  0.3051720144305747  0.9229379277106207  0.47649789910399676  1.0000
  C   C25       1.0  0.639764223776652  0.1114850956388054  0.4114120464965935  1.0000
  C   C26       1.0  0.3602370114421163  0.8885134196152862  0.5885859879073863  1.0000
  C   C27       1.0  0.5296665646635715  0.22017614712115835  0.40477198941253795  1.0000
  C   C28       1.0  0.4703334961445124  0.7798243965490385  0.5952221734740348  1.0000
  C   C29       1.0  0.47771761580639793  0.29195615689178567  0.5101823656558582  1.0000
  C   C30       1.0  0.5222825400913678  0.7080383013724472  0.48981886951921183  1.0000
  C   C31       1.0  0.5342794716618827  0.2536588890282657  0.62249319307427  1.0000
  C   C32       1.0  0.4657194914492281  0.7463386093452941  0.3775057930340678  1.0000
  C   C33       1.0  0.6384980990885226  0.15021490126087403  0.629123850534441  1.0000
  C   C34       1.0  0.36150084564660995  0.8497836088059215  0.370876758024565  1.0000
  C   C35       1.0  0.37101481207117365  0.39857193258341533  0.49732876790992714  1.0000
  C   C36       1.0  0.6289876351527895  0.6014225317151373  0.5026689593883019  1.0000
  C   C37       1.0  0.3221249332233428  0.4283069166382277  0.3853403194973311  1.0000
  C   C38       1.0  0.6778683370603744  0.5716885419925078  0.614665591984462  1.0000
  C   C39       1.0  0.37770247997074347  0.34991266907167784  0.2873337463610639  1.0000
  C   C40       1.0  0.622295221062629  0.6500919204193069  0.7126648118742054  1.0000
  N   N1        1.0  0.6864246336672863  0.0456407922938098  0.3082803576176971  1.0000
  N   N2        1.0  0.3135765347880977  0.954361776509465  0.6917166968145239  1.0000
  N   N3        1.0  0.4784467370679836  0.2487627077382796  0.29682142428531927  1.0000
  N   N4        1.0  0.5215475641493229  0.751239849738262  0.7031786840029497  1.0000
  O   O1        1.0  0.1753663614285301  0.013425690133793501  0.1730897877548188  1.0000
  O   O2        1.0  0.8246404897434589  0.9865789082479351  0.8269115459656362  1.0000
  O   O3        1.0  0.39822808412297667  0.17400670472483173  0.07920682544292397  1.0000
  O   O4        1.0  0.6017696135401349  0.8259978813780292  0.920795467679568  1.0000
  O   O5        1.0  0.3430846323769146  0.050809688212552793  0.918832489155136  1.0000
  O   O6        1.0  0.656917712174284  0.9491908538686856  0.08116656935087013  1.0000
  O   O7        1.0  0.2615574726799466  0.7306887225878356  0.9914802285996559  1.0000
  O   O8        1.0  0.7384390981173256  0.2693148492281452  0.008521729149677441  1.0000
  O   O9        1.0  0.11100008681977869  0.7737793473560332  0.19522286581737802  1.0000
  O   O10       1.0  0.8889942610998034  0.22622016657050645  0.8047817123369471  1.0000
