data_image0
_chemical_formula_structural       Zn4H34C72Br4N20Cl6
_chemical_formula_sum              "Zn4 H34 C72 Br4 N20 Cl6"
_cell_length_a       20.48761407381648
_cell_length_b       19.95092752768882
_cell_length_c       21.37342283429331
_cell_angle_alpha    108.3320241075821
_cell_angle_beta     107.00923879512827
_cell_angle_gamma    110.72740855833305

_space_group_name_H-M_alt    "P 1"
_space_group_IT_number       1

loop_
  _space_group_symop_operation_xyz
  'x, y, z'

loop_
  _atom_site_type_symbol
  _atom_site_label
  _atom_site_symmetry_multiplicity
  _atom_site_fract_x
  _atom_site_fract_y
  _atom_site_fract_z
  _atom_site_occupancy
  Zn  Zn1       1.0  0.6183005153582072  0.6296952562524963  0.5168339569209904  1.0000
  Zn  Zn2       1.0  0.3923156481623948  0.3999626627138397  0.4834105630107359  1.0000
  Zn  Zn3       1.0  0.5056996802064972  0.6019667997857994  0.6143965946761581  1.0000
  Zn  Zn4       1.0  0.5017805930849093  0.4235866154342958  0.3920396904131564  1.0000
  H   H1        1.0  0.7831054983317571  0.7080085687000307  0.6578873241212262  1.0000
  H   H2        1.0  0.08853981154010881  0.6518379094698119  0.47314924074895265  1.0000
  H   H3        1.0  0.4310698235463732  0.28416976599929455  0.5336867420258072  1.0000
  H   H4        1.0  0.9375026675436756  0.5561160585956486  0.3506264958069778  1.0000
  H   H5        1.0  0.966511482198399  0.42415834691538373  0.30950051133805095  1.0000
  H   H6        1.0  0.9027944765822511  0.37112475281008267  0.3972682829686178  1.0000
  H   H7        1.0  0.5084075533430548  0.9898920388265747  0.38344315729891304  1.0000
  H   H8        1.0  0.372903117225988  0.834442607203833  0.29514272773392486  1.0000
  H   H9        1.0  0.30136012556990016  0.8762574517713091  0.4514482148875986  1.0000
  H   H10       1.0  0.43695056905193047  0.032314019029612985  0.5405929051658234  1.0000
  H   H11       1.0  0.4147115928109599  0.595872201617631  0.7896392487470081  1.0000
  H   H12       1.0  0.2711347171435605  0.432496959101158  0.38503384049055  1.0000
  H   H13       1.0  0.5192468123254201  0.5752262069412524  0.751534311188287  1.0000
  H   H14       1.0  0.523193416477234  0.6796964081556282  0.12881750375520803  1.0000
  H   H15       1.0  0.5654371036996508  0.6790883882569717  0.25011987891623017  1.0000
  H   H16       1.0  0.3300544839945942  0.34263513047784505  0.7297038329210253  1.0000
  H   H17       1.0  0.31291758541646425  0.45317962646507226  0.03460582911256439  1.0000
  H   H18       1.0  0.3101340488072779  0.36734505635409676  0.8427648947698287  1.0000
  H   H19       1.0  0.35293013125111367  0.4522875201449494  0.1554289643125699  1.0000
  H   H20       1.0  0.2510317240417095  0.13454010706858807  0.1271062270616881  1.0000
  H   H21       1.0  0.6407573368672315  0.3833145514635915  0.4144677200457564  1.0000
  H   H22       1.0  0.1871940868397601  0.09120309421547289  0.2922246796291219  1.0000
  H   H23       1.0  0.4372183273518003  0.7209195382309089  0.5790352867146779  1.0000
  H   H24       1.0  0.9069756233788124  0.8490258042464517  0.9946693837463343  1.0000
  H   H25       1.0  0.7799892221910978  0.7804193638218563  0.8813192071766095  1.0000
  H   H26       1.0  0.49205774165800154  0.23848867584177208  0.35247002057679566  1.0000
  H   H27       1.0  0.6468757601317279  0.6526973630420301  0.7734557379634025  1.0000
  H   H28       1.0  0.6104092670827085  0.669194350086549  0.358543283510663  1.0000
  H   H29       1.0  0.2336483275033743  0.22606823618286137  0.35829484709032033  1.0000
  H   H30       1.0  0.5192768043627963  0.6826346595920751  0.41313603772566415  1.0000
  H   H31       1.0  0.4030787275030363  0.43466500501336464  0.25632272509216847  1.0000
  H   H32       1.0  0.3342603872323195  0.6136460916310114  0.6012914706398859  1.0000
  H   H33       1.0  0.02485483398876202  0.5991789799154502  0.5614497113680343  1.0000
  H   H34       1.0  0.054176565087530555  0.46669258201451663  0.5201356514412652  1.0000
  C   C1        1.0  0.7381628280171384  0.6911356077897962  0.6758088872858394  1.0000
  C   C2        1.0  0.5070890233312114  0.6867856749087053  0.45977908495292036  1.0000
  C   C3        1.0  0.4581361740557385  0.4910097148853936  0.29124387073490243  1.0000
  C   C4        1.0  0.4487678777504413  0.28630700622935007  0.4908777794149798  1.0000
  C   C5        1.0  0.33143314923798073  0.5696464279595262  0.553628983529812  1.0000
  C   C6        1.0  0.49264605249643967  0.5564288763106615  0.27829099512060645  1.0000
  C   C7        1.0  0.2718330968488728  0.524545817388123  0.4797192585462254  1.0000
  C   C8        1.0  0.4611763596517092  0.7173242785695421  0.482143476432654  1.0000
  C   C9        1.0  0.2744313872126085  0.21146215431753027  0.27004893337481656  1.0000
  C   C10       1.0  0.02731600152425536  0.48662905273520346  0.482797608544942  1.0000
  C   C11       1.0  0.012881698215643651  0.5603927497140118  0.5056570752134347  1.0000
  C   C12       1.0  0.4554216710233162  0.22706533904014486  0.440191327203287  1.0000
  C   C13       1.0  0.8041382977815416  0.5031697498643695  0.45369050254711857  1.0000
  C   C14       1.0  0.1991988411363153  0.5225018280758035  0.4539869308546329  1.0000
  C   C15       1.0  0.9447000149553731  0.4335609163451791  0.414330492309702  1.0000
  C   C16       1.0  0.4723308543547162  0.5197796835488829  0.7020800115400688  1.0000
  C   C17       1.0  0.9278798680738022  0.5069616504360539  0.4375575348660234  1.0000
  C   C18       1.0  0.9792522069156107  0.4629248971635106  0.3656321173210699  1.0000
  C   C19       1.0  0.06393070859839159  0.5161018305488055  0.43414231365725436  1.0000
  C   C20       1.0  0.9639187769641422  0.5363542033923566  0.3884272901421326  1.0000
  C   C21       1.0  0.04690234028059593  0.5895162192687308  0.45670095508040726  1.0000
  C   C22       1.0  0.8598897328108419  0.5036428689248067  0.4435174207057171  1.0000
  C   C23       1.0  0.40287133713773926  0.462223557642197  0.6951847401327811  1.0000
  C   C24       1.0  0.13606740858114114  0.5204994792280644  0.43939008390795214  1.0000
  C   C25       1.0  0.4745337725406813  0.9514394691444181  0.4683074975012148  1.0000
  C   C26       1.0  0.4624116638249305  0.9643932589721018  0.3985424847929408  1.0000
  C   C27       1.0  0.4387612665309887  0.1488625843392484  0.43092289447911  1.0000
  C   C28       1.0  0.6660584576130191  0.4487034649931515  0.44322295319739874  1.0000
  C   C29       1.0  0.42704898039529837  0.7573374400401532  0.45265881203289376  1.0000
  C   C30       1.0  0.42249512427946456  0.9878388604070095  0.4861617130443533  1.0000
  C   C31       1.0  0.41181334706827494  0.004668303832247002  0.4172412890815804  1.0000
  C   C32       1.0  0.3479968056197791  0.9021585002080386  0.4371873800756986  1.0000
  C   C33       1.0  0.3994983372679286  0.8628312153419131  0.41957495169189224  1.0000
  C   C34       1.0  0.7421479632007502  0.5092924282125323  0.46559786026326566  1.0000
  C   C35       1.0  0.3365970123373714  0.9166597792753135  0.3679971602796215  1.0000
  C   C36       1.0  0.38781813460428793  0.878618226054705  0.34994406478748624  1.0000
  C   C37       1.0  0.42274817292717165  0.08017052224391107  0.42108008734133756  1.0000
  C   C38       1.0  0.40357994159244737  0.7972493630393985  0.42940547440662163  1.0000
  C   C39       1.0  0.46392879338346654  0.5637741324144088  0.2111953958781285  1.0000
  C   C40       1.0  0.3672340121415161  0.40278291417284606  0.6209658479652232  1.0000
  C   C41       1.0  0.390867639164476  0.5022633865504672  0.14996180609383455  1.0000
  C   C42       1.0  0.3677233974367268  0.5024380580060919  0.08238630072384008  1.0000
  C   C43       1.0  0.4172563280047186  0.5654048831426622  0.07399399795993847  1.0000
  C   C44       1.0  0.4865228509920173  0.6306757746358188  0.13611387940154887  1.0000
  C   C45       1.0  0.5645226418766356  0.6099844514020559  0.34356831539416527  1.0000
  C   C46       1.0  0.5096666772707719  0.629627208153522  0.20354773012829952  1.0000
  C   C47       1.0  0.3827424813327838  0.5588449522905989  0.8648957367758213  1.0000
  C   C48       1.0  0.39395297891253017  0.5455656635359958  0.801970814922427  1.0000
  C   C49       1.0  0.3562013345578946  0.4947400602008896  0.8824095503309124  1.0000
  C   C50       1.0  0.3788190860585061  0.46876671207652976  0.7538819439983654  1.0000
  C   C51       1.0  0.3445174790043453  0.4032525338042559  0.7669182323559836  1.0000
  C   C52       1.0  0.7412144372790479  0.5815288957649399  0.5014483427519066  1.0000
  C   C53       1.0  0.3329983296041092  0.41662226626623067  0.8296288454210979  1.0000
  C   C54       1.0  0.8167208293412425  0.7185142906584047  0.8086799131579026  1.0000
  C   C55       1.0  0.8272366072308658  0.7682685807916769  0.8785969180677355  1.0000
  C   C56       1.0  0.2990500325942875  0.4776914537584318  0.4424957189828048  1.0000
  C   C57       1.0  0.8973864680100121  0.8065850760322489  0.9416647159202183  1.0000
  C   C58       1.0  0.9611324698921421  0.7969241801925051  0.9379317265537708  1.0000
  C   C59       1.0  0.9497492727144206  0.741408918719223  0.8699633030113246  1.0000
  C   C60       1.0  0.87835262408899  0.7027459545505222  0.8061986378067586  1.0000
  C   C61       1.0  0.16462060302446693  0.014419373089523896  0.09236077968324709  1.0000
  C   C62       1.0  0.21689743742958706  0.0952720660715514  0.14430600281692554  1.0000
  C   C63       1.0  0.11315127708213871  0.9608356194068505  0.10864771120015601  1.0000
  C   C64       1.0  0.47986483563438753  0.263014019476948  0.3980239568474174  1.0000
  C   C65       1.0  0.22438909039433244  0.1259749769846934  0.21630343771691676  1.0000
  C   C66       1.0  0.18000240866470554  0.0715056581309312  0.23589136409934497  1.0000
  C   C67       1.0  0.4654566402908955  0.7065497727507549  0.545076263701226  1.0000
  C   C68       1.0  0.1256845833831831  0.9921058720223921  0.18334135061824944  1.0000
  C   C69       1.0  0.6688712103964888  0.663892686791435  0.7352507366405802  1.0000
  C   C70       1.0  0.7453783626099195  0.6902340021770356  0.7430151460547236  1.0000
  C   C71       1.0  0.3353865551817989  0.2758129536734657  0.2722574251114054  1.0000
  C   C72       1.0  0.2722907846530305  0.25078565020503873  0.33625001702027657  1.0000
  Br  Br1       1.0  0.23875708639203452  0.8937787670212671  0.29684479798612534  1.0000
  Br  Br2       1.0  0.39978463305027373  0.6639452556164752  0.9213718643164837  1.0000
  Br  Br3       1.0  0.033516797429811604  0.7225225244417357  0.8683523096061732  1.0000
  Br  Br4       1.0  0.864101486108204  0.6277693840679603  0.715517405591285  1.0000
  N   N1        1.0  0.6639329018385566  0.6682221954451818  0.6320599306661235  1.0000
  N   N2        1.0  0.3554594873772813  0.49844962147032834  0.9491353297414874  1.0000
  N   N3        1.0  0.03808176090528553  0.8491777117817917  0.9949413087695902  1.0000
  N   N4        1.0  0.4667988257672064  0.3517600762856503  0.47900883262634136  1.0000
  N   N5        1.0  0.04332806323260033  0.8898129193229208  0.057134447408678665  1.0000
  N   N6        1.0  0.47734759596155385  0.497365654907604  0.6378577315167036  1.0000
  N   N7        1.0  0.6240334452240505  0.48251805911827716  0.4632534601634574  1.0000
  N   N8        1.0  0.41143128251572847  0.42439929424254785  0.5874818899849217  1.0000
  N   N9        1.0  0.6711615581263287  0.5645373280951915  0.49984299578942165  1.0000
  N   N10       1.0  0.48590464086245067  0.33656217695943974  0.4218411640116173  1.0000
  N   N11       1.0  0.6206568672394325  0.6507034838534765  0.6689128527975469  1.0000
  N   N12       1.0  0.3687123922557375  0.4930769352545709  0.4908697210893322  1.0000
  N   N13       1.0  0.5723453026909338  0.5794207701609435  0.39109234512844876  1.0000
  N   N14       1.0  0.51106945733531  0.6734537314125858  0.5594450037569204  1.0000
  N   N15       1.0  0.3665714261497044  0.3461413728172147  0.3333128072482268  1.0000
  N   N16       1.0  0.3266536962055326  0.3297474699245981  0.3730002362141532  1.0000
  N   N17       1.0  0.5367619576445151  0.6611852870959041  0.5066075520332944  1.0000
  N   N18       1.0  0.5063272987843703  0.5051088454720585  0.3582252676702211  1.0000
  N   N19       1.0  0.3880924486336283  0.549806319459904  0.5594678267672392  1.0000
  N   N20       1.0  0.4082327146663616  0.5651949746861007  0.006138751638168663  1.0000
  Cl  Cl1       1.0  0.3780365518077885  0.2737353950663106  0.21393307783164767  1.0000
  Cl  Cl2       1.0  0.5634302984318322  0.9726463949520008  0.5328760647831031  1.0000
  Cl  Cl3       1.0  0.1609989685077198  0.984934192811281  0.005847257141432886  1.0000
  Cl  Cl4       1.0  0.07024418328865782  0.928311263001241  0.2087854348500997  1.0000
  Cl  Cl5       1.0  0.2801520531110029  0.31396971666404744  0.5721173545422502  1.0000
  Cl  Cl6       1.0  0.8138868071550504  0.6790098937306863  0.5399873148701602  1.0000
