data_image0
_chemical_formula_structural       Ag4H16C24S4N8
_chemical_formula_sum              "Ag4 H16 C24 S4 N8"
_cell_length_a       6.164821362957959
_cell_length_b       9.40051420254116
_cell_length_c       12.121433901701987
_cell_angle_alpha    100.25095254385296
_cell_angle_beta     90.0157914521658
_cell_angle_gamma    109.16091332738924

_space_group_name_H-M_alt    "P 1"
_space_group_IT_number       1

loop_
  _space_group_symop_operation_xyz
  'x, y, z'

loop_
  _atom_site_type_symbol
  _atom_site_label
  _atom_site_symmetry_multiplicity
  _atom_site_fract_x
  _atom_site_fract_y
  _atom_site_fract_z
  _atom_site_occupancy
  Ag  Ag1       1.0  0.741280498129278  0.5872954535564573  0.0604481922259694  1.0000
  Ag  Ag2       1.0  0.15395169036361978  0.4127762402697002  0.4395425735461628  1.0000
  Ag  Ag3       1.0  0.2586951722596424  0.4127024806221796  0.9395513977763483  1.0000
  Ag  Ag4       1.0  0.8460733333132922  0.5872263146145541  0.5604592675141049  1.0000
  H   H1        1.0  0.11000995664416267  0.6980467660060936  0.9012739670810745  1.0000
  H   H2        1.0  0.4120124119056072  0.3018575349159319  0.5986249938088334  1.0000
  H   H3        1.0  0.889986363565434  0.3019535334926361  0.09873005547004252  1.0000
  H   H4        1.0  0.5879906674276184  0.6981335791987816  0.40137701610934323  1.0000
  H   H5        1.0  0.20588212532666714  0.8606607076056676  0.7564937324791146  1.0000
  H   H6        1.0  0.3453559725387905  0.1394412552807225  0.7434954644689142  1.0000
  H   H7        1.0  0.7941263143599786  0.13934760554113274  0.2435105023322208  1.0000
  H   H8        1.0  0.6546610675102329  0.8605647936910897  0.25651012816249613  1.0000
  H   H9        1.0  0.631318476497043  0.0121239039787255  0.8531663284265747  1.0000
  H   H10       1.0  0.6190637908345877  0.9880067885462438  0.6469322314490213  1.0000
  H   H11       1.0  0.36867092122613343  0.9878820163090082  0.1468318202915881  1.0000
  H   H12       1.0  0.380941879329029  0.011999231115915202  0.35307170653529596  1.0000
  H   H13       1.0  0.5577680146845907  0.8414168078561061  0.9954391523951001  1.0000
  H   H14       1.0  0.7162528964146586  0.15857064558574763  0.5045236657625053  1.0000
  H   H15       1.0  0.4422164032844975  0.15858564433369082  0.004556897331404705  1.0000
  H   H16       1.0  0.2837682732724359  0.8414306928234082  0.4954738924719634  1.0000
  C   C1        1.0  0.009712073616299182  0.771270527068225  0.8898940703635958  1.0000
  C   C2        1.0  0.23850954069435912  0.22879822931392374  0.6100770318835912  1.0000
  C   C3        1.0  0.9902751012995737  0.2287309454944548  0.11011175338727239  1.0000
  C   C4        1.0  0.7615023436615331  0.7711975138531956  0.3899280524876261  1.0000
  C   C5        1.0  0.06337362529242094  0.8633966734192384  0.809128559262639  1.0000
  C   C6        1.0  0.20011332172040136  0.13670712434234386  0.6908307770182914  1.0000
  C   C7        1.0  0.9366201444150518  0.1366082535825583  0.19087853677662983  1.0000
  C   C8        1.0  0.7999030602966501  0.8632943660845173  0.309175876054816  1.0000
  C   C9        1.0  0.925956030893644  0.9515437160799318  0.7929411734664169  1.0000
  C   C10       1.0  0.9744817553627243  0.04865058734189629  0.7070814958299252  1.0000
  C   C11       1.0  0.0740273771653861  0.0484405021513723  0.2070591181647145  1.0000
  C   C12       1.0  0.025528917065152236  0.9513427376405232  0.2929158502821565  1.0000
  C   C13       1.0  0.7394768026316711  0.9425875976249924  0.8606664672560027  1.0000
  C   C14       1.0  0.7967544199142722  0.057441914171043607  0.6392839667056904  1.0000
  C   C15       1.0  0.2605221021972355  0.05741138912289761  0.13932748513293086  1.0000
  C   C16       1.0  0.20325745547692972  0.9425570604673652  0.36070915994486086  1.0000
  C   C17       1.0  0.699770927864101  0.8495262062259812  0.9406057139672368  1.0000
  C   C18       1.0  0.8501812130212656  0.1505639294509891  0.5593699857673115  1.0000
  C   C19       1.0  0.3002293514404712  0.15046580423491923  0.05938156087993459  1.0000
  C   C20       1.0  0.1498225584611178  0.8494350579609035  0.44062396703514384  1.0000
  C   C21       1.0  0.773943225777529  0.41142555224416094  0.775297954929769  1.0000
  C   C22       1.0  0.3624188175322515  0.5885384272646732  0.7247144378277284  1.0000
  C   C23       1.0  0.22604316904107688  0.5885711258109295  0.22469487296398677  1.0000
  C   C24       1.0  0.6375652970365592  0.411453692024125  0.2752794503698865  1.0000
  S   S1        1.0  0.7418637595276819  0.3392479358722226  0.889255905660249  1.0000
  S   S2        1.0  0.40261148689075543  0.6607667577350895  0.6107817436933515  1.0000
  S   S3        1.0  0.25812813303949866  0.6607500005197622  0.1107436857204718  1.0000
  S   S4        1.0  0.5973936868193092  0.33924151332857383  0.38922001031898645  1.0000
  N   N1        1.0  0.8314853330089846  0.7641141094383741  0.9553764026551546  1.0000
  N   N2        1.0  0.0673952990475897  0.2358530560654515  0.5444867567642503  1.0000
  N   N3        1.0  0.16850609182588977  0.23588613387573076  0.044624312118010295  1.0000
  N   N4        1.0  0.9326219169404766  0.7641598306131315  0.4555172451357024  1.0000
  N   N5        1.0  0.7994565559017701  0.46328728780097356  0.6924966772242556  1.0000
  N   N6        1.0  0.3361673617137271  0.5365533684986801  0.8074675383794344  1.0000
  N   N7        1.0  0.20052923114704396  0.5367049288702359  0.3075029989989416  1.0000
  N   N8        1.0  0.6638142095332641  0.463443392173332  0.19253025014744202  1.0000
