data_image0
_chemical_formula_structural       CuH24C26S2N6O4
_chemical_formula_sum              "Cu1 H24 C26 S2 N6 O4"
_cell_length_a       7.098485550379547
_cell_length_b       9.242296554602687
_cell_length_c       10.576306846111878
_cell_angle_alpha    94.44844398637197
_cell_angle_beta     96.61260522470086
_cell_angle_gamma    108.56940693305451

_space_group_name_H-M_alt    "P 1"
_space_group_IT_number       1

loop_
  _space_group_symop_operation_xyz
  'x, y, z'

loop_
  _atom_site_type_symbol
  _atom_site_label
  _atom_site_symmetry_multiplicity
  _atom_site_fract_x
  _atom_site_fract_y
  _atom_site_fract_z
  _atom_site_occupancy
  Cu  Cu1       1.0  4.058251404810972e-07  0.9999977022839699  8.375108392692744e-07  1.0000
  H   H1        1.0  0.06617279278589888  0.9834171265481756  0.2820222992313006  1.0000
  H   H2        1.0  0.9338229097927171  0.0165824393005067  0.7179808364398497  1.0000
  H   H3        1.0  0.9982352230141063  0.7777234892291602  0.4292674356130989  1.0000
  H   H4        1.0  0.0017567341604731712  0.22227724105110264  0.570735468446145  1.0000
  H   H5        1.0  0.8592198252803912  0.5011408147909007  0.3316440232065645  1.0000
  H   H6        1.0  0.1407688017314612  0.49885876845737437  0.6683575955898249  1.0000
  H   H7        1.0  0.8045534005880697  0.44178250591723167  0.0931336862758059  1.0000
  H   H8        1.0  0.19544614433031174  0.5582193430834721  0.9068689546608226  1.0000
  H   H9        1.0  0.8796560705173564  0.662233634825462  0.9594100110053105  1.0000
  H   H10       1.0  0.12035055467587341  0.3377681899018866  0.04059320122517819  1.0000
  H   H11       1.0  0.5140737696556599  0.8744961029674626  0.08060465861446889  1.0000
  H   H12       1.0  0.48592155063823145  0.12550572622839698  0.9193929116413458  1.0000
  H   H13       1.0  0.34071284150057574  0.6076658061698977  0.1229692313463033  1.0000
  H   H14       1.0  0.6592805646855597  0.39233487113929033  0.8770271679054319  1.0000
  H   H15       1.0  0.5173433980005484  0.745926124161329  0.5288899572201089  1.0000
  H   H16       1.0  0.4826665027924335  0.25407333815046224  0.47110675639157046  1.0000
  H   H17       1.0  0.6984573577343272  0.011525028193666699  0.4869151295563229  1.0000
  H   H18       1.0  0.30155478018006915  0.9884698200838425  0.5130814821740088  1.0000
  H   H19       1.0  0.2596005711830429  0.4924953724388955  0.44623730079766233  1.0000
  H   H20       1.0  0.7403979776297617  0.5075041630791329  0.5537632266483357  1.0000
  H   H21       1.0  0.42203314668152814  0.4308520429021526  0.356475917383051  1.0000
  H   H22       1.0  0.5779644013176152  0.5691451860069704  0.6435234421532171  1.0000
  H   H23       1.0  0.189102803810151  0.43360670509972715  0.2793071658665625  1.0000
  H   H24       1.0  0.8108929176007964  0.5663928332538716  0.7206921874809922  1.0000
  C   C1        1.0  0.007648153080182847  0.8618366610425807  0.2446999862915717  1.0000
  C   C2        1.0  0.992350893785414  0.13816403121678178  0.7553015978997379  1.0000
  C   C3        1.0  0.9692063717083459  0.7472860406192225  0.3256238582203395  1.0000
  C   C4        1.0  0.030787416762507288  0.25271237334279556  0.6743781064467242  1.0000
  C   C5        1.0  0.8929490646344221  0.594082639789221  0.2715905857677257  1.0000
  C   C6        1.0  0.10704381995850545  0.4059169151474931  0.7284094846431799  1.0000
  C   C7        1.0  0.8614913500864816  0.560513312895253  0.1383677969830899  1.0000
  C   C8        1.0  0.13850861478129414  0.43948621776809904  0.8616328447216758  1.0000
  C   C9        1.0  0.9030787678706746  0.6811672214734086  0.0637483562513808  1.0000
  C   C10       1.0  0.09692544516201446  0.31883229462593476  0.9362526282297098  1.0000
  C   C11       1.0  0.6168168414569237  0.9578184740638276  0.2817047324896507  1.0000
  C   C12       1.0  0.3831893139320215  0.042182152679544095  0.7182917495101364  1.0000
  C   C13       1.0  0.5153069198294276  0.8455117051803923  0.178432434988224  1.0000
  C   C14       1.0  0.48469405526817877  0.15449011834432008  0.8215674834644773  1.0000
  C   C15       1.0  0.4186450429526403  0.6961638193970501  0.2030503512626183  1.0000
  C   C16       1.0  0.5813521867409293  0.3038391685592429  0.7969493355781835  1.0000
  C   C17       1.0  0.41842602555687597  0.6572087198327948  0.3286479890775595  1.0000
  C   C18       1.0  0.5815777910668345  0.34279308023503324  0.6713502667308973  1.0000
  C   C19       1.0  0.5194731452352457  0.7728004689995415  0.4303661835612118  1.0000
  C   C20       1.0  0.4805348226176421  0.22719786892066907  0.5696331413699767  1.0000
  C   C21       1.0  0.6195692682893109  0.9222896452933038  0.4077679290813023  1.0000
  C   C22       1.0  0.380442957144652  0.0777086643153453  0.5922298474644095  1.0000
  C   C23       1.0  0.3160764151541429  0.4956290744527225  0.3538741911290515  1.0000
  C   C24       1.0  0.6839221383667463  0.5043704541915303  0.6461253907360458  1.0000
  C   C25       1.0  0.5996859678832962  0.828022706409726  0.8249375139152805  1.0000
  C   C26       1.0  0.4003144028096202  0.17197452653759632  0.17506396530033191  1.0000
  S   S1        1.0  0.2644000136890554  0.8505235291780977  0.746595287653186  1.0000
  S   S2        1.0  0.7356071095569663  0.14947945229057777  0.2534089813226146  1.0000
  N   N1        1.0  0.9730373961447115  0.8290868678465342  0.11631748373395817  1.0000
  N   N2        1.0  0.026964893364045374  0.17091151011368308  0.88368422090484  1.0000
  N   N3        1.0  0.7545068782867191  0.8750260267235886  0.8941525785777101  1.0000
  N   N4        1.0  0.24549438215987612  0.124970085870352  0.105853631636748  1.0000
  N   N5        1.0  0.4366275328334837  0.7682671434150448  0.7450476962580908  1.0000
  N   N6        1.0  0.563376777134927  0.2317358202678932  0.2549525618765784  1.0000
  O   O1        1.0  0.2023412654209622  0.8543927746526236  0.8733102365797835  1.0000
  O   O2        1.0  0.7976640641934483  0.14561246814412954  0.12668740714102  1.0000
  O   O3        1.0  0.8883459110014016  0.22747926991398504  0.3618342126336671  1.0000
  O   O4        1.0  0.11165327517267795  0.7725248080650289  0.6381581349831363  1.0000
