data_image0
_chemical_formula_structural       Ag16H8C40O32
_chemical_formula_sum              "Ag16 H8 C40 O32"
_cell_length_a       6.384812040252643
_cell_length_b       11.832660891076749
_cell_length_c       14.57227576363168
_cell_angle_alpha    89.99962134851883
_cell_angle_beta     89.99899722025432
_cell_angle_gamma    89.9998418609778

_space_group_name_H-M_alt    "P 1"
_space_group_IT_number       1

loop_
  _space_group_symop_operation_xyz
  'x, y, z'

loop_
  _atom_site_type_symbol
  _atom_site_label
  _atom_site_symmetry_multiplicity
  _atom_site_fract_x
  _atom_site_fract_y
  _atom_site_fract_z
  _atom_site_occupancy
  Ag  Ag1       1.0  0.11437254383179861  0.9473932969027173  0.5314431560070645  1.0000
  Ag  Ag2       1.0  0.8856287741134636  0.4473963883433568  0.46856117643944367  1.0000
  Ag  Ag3       1.0  0.6143485088864651  0.44739288514003317  0.9685548175594505  1.0000
  Ag  Ag4       1.0  0.385638713197892  0.9473934196594768  0.0314453975427966  1.0000
  Ag  Ag5       1.0  0.4134680295683211  0.6549568540959142  0.502047250212371  1.0000
  Ag  Ag6       1.0  0.5865363346060661  0.15495931336292298  0.4979586650676282  1.0000
  Ag  Ag7       1.0  0.9134600535678102  0.1549460637269107  0.9979486309164967  1.0000
  Ag  Ag8       1.0  0.0865443108166204  0.6549464404458476  0.0020497358468106  1.0000
  Ag  Ag9       1.0  0.46739014870296086  0.47777244198858426  0.3466826335890687  1.0000
  Ag  Ag10      1.0  0.5326063168381127  0.9777778791511407  0.6533215344393992  1.0000
  Ag  Ag11      1.0  0.9673886546017555  0.9777761886480649  0.1533183428707758  1.0000
  Ag  Ag12      1.0  0.0326109434190016  0.4777775129741642  0.8466830801980405  1.0000
  Ag  Ag13      1.0  0.4966850279529708  0.5500096645581323  0.1619328706858809  1.0000
  Ag  Ag14      1.0  0.5032979403987027  0.050018801183817595  0.8380688090540076  1.0000
  Ag  Ag15      1.0  0.9966912438562049  0.050021292152912594  0.3380695092547015  1.0000
  Ag  Ag16      1.0  0.0033105190041951005  0.5500223856958684  0.6619349153101126  1.0000
  H   H1        1.0  0.5547476085075616  0.8033795994253197  0.14022498823625543  1.0000
  H   H2        1.0  0.4452622694280847  0.3033759714815645  0.859778064981178  1.0000
  H   H3        1.0  0.054729787242585815  0.3033808178803453  0.3597677569831106  1.0000
  H   H4        1.0  0.9452518989228836  0.8033925005711421  0.6402263752448718  1.0000
  H   H5        1.0  0.8870990354979255  0.6942339803157934  0.1431453049493001  1.0000
  H   H6        1.0  0.1129113948092169  0.19422918587674326  0.8568590252661039  1.0000
  H   H7        1.0  0.3870891613562577  0.19423775765474005  0.35685439322445933  1.0000
  H   H8        1.0  0.6128977758025442  0.6942490719052188  0.6431417022020014  1.0000
  C   C1        1.0  0.5605991634777538  0.841135525141425  0.2843986380445643  1.0000
  C   C2        1.0  0.43939799365391247  0.3411271534526747  0.7156042108766981  1.0000
  C   C3        1.0  0.060582379477501995  0.3411201593682023  0.21559591650959214  1.0000
  C   C4        1.0  0.9394038143523886  0.8411273071380876  0.7843980114450844  1.0000
  C   C5        1.0  0.6396462796996758  0.7920310269388081  0.20419960003710705  1.0000
  C   C6        1.0  0.3603636557595351  0.2920246624890765  0.7957993972052009  1.0000
  C   C7        1.0  0.13964353337043892  0.29202515549064856  0.29579461162580145  1.0000
  C   C8        1.0  0.8603460413622274  0.792037294922288  0.7041988957996993  1.0000
  C   C9        1.0  0.8217269362445093  0.7281897889303365  0.20627287287518206  1.0000
  C   C10       1.0  0.17829741815013728  0.22818540544034244  0.7937319597306782  1.0000
  C   C11       1.0  0.32171800748317037  0.2281847793239251  0.29372371366520156  1.0000
  C   C12       1.0  0.6782750227188501  0.728192950456119  0.7062735704736482  1.0000
  C   C13       1.0  0.9220728570506367  0.703786583118152  0.2893453697845345  1.0000
  C   C14       1.0  0.07793282619784489  0.20377964044779162  0.7106623399235301  1.0000
  C   C15       1.0  0.42206096839634455  0.20377632794525616  0.21065400746210367  1.0000
  C   C16       1.0  0.5779368840654017  0.7037856700924862  0.7893392913607045  1.0000
  C   C17       1.0  0.8368657892796918  0.7459095546610329  0.3714782595350954  1.0000
  C   C18       1.0  0.16314594571119298  0.2458904696707833  0.6285278497182245  1.0000
  C   C19       1.0  0.3368477710175952  0.2458889756499474  0.12851948708534877  1.0000
  C   C20       1.0  0.6631404709851549  0.7458983719698932  0.8714749563043184  1.0000
  C   C21       1.0  0.6642482128765224  0.8205801385099675  0.3681216622368311  1.0000
  C   C22       1.0  0.3357506145724969  0.32057090810739197  0.6318778667654853  1.0000
  C   C23       1.0  0.16422066386094517  0.32056037756016303  0.13187151938566896  1.0000
  C   C24       1.0  0.835770332744275  0.820571231377556  0.8681184024148364  1.0000
  C   C25       1.0  0.11940893504768721  0.6351737302500311  0.28447843834360487  1.0000
  C   C26       1.0  0.8805955292718933  0.13517230127011706  0.7155268977901911  1.0000
  C   C27       1.0  0.6194090629550502  0.13516690889259314  0.2155222680047473  1.0000
  C   C28       1.0  0.3805891366278544  0.6351706714699502  0.7844775782991391  1.0000
  C   C29       1.0  0.92052977345098  0.710642325473458  0.4640414747440786  1.0000
  C   C30       1.0  0.07948527257349979  0.21063763516643513  0.5359572767644635  1.0000
  C   C31       1.0  0.4205342323880075  0.21063263471910426  0.03595513227263329  1.0000
  C   C32       1.0  0.5794823799118447  0.7106295784349823  0.9640429330432951  1.0000
  C   C33       1.0  0.6144907653136401  0.8865193519435977  0.45382345728313567  1.0000
  C   C34       1.0  0.38551086079627334  0.386521724676534  0.546177087243194  1.0000
  C   C35       1.0  0.11448698669840947  0.3865154945940574  0.0461697503913712  1.0000
  C   C36       1.0  0.8855005435417242  0.8865095247944837  0.9538287355288446  1.0000
  C   C37       1.0  0.36237559659244317  0.9087316560097275  0.27750393280598457  1.0000
  C   C38       1.0  0.6376243509125318  0.4087339169201059  0.7224951190314143  1.0000
  C   C39       1.0  0.862377013368615  0.40872646864167456  0.2224899910639238  1.0000
  C   C40       1.0  0.1376135369178613  0.9087281177664861  0.7775063159009363  1.0000
  O   O1        1.0  0.210376345922711  0.6346677475125729  0.2072238556446635  1.0000
  O   O2        1.0  0.7896281209912671  0.13466921258975623  0.7927794245161337  1.0000
  O   O3        1.0  0.7103780989208417  0.1346746698433492  0.29277546679342237  1.0000
  O   O4        1.0  0.2896185370156061  0.6346741219508231  0.7072209510193872  1.0000
  O   O5        1.0  0.17937023351127124  0.583382843693883  0.35704354046122677  1.0000
  O   O6        1.0  0.8206313604302479  0.0833820904375031  0.6429648209439449  1.0000
  O   O7        1.0  0.6793513214132574  0.0833749176155152  0.1429549259328198  1.0000
  O   O8        1.0  0.3206487064829844  0.5833815653630268  0.8570458869205169  1.0000
  O   O9        1.0  0.07152662283784389  0.7627883136339263  0.5010113742169011  1.0000
  O   O10       1.0  0.9285069538388058  0.2627834889777745  0.4989891536787638  1.0000
  O   O11       1.0  0.5715201716413318  0.2627868111727665  0.998993418232736  1.0000
  O   O12       1.0  0.4284961765244972  0.762780765831977  0.0010139720868096  1.0000
  O   O13       1.0  0.8245451732016137  0.6285220806857907  0.5030792086077653  1.0000
  O   O14       1.0  0.1754640235133706  0.1285209413678245  0.49692204610212076  1.0000
  O   O15       1.0  0.3245485215638482  0.12851796701756504  0.9969017167739762  1.0000
  O   O16       1.0  0.6754700727665083  0.6285140685472966  0.0030851270026133  1.0000
  O   O17       1.0  0.5087088733698124  0.8419281858820751  0.5185256155405682  1.0000
  O   O18       1.0  0.4912851474203989  0.34191655446718977  0.48147242546894375  1.0000
  O   O19       1.0  0.0087300645538448  0.3419081395521956  0.981462076277225  1.0000
  O   O20       1.0  0.9912702213072677  0.8419154728616223  0.0185284161846155  1.0000
  O   O21       1.0  0.7018602614799716  0.982905025053462  0.4587966885649308  1.0000
  O   O22       1.0  0.2981330456918556  0.48289996333143387  0.5412067654888446  1.0000
  O   O23       1.0  0.20187077665928393  0.48288430543902194  0.041199442140055  1.0000
  O   O24       1.0  0.7981193982147801  0.9828885684583072  0.9588012670742428  1.0000
  O   O25       1.0  0.2853177302347163  0.9486150919385492  0.3511089597267229  1.0000
  O   O26       1.0  0.7146694856368114  0.44861022469168427  0.6488933074786799  1.0000
  O   O27       1.0  0.785295449739749  0.4485944412250901  0.14888396921302413  1.0000
  O   O28       1.0  0.21467453788213933  0.948609747473526  0.8511141807082083  1.0000
  O   O29       1.0  0.28220252119902517  0.9190678373486775  0.1975887617579701  1.0000
  O   O30       1.0  0.7178036387800616  0.4190701779002668  0.8024143515172852  1.0000
  O   O31       1.0  0.7822117219875794  0.4190662307513833  0.3024098407980489  1.0000
  O   O32       1.0  0.2177897394063493  0.9190675589199345  0.6975905275682804  1.0000
