data_image0
_chemical_formula_structural       Cs4H24Pd4C12N4Cl8O12
_chemical_formula_sum              "Cs4 H24 Pd4 C12 N4 Cl8 O12"
_cell_length_a       4.536813963000033
_cell_length_b       11.555051521052894
_cell_length_c       17.027734098076472
_cell_angle_alpha    89.9996550937617
_cell_angle_beta     89.99999088077129
_cell_angle_gamma    89.99998869691395

_space_group_name_H-M_alt    "P 1"
_space_group_IT_number       1

loop_
  _space_group_symop_operation_xyz
  'x, y, z'

loop_
  _atom_site_type_symbol
  _atom_site_label
  _atom_site_symmetry_multiplicity
  _atom_site_fract_x
  _atom_site_fract_y
  _atom_site_fract_z
  _atom_site_occupancy
  Cs  Cs1       1.0  0.6581886336850291  0.3857788400908646  0.10493858305134296  1.0000
  Cs  Cs2       1.0  0.6581883303481179  0.6142234894864275  0.8950614461688671  1.0000
  Cs  Cs3       1.0  0.3418057326217792  0.11422181854926813  0.6049369710247986  1.0000
  Cs  Cs4       1.0  0.3418055893975876  0.8857762066967111  0.3950630712848734  1.0000
  H   H1        1.0  0.5721259311440647  0.6176006658289596  0.24011405131743388  1.0000
  H   H2        1.0  0.5721258352577083  0.3824008045253322  0.7598853941855308  1.0000
  H   H3        1.0  0.4278702876700749  0.8824003984825312  0.7401130969573655  1.0000
  H   H4        1.0  0.42787064036103584  0.11759848599148633  0.2598863545150535  1.0000
  H   H5        1.0  0.15324385359416232  0.42389485315660386  0.452209030892284  1.0000
  H   H6        1.0  0.15324378339978753  0.5761049165137068  0.5477904319325687  1.0000
  H   H7        1.0  0.8467525042607067  0.07610533550532492  0.9522075544185851  1.0000
  H   H8        1.0  0.8467547573682881  0.923894384227637  0.04779246701087909  1.0000
  H   H9        1.0  0.4338548644088009  0.5033849083656109  0.4169223114274984  1.0000
  H   H10       1.0  0.43385481535864306  0.4966157065196414  0.5830777270711492  1.0000
  H   H11       1.0  0.5661412461414985  0.9966163256538748  0.9169208826076908  1.0000
  H   H12       1.0  0.5661417685238136  0.0033825488616229995  0.08307915042522747  1.0000
  H   H13       1.0  0.9188163849366265  0.42855302320739946  0.3402099580111439  1.0000
  H   H14       1.0  0.9188162486675894  0.5714475567617897  0.6597894731599749  1.0000
  H   H15       1.0  0.08118885825827961  0.07144469266167161  0.8402097068659838  1.0000
  H   H16       1.0  0.08118663190048643  0.9285542167719288  0.15979034621693694  1.0000
  H   H17       1.0  0.09041345376635952  0.5407745842145745  0.23093213990413364  1.0000
  H   H18       1.0  0.09041110674893822  0.4592260553995616  0.7690679127938578  1.0000
  H   H19       1.0  0.9095827706708167  0.9592248303284808  0.7309302630591288  1.0000
  H   H20       1.0  0.9095831590565883  0.040774884883170215  0.2690691684955056  1.0000
  H   H21       1.0  0.16074910930768035  0.6166890397609066  0.3196490128609567  1.0000
  H   H22       1.0  0.16074906163218125  0.3833124602137304  0.6803504496500421  1.0000
  H   H23       1.0  0.8392492649955516  0.8833104568670647  0.8196486250318455  1.0000
  H   H24       1.0  0.8392474626872969  0.1166883979839284  0.18035139670969605  1.0000
  Pd  Pd1       1.0  0.5748172803505015  0.2885714785855384  0.4206443249269184  1.0000
  Pd  Pd2       1.0  0.5748171180479034  0.7114299915749669  0.5793551204647824  1.0000
  Pd  Pd3       1.0  0.4251857094020793  0.21142985420329555  0.9206423105118443  1.0000
  Pd  Pd4       1.0  0.4251836075824401  0.7885690304641103  0.07935714107161117  1.0000
  C   C1        1.0  0.2355131202661553  0.32434000881453784  0.28208207602321517  1.0000
  C   C2        1.0  0.23551509654544844  0.6756623511991579  0.717917383394912  1.0000
  C   C3        1.0  0.7644943627118581  0.1756582202999795  0.7820813689349462  1.0000
  C   C4        1.0  0.764494360999315  0.8243397745111593  0.2179186558990124  1.0000
  C   C5        1.0  0.15903650019934196  0.43135533119753694  0.33046469011360796  1.0000
  C   C6        1.0  0.15903635946951772  0.5686470343201863  0.6695353597436193  1.0000
  C   C7        1.0  0.8409665447722862  0.0686450669877985  0.8304638317739188  1.0000
  C   C8        1.0  0.8409665151312357  0.931352922314531  0.16953677717555846  1.0000
  C   C9        1.0  0.22612100771199561  0.5407137631355711  0.284531165417654  1.0000
  C   C10       1.0  0.22612310186162435  0.4592877321294254  0.7154688816677606  1.0000
  C   C11       1.0  0.7738751839046858  0.9592869089938745  0.7845298812083923  1.0000
  C   C12       1.0  0.7738756051444541  0.040711085141801114  0.21547014323771654  1.0000
  N   N1        1.0  0.3090271983934444  0.42972366104720566  0.40829301398737516  1.0000
  N   N2        1.0  0.3090293086324608  0.5702778282483011  0.5917070296703457  1.0000
  N   N3        1.0  0.6909735947317518  0.0702777807932264  0.9082921551504552  1.0000
  N   N4        1.0  0.6909736136249055  0.9297210847339913  0.09170787272137906  1.0000
  Cl  Cl1       1.0  0.8457056623814342  0.11910788279154619  0.4298114768789317  1.0000
  Cl  Cl2       1.0  0.8457098229313332  0.8808909715943545  0.5701885445955523  1.0000
  Cl  Cl3       1.0  0.15429511756810402  0.3808933690584838  0.9298087781833853  1.0000
  Cl  Cl4       1.0  0.15429090831173653  0.6191072659534599  0.07019185915071088  1.0000
  Cl  Cl5       1.0  0.7633371898448831  0.3527601927062067  0.5387092230074728  1.0000
  Cl  Cl6       1.0  0.7633349301680996  0.647242994727698  0.46128962730931977  1.0000
  Cl  Cl7       1.0  0.2366594212055091  0.14724191613430554  0.038707133205320994  1.0000
  Cl  Cl8       1.0  0.23666335740475836  0.8527552512651866  0.9612917388988289  1.0000
  O   O1        1.0  0.40830619861527856  0.24659464379483614  0.3139649238850096  1.0000
  O   O2        1.0  0.4083059484141175  0.7534059729274177  0.68603570294713  1.0000
  O   O3        1.0  0.5917056732195365  0.25340676550149505  0.8139633175891416  1.0000
  O   O4        1.0  0.5917013244639621  0.7465912417510978  0.1860367143887131  1.0000
  O   O5        1.0  0.13645684518839832  0.3125151789485514  0.21463918871058493  1.0000
  O   O6        1.0  0.13645656962076916  0.6874871881923853  0.7853614493573813  1.0000
  O   O7        1.0  0.8635528832766114  0.18748278023466017  0.7146384289981852  1.0000
  O   O8        1.0  0.8635550508167145  0.8125143420189364  0.2853621790192092  1.0000
  O   O9        1.0  0.5325056281702488  0.5420708163708668  0.2659573403012842  1.0000
  O   O10       1.0  0.5325033032963449  0.4579306568310957  0.7340432813941928  1.0000
  O   O11       1.0  0.46749277900941183  0.9579300197544998  0.7659566616054716  1.0000
  O   O12       1.0  0.46749318814617186  0.042068861861388016  0.23404396278318265  1.0000
