data_image0
_chemical_formula_structural       CoH14C14N12O6
_chemical_formula_sum              "Co1 H14 C14 N12 O6"
_cell_length_a       6.940468833305551
_cell_length_b       8.26386661159032
_cell_length_c       9.356265932042906
_cell_angle_alpha    68.08626173869878
_cell_angle_beta     81.73880490668957
_cell_angle_gamma    91.33922639878072

_space_group_name_H-M_alt    "P 1"
_space_group_IT_number       1

loop_
  _space_group_symop_operation_xyz
  'x, y, z'

loop_
  _atom_site_type_symbol
  _atom_site_label
  _atom_site_symmetry_multiplicity
  _atom_site_fract_x
  _atom_site_fract_y
  _atom_site_fract_z
  _atom_site_occupancy
  Co  Co1       1.0  2.2520267464083097e-06  0.9999996972874285  0.9999979736319915  1.0000
  H   H1        1.0  0.2050460829921406  0.33669219384918847  0.9159075289578242  1.0000
  H   H2        1.0  0.7949645673545546  0.6633283383086166  0.08409536143766168  1.0000
  H   H3        1.0  0.0412429165196073  0.27631902519817686  0.067795081946997  1.0000
  H   H4        1.0  0.9587684625795132  0.7236795431622767  0.932208145642626  1.0000
  H   H5        1.0  0.5423462737004314  0.007723397959722392  0.6836822218545537  1.0000
  H   H6        1.0  0.45767700262727123  0.9922822019590921  0.3163197002132564  1.0000
  H   H7        1.0  0.5971665755885455  0.8502949133598109  0.8634444265767911  1.0000
  H   H8        1.0  0.40283130392696614  0.1496915678993247  0.13655329502104513  1.0000
  H   H9        1.0  0.8071826122092957  0.32700293240966266  0.8905858877056403  1.0000
  H   H10       1.0  0.19283000742689885  0.6729902074953387  0.10942851829781117  1.0000
  H   H11       1.0  0.9277667846297178  0.1759882610328845  0.43439026797773295  1.0000
  H   H12       1.0  0.072201015208698  0.8240148080661526  0.5656140283848574  1.0000
  H   H13       1.0  0.026773752587352796  0.9827618909281313  0.6895232125645308  1.0000
  H   H14       1.0  0.9732129350090163  0.017238406190699607  0.3104713965279301  1.0000
  C   C1        1.0  0.29241746059577167  0.8505072430596387  0.8362428203795957  1.0000
  C   C2        1.0  0.7075940490470886  0.14949421006648578  0.16374987473100333  1.0000
  C   C3        1.0  0.5102329412203019  0.8732455033148908  0.7693589463137729  1.0000
  C   C4        1.0  0.4897728024272112  0.1267581937459994  0.23063686785522464  1.0000
  C   C5        1.0  0.8316510396780501  0.2887966887855599  0.7907694166019397  1.0000
  C   C6        1.0  0.16835732133068862  0.7111980609900003  0.20922676453388786  1.0000
  C   C7        1.0  0.7753394719443633  0.39270178636685676  0.6492736526860342  1.0000
  C   C8        1.0  0.2246572620212177  0.6072958129549023  0.35074104593760314  1.0000
  C   C9        1.0  0.681685011555615  0.552882619619723  0.6365622835527063  1.0000
  C   C10       1.0  0.31830894133717896  0.4471177852097981  0.36344007681412904  1.0000
  C   C11       1.0  0.899134912192693  0.20800184344076195  0.5380785069515852  1.0000
  C   C12       1.0  0.1008374153621645  0.7920064508932256  0.46193116987245736  1.0000
  C   C13       1.0  0.9545212698605569  0.1010742016441029  0.6778599711906566  1.0000
  C   C14       1.0  0.0454711516597683  0.8989236405271156  0.3221390714465856  1.0000
  N   N1        1.0  0.5710381594304508  0.75835925352564  0.6893305545383654  1.0000
  N   N2        1.0  0.42896904460695146  0.24164451330889142  0.31066508357620387  1.0000
  N   N3        1.0  0.6364530199394238  0.6031439682038594  0.7574814803759865  1.0000
  N   N4        1.0  0.3635543569727844  0.3968660006976279  0.2425239711419352  1.0000
  N   N5        1.0  0.8108719787370688  0.3542926549997674  0.5210260144774851  1.0000
  N   N6        1.0  0.18911280076225265  0.6456955103130539  0.4789832590540258  1.0000
  N   N7        1.0  0.6432931936349534  0.6744521602965604  0.5005960297223099  1.0000
  N   N8        1.0  0.356694498642625  0.3255350789893825  0.49940467114848275  1.0000
  N   N9        1.0  0.5739385021572403  0.8039017820561654  0.5353710347882057  1.0000
  N   N10       1.0  0.4260524509716818  0.1960949247672374  0.46461996335158756  1.0000
  N   N11       1.0  0.9216905869905146  0.14211783165698216  0.805727781814369  1.0000
  N   N12       1.0  0.0783134626693993  0.8578802069670884  0.1942827997072244  1.0000
  O   O1        1.0  0.24698807797567915  0.968462602694764  0.8909277290668954  1.0000
  O   O2        1.0  0.7530102664117706  0.03153706646029519  0.1090615668115618  1.0000
  O   O3        1.0  0.1553853989505427  0.2380279186768632  0.012688648059096896  1.0000
  O   O4        1.0  0.8446306922265663  0.7619801267053035  0.987306858631733  1.0000
  O   O5        1.0  0.1818443779554713  0.7288015992880119  0.8340044420285935  1.0000
  O   O6        1.0  0.8181669267411849  0.27119344075830293  0.16598599228183283  1.0000
