data_image0
_chemical_formula_structural       Al4H52C48N4O20
_chemical_formula_sum              "Al4 H52 C48 N4 O20"
_cell_length_a       6.625963485740886
_cell_length_b       15.080460465972134
_cell_length_c       17.72802656602247
_cell_angle_alpha    79.00943416384764
_cell_angle_beta     87.3329051862833
_cell_angle_gamma    89.06240617920231

_space_group_name_H-M_alt    "P 1"
_space_group_IT_number       1

loop_
  _space_group_symop_operation_xyz
  'x, y, z'

loop_
  _atom_site_type_symbol
  _atom_site_label
  _atom_site_symmetry_multiplicity
  _atom_site_fract_x
  _atom_site_fract_y
  _atom_site_fract_z
  _atom_site_occupancy
  Al  Al1       1.0  0.11734716998164882  0.5019466161010301  0.49960284902137914  1.0000
  Al  Al2       1.0  0.617019482954376  0.5011809545637931  0.5018136486090727  1.0000
  Al  Al3       1.0  0.6464323480814825  0.9985881684880128  0.9982984816745105  1.0000
  Al  Al4       1.0  0.14702242204154461  0.9921145864218275  0.0027936528056500018  1.0000
  H   H1        1.0  0.09691511170487391  0.10685128738040822  0.20224368758982086  1.0000
  H   H2        1.0  0.1370222713719542  0.8660546739490158  0.821824389398202  1.0000
  H   H3        1.0  0.20330967522922092  0.14963154737009182  0.3239809022674437  1.0000
  H   H4        1.0  0.9961767998440012  0.8203861729805695  0.7052681248536604  1.0000
  H   H5        1.0  0.6037621059683291  0.36309461863364595  0.16743277851165322  1.0000
  H   H6        1.0  0.7410896462232017  0.6707387346877596  0.7967080200445554  1.0000
  H   H7        1.0  0.1619738941663726  0.24979752581993608  0.42076161603932166  1.0000
  H   H8        1.0  0.0288267563208535  0.7280037034537942  0.6022320630942845  1.0000
  H   H9        1.0  0.6667191458415828  0.38858101951708335  0.2991219619673943  1.0000
  H   H10       1.0  0.6176524962565538  0.6360386641082273  0.6761547404496897  1.0000
  H   H11       1.0  0.5457566031171269  0.8240962568951105  0.19928495171307506  1.0000
  H   H12       1.0  0.13747337107297142  0.12574721260689617  0.7645232177268328  1.0000
  H   H13       1.0  0.6241555359829718  0.7252760482050674  0.1669350682333076  1.0000
  H   H14       1.0  0.06091358468837169  0.19930770817803992  0.8271669034721331  1.0000
  H   H15       1.0  0.5545415823145348  0.6542601107962015  0.296193675409839  1.0000
  H   H16       1.0  0.06296095427047989  0.32506120241821895  0.7277995620226749  1.0000
  H   H17       1.0  0.5725325875579231  0.7553558369021331  0.33081396068856633  1.0000
  H   H18       1.0  0.0766520765090419  0.24794879164677752  0.664184040060974  1.0000
  H   H19       1.0  0.8192447633168741  0.900285138214599  0.2672920008166886  1.0000
  H   H20       1.0  0.5134775913713057  0.0892971062072974  0.7443622328710265  1.0000
  H   H21       1.0  0.9056325665686914  0.7990208171805264  0.379146699607418  1.0000
  H   H22       1.0  0.42757756382104617  0.18730386364099158  0.6313013945997812  1.0000
  H   H23       1.0  0.17806507610661274  0.7572782978753453  0.19137512385768932  1.0000
  H   H24       1.0  0.6045531345120664  0.271796022579558  0.8452761729609437  1.0000
  H   H25       1.0  0.8798120543115361  0.603413321259673  0.23203831988766419  1.0000
  H   H26       1.0  0.3636934825340817  0.4075186267840394  0.7529857899445604  1.0000
  H   H27       1.0  0.11443758811431338  0.617329640776106  0.27304887018797075  1.0000
  H   H28       1.0  0.608327575816503  0.36888882405924767  0.7301671563599117  1.0000
  H   H29       1.0  0.0765751320608103  0.8896982020423323  0.2376826693192272  1.0000
  H   H30       1.0  0.6904033326850368  0.16564932531336754  0.766823178618232  1.0000
  H   H31       1.0  0.12951111139949492  0.7625057534047954  0.33552059907010107  1.0000
  H   H32       1.0  0.6452041475840249  0.24885557007641523  0.6424534474015788  1.0000
  H   H33       1.0  0.0742688679971621  0.7530856390534666  0.0674935578088665  1.0000
  H   H34       1.0  0.1631169731586226  0.6119961764050147  0.04490160273302019  1.0000
  H   H35       1.0  0.08951959359519888  0.5609700790573982  0.14065400198686015  1.0000
  H   H36       1.0  0.3109528588426755  0.628851643731224  0.12260454905074888  1.0000
  H   H37       1.0  0.3110597717455406  0.259998547084031  0.9321554953650665  1.0000
  H   H38       1.0  0.25649477349301014  0.40177744841473384  0.9542150591175231  1.0000
  H   H39       1.0  0.29458416285073247  0.4507159416686194  0.8558224027861033  1.0000
  H   H40       1.0  0.5058028535223826  0.40957213534884573  0.9102946962365834  1.0000
  H   H41       1.0  0.5891137747876912  0.34545337184188435  0.03945537808058225  1.0000
  H   H42       1.0  0.7774563027181927  0.3417766093477256  0.9312298312268229  1.0000
  H   H43       1.0  0.7543698004386813  0.22213132513222428  0.949998252736528  1.0000
  H   H44       1.0  0.9567484385771864  0.2743230072533791  0.9874073735092712  1.0000
  H   H45       1.0  0.8327455377529064  0.6956414178365192  0.9136665424659046  1.0000
  H   H46       1.0  0.7550573901213086  0.6904193205887735  0.04288949483268576  1.0000
  H   H47       1.0  0.5223140117110958  0.6558813269904961  0.008661186420340526  1.0000
  H   H48       1.0  0.5569803362894774  0.7685766637937163  0.02328635894811276  1.0000
  H   H49       1.0  0.38267166434334143  0.4592012983657839  0.4163053806958531  1.0000
  H   H50       1.0  0.8630675340387554  0.4537852400388332  0.5977302310579875  1.0000
  H   H51       1.0  0.387509170300426  0.037291116824853504  0.08498739957011742  1.0000
  H   H52       1.0  0.9165218324817703  0.030178893572866607  0.9009572677167272  1.0000
  C   C1        1.0  0.366710949941691  0.3773193074466479  0.6113215950436129  1.0000
  C   C2        1.0  0.8623893824795417  0.6209525005691676  0.3909333178412526  1.0000
  C   C3        1.0  0.3407652246562307  0.6157241078965328  0.5774090968247239  1.0000
  C   C4        1.0  0.8918287835691815  0.38625294858942993  0.42117145856928323  1.0000
  C   C5        1.0  0.8814710180063655  0.18210102126109012  0.12900819000389424  1.0000
  C   C6        1.0  0.4155456831876593  0.8151628495528628  0.8696087148700757  1.0000
  C   C7        1.0  0.9086305226435484  0.32381812250164904  0.3653423487438232  1.0000
  C   C8        1.0  0.3265361109369707  0.6769357783941314  0.6341906313973953  1.0000
  C   C9        1.0  0.08711481055397742  0.20240188185427138  0.318405580147065  1.0000
  C   C10       1.0  0.13156733729235984  0.7796718223498547  0.6990983698598827  1.0000
  C   C11       1.0  0.0637291376949136  0.25684350555437874  0.37234124060591983  1.0000
  C   C12       1.0  0.14915322905668663  0.729393232118383  0.6417952268469664  1.0000
  C   C13       1.0  0.7836138145413117  0.336250563619771  0.303763982217582  1.0000
  C   C14       1.0  0.482979288182321  0.6767222439696924  0.6833300622566298  1.0000
  C   C15       1.0  0.8129944614500958  0.28531159884830254  0.24456324264495077  1.0000
  C   C16       1.0  0.4654685612988203  0.7246770819828967  0.7446675341792218  1.0000
  C   C17       1.0  0.9655495377529278  0.21554073251700603  0.2532380410090767  1.0000
  C   C18       1.0  0.2854600398786076  0.7772737431665391  0.7527794324443351  1.0000
  C   C19       1.0  0.9910601315533755  0.16381902102587986  0.1948163859629659  1.0000
  C   C20       1.0  0.2681925172712454  0.8227445533675777  0.815662161024122  1.0000
  C   C21       1.0  0.7485121688355816  0.25912967236582324  0.11575934076770983  1.0000
  C   C22       1.0  0.5865065760295779  0.7558557358821075  0.8654427047843076  1.0000
  C   C23       1.0  0.7085190516248617  0.3056443622826564  0.17558410159988114  1.0000
  C   C24       1.0  0.6114689679746661  0.7155097716098171  0.8013247258866517  1.0000
  C   C25       1.0  0.657433118365894  0.7689116282775288  0.2078001776292241  1.0000
  C   C26       1.0  0.1705525089592186  0.1906643165642734  0.7808532783117317  1.0000
  C   C27       1.0  0.6457705727398634  0.7154757663384644  0.2911898750674667  1.0000
  C   C28       1.0  0.15333206531738605  0.2693938916428138  0.7113471503773996  1.0000
  C   C29       1.0  0.9364935690002555  0.851826677088127  0.255156626002055  1.0000
  C   C30       1.0  0.5353739075273581  0.1602685555343371  0.7486507913388112  1.0000
  C   C31       1.0  0.0271500496918193  0.7304275771299517  0.1833748737004087  1.0000
  C   C32       1.0  0.4486167750244264  0.2793223790404653  0.8250923121058167  1.0000
  C   C33       1.0  0.8706628922043862  0.8077554989660458  0.18798113490290555  1.0000
  C   C34       1.0  0.38589920219040863  0.1852431165800752  0.8110303238794644  1.0000
  C   C35       1.0  0.8615762952051186  0.6900914545718494  0.31644079543421827  1.0000
  C   C36       1.0  0.3654548456892358  0.3039948891169005  0.6833428918300941  1.0000
  C   C37       1.0  0.9682260886269349  0.7772878858230714  0.326998064240698  1.0000
  C   C38       1.0  0.5012045821092173  0.22349449992865536  0.6707644576692078  1.0000
  C   C39       1.0  0.976785800034314  0.6526986387402051  0.25131017807828476  1.0000
  C   C40       1.0  0.45291196921115773  0.3468881333900812  0.747380140998523  1.0000
  C   C41       1.0  0.4019575155163651  0.87796796385625  0.9253632862874996  1.0000
  C   C42       1.0  0.8914737027632429  0.115156475315402  0.07680406461816602  1.0000
  C   C43       1.0  0.4013382328773858  0.11477963453327793  0.8847712947384709  1.0000
  C   C44       1.0  0.8793565237804374  0.8772711146383472  0.11370071767436231  1.0000
  C   C45       1.0  0.1545843832952372  0.6221961443178403  0.10472057464528463  1.0000
  C   C46       1.0  0.34530539076410355  0.3960767599708817  0.901410918673918  1.0000
  C   C47       1.0  0.795538294687333  0.28035088964971794  0.9748217519036833  1.0000
  C   C48       1.0  0.6321221446732324  0.7112432433241836  0.0037214327380680977  1.0000
  N   N1        1.0  0.025639637169973604  0.7005178982664901  0.10948717715717758  1.0000
  N   N2        1.0  0.3086973563549051  0.3077424915454544  0.8828195094856852  1.0000
  N   N3        1.0  0.6716081005894947  0.2876069330417367  0.04389414008362989  1.0000
  N   N4        1.0  0.717587285345914  0.7370542072266488  0.9251613949336817  1.0000
  O   O1        1.0  0.5101379025320085  0.5770377355642823  0.5685182530687458  1.0000
  O   O2        1.0  0.054786727203321624  0.39992927578294507  0.45286922402671353  1.0000
  O   O3        1.0  0.20072073908871602  0.4167139293388119  0.5914974196549567  1.0000
  O   O4        1.0  0.6954306037234871  0.6050994703559169  0.4289993093540831  1.0000
  O   O5        1.0  0.18058326008684134  0.6029376844180376  0.5439431020193626  1.0000
  O   O6        1.0  0.7209959847502605  0.42347785954016365  0.431337554714034  1.0000
  O   O7        1.0  0.02995097623701779  0.5827116270298447  0.4102424477386395  1.0000
  O   O8        1.0  0.5394654218183987  0.39671451590348283  0.5779171854157641  1.0000
  O   O9        1.0  0.37390297034159653  0.49894162094314964  0.4534222706800224  1.0000
  O   O10       1.0  0.8628606171373506  0.4962241884772709  0.5491550373295129  1.0000
  O   O11       1.0  0.23782800519261127  0.07565123823245301  0.9119966380264234  1.0000
  O   O12       1.0  0.7167067590587594  0.9016216950177948  0.08035862060244639  1.0000
  O   O13       1.0  0.5646990405928635  0.916442692539441  0.9363704940856511  1.0000
  O   O14       1.0  0.0660500351455795  0.08917578399903191  0.05631937900459151  1.0000
  O   O15       1.0  0.5740814997451694  0.098604565570561  0.9138700832418255  1.0000
  O   O16       1.0  0.05438508640125411  0.9076268888774949  0.08993147051169369  1.0000
  O   O17       1.0  0.7228926327124087  0.0864403719819222  0.059516277690931915  1.0000
  O   O18       1.0  0.22853313431404132  0.8927242049461486  0.9549768534002043  1.0000
  O   O19       1.0  0.3937355580612234  0.9993254819534912  0.04647736287797247  1.0000
  O   O20       1.0  0.9029164776760583  0.9989658707714286  0.9540282163765288  1.0000
