data_image0
_chemical_formula_structural       Cs2H20C24N4Cl4O8
_chemical_formula_sum              "Cs2 H20 C24 N4 Cl4 O8"
_cell_length_a       6.120722010709962
_cell_length_b       10.82964210759226
_cell_length_c       12.385351763521577
_cell_angle_alpha    108.96903848230562
_cell_angle_beta     92.09857684128878
_cell_angle_gamma    89.76978486262762

_space_group_name_H-M_alt    "P 1"
_space_group_IT_number       1

loop_
  _space_group_symop_operation_xyz
  'x, y, z'

loop_
  _atom_site_type_symbol
  _atom_site_label
  _atom_site_symmetry_multiplicity
  _atom_site_fract_x
  _atom_site_fract_y
  _atom_site_fract_z
  _atom_site_occupancy
  Cs  Cs1       1.0  0.25659422342134514  0.52590574349599  0.8761438661952212  1.0000
  Cs  Cs2       1.0  0.7434008767459942  0.47409197725320945  0.12385438063765973  1.0000
  H   H1        1.0  0.24723115613182498  0.6578476467924544  0.20678304805641556  1.0000
  H   H2        1.0  0.7527737053242731  0.3421480760068078  0.7932123905858861  1.0000
  H   H3        1.0  0.30696403512332177  0.7432134051299002  0.12932533043722572  1.0000
  H   H4        1.0  0.6930246453340061  0.2567892134538567  0.8706717579094703  1.0000
  H   H5        1.0  0.6329809235713384  0.17733880738803978  0.6090310833731394  1.0000
  H   H6        1.0  0.3670370633380032  0.8226588311234977  0.39096836280320707  1.0000
  H   H7        1.0  0.8432766289622575  0.07609469298879648  0.5280309129550532  1.0000
  H   H8        1.0  0.1567397233629464  0.9239029458558788  0.4719668888500693  1.0000
  H   H9        1.0  0.6806867836178582  0.16952193704585736  0.46437610244233  1.0000
  H   H10       1.0  0.3193296161579653  0.8304776603996158  0.5356238669622827  1.0000
  H   H11       1.0  0.179102700860561  0.18677188795273736  0.4858458235115962  1.0000
  H   H12       1.0  0.8209055494349897  0.8132286990781451  0.5141494324870379  1.0000
  H   H13       1.0  0.018082166918617297  0.2833714590382712  0.42684445420925243  1.0000
  H   H14       1.0  0.9819211310343121  0.7166272048684303  0.5731533996778638  1.0000
  H   H15       1.0  0.37856592244639126  0.3911602036840947  0.4839946089632577  1.0000
  H   H16       1.0  0.6214440574294998  0.6088442973421307  0.5160058183887771  1.0000
  H   H17       1.0  0.36720122191897525  0.38121320948503973  0.6232953396912607  1.0000
  H   H18       1.0  0.6327954892971235  0.6187835258844244  0.3767018512794991  1.0000
  H   H19       1.0  0.1893485931367493  0.4888936472156474  0.5806280271135338  1.0000
  H   H20       1.0  0.8106547522667923  0.5111069752918455  0.4193719943730729  1.0000
  C   C1        1.0  0.2746407634405443  0.9574029163430634  0.017405626596840293  1.0000
  C   C2        1.0  0.7253558511649344  0.0425899535405918  0.98260177707742  1.0000
  C   C3        1.0  0.25897688397641627  0.9835957713655785  0.9093855205660831  1.0000
  C   C4        1.0  0.7410037885927636  0.016413735590767  0.09061982290754143  1.0000
  C   C5        1.0  0.24324087366295544  0.11003010348809987  0.9036687610734547  1.0000
  C   C6        1.0  0.756732735384027  0.8899579578774282  0.0963336406922225  1.0000
  C   C7        1.0  0.23557309140387156  0.2238161883969027  0.006640048681532588  1.0000
  C   C8        1.0  0.764418858126767  0.776186432393672  0.9933611366244224  1.0000
  C   C9        1.0  0.25075424181304834  0.1968131109585514  0.11549547563910782  1.0000
  C   C10       1.0  0.7492455240938797  0.8031748387720367  0.884503332044446  1.0000
  C   C11       1.0  0.2654719864894801  0.07203395690007848  0.12069719377003453  1.0000
  C   C12       1.0  0.7345219317739121  0.92798231342784  0.8793038365506832  1.0000
  C   C13       1.0  0.2534709101949701  0.8729919896816514  0.8090516600431672  1.0000
  C   C14       1.0  0.7465178637391217  0.12701458920018638  0.19096188675457887  1.0000
  C   C15       1.0  0.231426574350472  0.13038129419358307  0.7962836737727559  1.0000
  C   C16       1.0  0.7685471527532712  0.8696116809125272  0.20372899629246893  1.0000
  C   C17       1.0  0.9205007429632488  0.28057429007039747  0.5871042689961288  1.0000
  C   C18       1.0  0.0795152772076193  0.7194096385687132  0.412878359612563  1.0000
  C   C19       1.0  0.75796256063024  0.16984046073017814  0.5461368146843811  1.0000
  C   C20       1.0  0.2420521804562767  0.8301581692404337  0.45386365941647716  1.0000
  C   C21       1.0  0.09938641982315488  0.2827466217872042  0.5076695837829563  1.0000
  C   C22       1.0  0.9006186085647983  0.7172559302569466  0.49232616750632024  1.0000
  C   C23       1.0  0.26699924686543136  0.3926306190253754  0.5517983640407851  1.0000
  C   C24       1.0  0.7330090507857675  0.6073719294793989  0.44819986777414306  1.0000
  N   N1        1.0  0.24869878278811797  0.7807850706175045  0.7271115177790437  1.0000
  N   N2        1.0  0.7513010789697032  0.21920676758367819  0.2728835429354461  1.0000
  N   N3        1.0  0.2244512102609235  0.14404013414466724  0.7063491198819847  1.0000
  N   N4        1.0  0.7755406215928248  0.8559575614129216  0.29363856425720064  1.0000
  Cl  Cl1       1.0  0.24459630853386471  0.331099547696155  0.23513000998185168  1.0000
  Cl  Cl2       1.0  0.7554071798862978  0.6689069305020324  0.7648708567855851  1.0000
  Cl  Cl3       1.0  0.26919019809326983  0.03987607712056729  0.24698814958759396  1.0000
  Cl  Cl4       1.0  0.7308002355747477  0.9601314376320358  0.7530160021290586  1.0000
  O   O1        1.0  0.2927623128581374  0.8427666819373267  0.02080879281537307  1.0000
  O   O2        1.0  0.7072346598111922  0.1572408113710111  0.9791962788685569  1.0000
  O   O3        1.0  0.21152117704747297  0.33749777138836373  0.003356054857974304  1.0000
  O   O4        1.0  0.7884887553777987  0.6625047710370636  0.9966422048945706  1.0000
  O   O5        1.0  0.32773786392561277  0.6575968339870214  0.1389380558555615  1.0000
  O   O6        1.0  0.672262188489377  0.34240281275945955  0.8610584013056413  1.0000
  O   O7        1.0  0.9053564532082063  0.3671420577856707  0.6809234003227405  1.0000
  O   O8        1.0  0.09465859640230427  0.6328693002170167  0.31909035495800003  1.0000
