data_image0
_chemical_formula_structural       Zn2Mo4H22C30N6O14
_chemical_formula_sum              "Zn2 Mo4 H22 C30 N6 O14"
_cell_length_a       8.700523478468973
_cell_length_b       10.250301014822583
_cell_length_c       11.141869859482894
_cell_angle_alpha    91.6600359624856
_cell_angle_beta     110.77569608209335
_cell_angle_gamma    112.4874037876517

_space_group_name_H-M_alt    "P 1"
_space_group_IT_number       1

loop_
  _space_group_symop_operation_xyz
  'x, y, z'

loop_
  _atom_site_type_symbol
  _atom_site_label
  _atom_site_symmetry_multiplicity
  _atom_site_fract_x
  _atom_site_fract_y
  _atom_site_fract_z
  _atom_site_occupancy
  Zn  Zn1       1.0  0.06948042675416842  0.279105517114374  0.1815404209444011  1.0000
  Zn  Zn2       1.0  0.9305188902626186  0.7208952233612893  0.818459257672913  1.0000
  Mo  Mo1       1.0  0.09885088722141686  0.6215436527695388  0.14365728254551874  1.0000
  Mo  Mo2       1.0  0.9011490928512629  0.37845601394712264  0.8563434485959361  1.0000
  Mo  Mo3       1.0  0.9581271897624504  0.9098411080991584  0.11140672114660079  1.0000
  Mo  Mo4       1.0  0.041872790154208396  0.0901585584967535  0.8885949074638332  1.0000
  H   H1        1.0  0.3639530350978147  0.43323724415806447  0.06066394871233878  1.0000
  H   H2        1.0  0.6360481756002585  0.5667624247388402  0.9393353283925023  1.0000
  H   H3        1.0  0.7032887520849584  0.5312420419295449  0.13692992338295798  1.0000
  H   H4        1.0  0.29671132441021086  0.4687554758133317  0.8630689820295386  1.0000
  H   H5        1.0  0.883261509033758  0.5106415599210549  0.36058569885636155  1.0000
  H   H6        1.0  0.11673913425082107  0.4893570331573471  0.639415187340262  1.0000
  H   H7        1.0  0.7215775149780798  0.40069928314478187  0.5044809461424508  1.0000
  H   H8        1.0  0.27842057156933453  0.5993014552713873  0.49551928904249815  1.0000
  H   H9        1.0  0.5656446745008663  0.2986585867827998  0.6098372870469004  1.0000
  H   H10       1.0  0.4343558729853001  0.7013421557523571  0.39016183500277185  1.0000
  H   H11       1.0  0.3581661080630525  0.19783402908733902  0.7233019538038122  1.0000
  H   H12       1.0  0.6418345353775478  0.8021645641118055  0.2766980349238324  1.0000
  H   H13       1.0  0.028629579540698596  0.13457987256186502  0.6079852496223879  1.0000
  H   H14       1.0  0.9713691702186226  0.865419792216045  0.3920151406177298  1.0000
  H   H15       1.0  0.7560000753106378  0.0930904246348092  0.49426372942883023  1.0000
  H   H16       1.0  0.24399933766058973  0.9069081665048414  0.5057368158664558  1.0000
  H   H17       1.0  0.4343904445505302  0.018189249731179295  0.3348154444053789  1.0000
  H   H18       1.0  0.5656084014752523  0.9818082659522105  0.6651840175747594  1.0000
  H   H19       1.0  0.3770738726600413  0.05953211236125358  0.10510380434845959  1.0000
  H   H20       1.0  0.6229255406232213  0.9404664790198892  0.8948949460088683  1.0000
  H   H21       1.0  0.640975024033736  0.18078655363017757  0.04456248709506377  1.0000
  H   H22       1.0  0.3590256194068644  0.8192120395689672  0.9554375016325806  1.0000
  C   C1        1.0  0.4493731126367138  0.4292770633701082  0.15807882035305448  1.0000
  C   C2        1.0  0.5506268677480008  0.5707226035880382  0.841920115850442  1.0000
  C   C3        1.0  0.6366537260995031  0.48124980462132083  0.20038981214054988  1.0000
  C   C4        1.0  0.3633450239718456  0.5187498603980742  0.7996087831616093  1.0000
  C   C5        1.0  0.7364546726087369  0.4706717675333821  0.3259939046633065  1.0000
  C   C6        1.0  0.2635453076199568  0.5293278993040218  0.6740059290091693  1.0000
  C   C7        1.0  0.6466264390092249  0.41023158219491046  0.40577491499792717  1.0000
  C   C8        1.0  0.35337410832092786  0.5897691602195039  0.5942251045207243  1.0000
  C   C9        1.0  0.45832707033000014  0.3620119492506718  0.3569903679854036  1.0000
  C   C10       1.0  0.5416728137882456  0.6379898668019947  0.6430094964780793  1.0000
  C   C11       1.0  0.35083846907199495  0.2995456449465763  0.4351992282554491  1.0000
  C   C12       1.0  0.6491613186237614  0.7004583200798677  0.564802461936992  1.0000
  C   C13       1.0  0.42224065173269315  0.2741136125857794  0.5613425401559624  1.0000
  C   C14       1.0  0.5777616931682913  0.7258882074651324  0.43865710864122315  1.0000
  C   C15       1.0  0.3052341284983981  0.2160778675301742  0.6240575128083704  1.0000
  C   C16       1.0  0.6947669859332137  0.7839239504612439  0.37594269255644974  1.0000
  C   C17       1.0  0.1207769352298413  0.1817869050946541  0.5600076622331329  1.0000
  C   C18       1.0  0.8792267359389357  0.8182127675589969  0.4399931941433692  1.0000
  C   C19       1.0  0.05789965188948542  0.20806888847273805  0.433167649457694  1.0000
  C   C20       1.0  0.9421020294875575  0.7919340049749479  0.5668336392222811  1.0000
  C   C21       1.0  0.8651445684177826  0.1700410528682497  0.3502106967189177  1.0000
  C   C22       1.0  0.1348554118109107  0.829958613969154  0.649789136953558  1.0000
  C   C23       1.0  0.72556646306478  0.10886349810780872  0.3936040822333667  1.0000
  C   C24       1.0  0.2744323829610097  0.8911340175755742  0.6063953797467648  1.0000
  C   C25       1.0  0.5472361236722207  0.06761741432872269  0.30521468527678036  1.0000
  C   C26       1.0  0.452763856712494  0.9323822526294309  0.6947842509267161  1.0000
  C   C27       1.0  0.5138018582913517  0.0910281242230369  0.1777427604749278  1.0000
  C   C28       1.0  0.48619944851717634  0.9089693954585985  0.8222564858389062  1.0000
  C   C29       1.0  0.660074385979101  0.15701386599905479  0.14246519378158248  1.0000
  C   C30       1.0  0.3399250273041615  0.842984725382081  0.8575335565757456  1.0000
  N   N1        1.0  0.36223681002533686  0.370647181048284  0.23423730100970627  1.0000
  N   N2        1.0  0.637762507147471  0.6293535595481217  0.7657614801386288  1.0000
  N   N3        1.0  0.17360845512197898  0.26729793656475204  0.37589426178588775  1.0000
  N   N4        1.0  0.8263926591536119  0.7327038813059232  0.6241068410479115  1.0000
  N   N5        1.0  0.8310997618947624  0.19425304639957375  0.22663344215914083  1.0000
  N   N6        1.0  0.16890021802190353  0.805746620196338  0.7733681864512931  1.0000
  O   O1        1.0  0.30862823420797264  0.7174446422433859  0.1410295116549847  1.0000
  O   O2        1.0  0.691371178763255  0.2825539488962647  0.8589710336403015  1.0000
  O   O3        1.0  0.13871874539537998  0.6319221713916221  0.30849159371867063  1.0000
  O   O4        1.0  0.8612794372624818  0.3680764178092772  0.6915086106752709  1.0000
  O   O5        1.0  0.9421987717423762  0.7157433577124621  0.09291673027400563  1.0000
  O   O6        1.0  0.057801775431755686  0.2842573845812026  0.907084186713618  1.0000
  O   O7        1.0  0.01316689776066234  0.4258465846075269  0.08893047861542411  1.0000
  O   O8        1.0  0.986831188630731  0.5741541536878927  0.9110706540385037  1.0000
  O   O9        1.0  0.9939289392782346  0.8993760449678522  0.9399666585748179  1.0000
  O   O10       1.0  0.006071040794445499  0.10062362174880228  0.06003407256663709  1.0000
  O   O11       1.0  0.7483006442993414  0.8702731961615133  0.11252634113548511  1.0000
  O   O12       1.0  0.25169810545997956  0.12972646861639703  0.8874740491046326  1.0000
  O   O13       1.0  0.12134115012312927  0.9729836122209506  0.2694398411064114  1.0000
  O   O14       1.0  0.8786588296375085  0.027016054254211497  0.7305626849730017  1.0000
