data_image0
_chemical_formula_structural       Cu4Mo8H32C32N16O26
_chemical_formula_sum              "Cu4 Mo8 H32 C32 N16 O26"
_cell_length_a       10.620374110676208
_cell_length_b       11.603321041319916
_cell_length_c       12.06643406538943
_cell_angle_alpha    93.90943468463993
_cell_angle_beta     115.90997803323029
_cell_angle_gamma    97.59551297998392

_space_group_name_H-M_alt    "P 1"
_space_group_IT_number       1

loop_
  _space_group_symop_operation_xyz
  'x, y, z'

loop_
  _atom_site_type_symbol
  _atom_site_label
  _atom_site_symmetry_multiplicity
  _atom_site_fract_x
  _atom_site_fract_y
  _atom_site_fract_z
  _atom_site_occupancy
  Cu  Cu1       1.0  0.16494063944528384  0.2532477733499475  0.1353278491830565  1.0000
  Cu  Cu2       1.0  0.8350591129186427  0.7467527954413739  0.8646720045505775  1.0000
  Cu  Cu3       1.0  0.12324240112107529  0.5115249214979726  0.3087411933870072  1.0000
  Cu  Cu4       1.0  0.8767583899759117  0.4884756469345675  0.691260720453741  1.0000
  Mo  Mo1       1.0  0.3787334558410719  0.7511659701914721  0.9735396670462181  1.0000
  Mo  Mo2       1.0  0.6212675418608953  0.24883547018354335  0.02646072301191545  1.0000
  Mo  Mo3       1.0  0.6414954690899182  0.965767948132985  0.13416207957054382  1.0000
  Mo  Mo4       1.0  0.35850553190535805  0.034233489100536495  0.8658374828142428  1.0000
  Mo  Mo5       1.0  0.2852191183954247  0.9807682333771979  0.0924449279359507  1.0000
  Mo  Mo6       1.0  0.7147808274002686  0.0192332199225831  0.9075567127084625  1.0000
  Mo  Mo7       1.0  0.5467255328516742  0.19976666974096705  0.262821497206744  1.0000
  Mo  Mo8       1.0  0.4532771521595719  0.8002330040410612  0.7371802669174131  1.0000
  H   H1        1.0  0.2299895123456679  0.540640198634712  0.5734944294142892  1.0000
  H   H2        1.0  0.7700075106826176  0.45936214024987265  0.4265028178195537  1.0000
  H   H3        1.0  0.9469542691929788  0.28378527953666577  0.2817549789989683  1.0000
  H   H4        1.0  0.053046128453878724  0.7162135261619508  0.7182450163669143  1.0000
  H   H5        1.0  0.8958624203696174  0.16521489739180586  0.42508740143861706  1.0000
  H   H6        1.0  0.10413588993121442  0.8347839184488565  0.5749109567330777  1.0000
  H   H7        1.0  0.020029911097338985  0.23945002752603264  0.6559137544659635  1.0000
  H   H8        1.0  0.9799687893603206  0.760550554190054  0.3440873498539431  1.0000
  H   H9        1.0  0.3243409791892446  0.4264682193651693  0.8075237021643815  1.0000
  H   H10       1.0  0.6756571277999086  0.5735297213915231  0.1924753521165812  1.0000
  H   H11       1.0  0.22948526308808684  0.5445825935195785  0.7753313411851508  1.0000
  H   H12       1.0  0.7705119985997796  0.4554162321043549  0.22466743989946977  1.0000
  H   H13       1.0  0.9087853578039429  0.3690382982197491  0.9325618331530522  1.0000
  H   H14       1.0  0.09121419124831216  0.6309613954876027  0.06743871668984266  1.0000
  H   H15       1.0  0.3245107988267435  0.34325308765684776  0.9873268425716972  1.0000
  H   H16       1.0  0.675488546913833  0.6567457309665272  0.012674403380465434  1.0000
  H   H17       1.0  0.34703769931292777  0.2921882124020171  0.4059984358706643  1.0000
  H   H18       1.0  0.6529618464460256  0.707811484446829  0.5940029416455771  1.0000
  H   H19       1.0  0.9958804656408377  0.0515767892244838  0.14910474225673204  1.0000
  H   H20       1.0  0.004120980618985585  0.9484220066908692  0.8508948301962249  1.0000
  H   H21       1.0  0.00904092105263736  0.9239337643256033  0.3073117082880045  1.0000
  H   H22       1.0  0.9909592798691591  0.07606416000604808  0.6926873278404457  1.0000
  H   H23       1.0  0.21152268516508602  0.98012726844145  0.5269745511252211  1.0000
  H   H24       1.0  0.788479157838175  0.019873287066332103  0.4730261121292472  1.0000
  H   H25       1.0  0.3608721183429893  0.181379820951058  0.676707246565023  1.0000
  H   H26       1.0  0.639128879358978  0.8186216194239647  0.3232931434931174  1.0000
  H   H27       1.0  0.4739765858761018  0.10415514316625259  0.6411773986553797  1.0000
  H   H28       1.0  0.5260244085325565  0.8958463003502568  0.3588238190761074  1.0000
  H   H29       1.0  0.7007889848145082  0.23078606498328463  0.6576438090522103  1.0000
  H   H30       1.0  0.2992082735800495  0.7692127637821359  0.34235579970576413  1.0000
  H   H31       1.0  0.5846302316585579  0.560088023465326  0.6931184629010687  1.0000
  H   H32       1.0  0.41536931739369726  0.4399116702420259  0.30688208694182617  1.0000
  C   C1        1.0  0.15711763031683287  0.4566418272277841  0.5447963532448981  1.0000
  C   C2        1.0  0.8428829673483947  0.5433578566962963  0.45520377368507076  1.0000
  C   C3        1.0  0.9996461514019402  0.3128084618482844  0.38161462590117884  1.0000
  C   C4        1.0  0.0003542429516088146  0.6871903469918267  0.618386197138058  1.0000
  C   C5        1.0  0.9722041215772633  0.24707354943320323  0.46298131832998707  1.0000
  C   C6        1.0  0.027796072757915617  0.7529243811814369  0.5370193731451636  1.0000
  C   C7        1.0  0.040122743139193104  0.2887848677442193  0.5900267867805766  1.0000
  C   C8        1.0  0.9598753638499673  0.7112130730124729  0.409972267500379  1.0000
  C   C9        1.0  0.1343736452441391  0.3958988690580013  0.6322302520655825  1.0000
  C   C10       1.0  0.8656246650566928  0.604099946782668  0.36776810610611216  1.0000
  C   C11       1.0  0.21686668967279835  0.448465729207541  0.7672314283724475  1.0000
  C   C12       1.0  0.7831307753267395  0.5515339715003618  0.23276665660291232  1.0000
  C   C13       1.0  0.005071461853312096  0.37598954248696254  0.9206650851108477  1.0000
  C   C14       1.0  0.9949282905106217  0.624011026304359  0.07933476862278625  1.0000
  C   C15       1.0  0.21681117523213086  0.36111270459822725  0.951020394803507  1.0000
  C   C16       1.0  0.7831898191765275  0.6388887389182826  0.048980822927980186  1.0000
  C   C17       1.0  0.27594227419960043  0.20916832133528362  0.38841521167604026  1.0000
  C   C18       1.0  0.7240570814208948  0.7908304878636084  0.6115835512560748  1.0000
  C   C19       1.0  0.0779193660837265  0.07571521311817259  0.2446593583972927  1.0000
  C   C20       1.0  0.9220810315631314  0.9242835925804441  0.7553406369685902  1.0000
  C   C21       1.0  0.0884063841436813  0.0033609767066450995  0.33418821495528317  1.0000
  C   C22       1.0  0.9115929648902037  0.9966378387752356  0.6658122033235256  1.0000
  C   C23       1.0  0.1981492762480244  0.035043228319850094  0.45411929565909753  1.0000
  C   C24       1.0  0.8018513214172031  0.9649564556042376  0.5458808312708711  1.0000
  C   C25       1.0  0.2941964339709243  0.14045305702233427  0.48227083952771466  1.0000
  C   C26       1.0  0.705804163694303  0.8595466269017463  0.5177292874022541  1.0000
  C   C27       1.0  0.4099634525751554  0.17363588722513865  0.6139021761686293  1.0000
  C   C28       1.0  0.5900364998071409  0.8263655597916466  0.38609780912908315  1.0000
  C   C29       1.0  0.6428270220620219  0.3006605180243157  0.6587512738091802  1.0000
  C   C30       1.0  0.3571727237152941  0.6993400570499942  0.34125023527114706  1.0000
  C   C31       1.0  0.5798928561513037  0.46628032737642383  0.6743163311423359  1.0000
  C   C32       1.0  0.42010772834070303  0.5337193691136334  0.3256871064810269  1.0000
  N   N1        1.0  0.09160895605895546  0.4166686443180437  0.4215663757846855  1.0000
  N   N2        1.0  0.9083893509485677  0.5833301746641126  0.578432810060356  1.0000
  N   N3        1.0  0.15382190879108035  0.4078346821840596  0.8464447160460223  1.0000
  N   N4        1.0  0.8461786888741472  0.5921650017400281  0.15355541088394628  1.0000
  N   N5        1.0  0.01835383216344159  0.4188409254535371  0.8258159360557186  1.0000
  N   N6        1.0  0.981645920200492  0.5811596433377844  0.17418391767791502  1.0000
  N   N7        1.0  0.1257982347596496  0.3403374048175323  0.00017436204763749172  1.0000
  N   N8        1.0  0.874202411108854  0.6596637991612225  0.9998258472583146  1.0000
  N   N9        1.0  0.17041927897079737  0.1772120895984699  0.2710294679364296  1.0000
  N   N10       1.0  0.829581118676053  0.8227867161001471  0.7289705274294604  1.0000
  N   N11       1.0  0.5065428620415772  0.2833494219794801  0.6386056355349297  1.0000
  N   N12       1.0  0.4934566935972953  0.7166502654448834  0.3613932589612716  1.0000
  N   N13       1.0  0.4647009503171872  0.3881320848960641  0.6489486795521202  1.0000
  N   N14       1.0  0.5352987987534377  0.6118684870367515  0.35105200185486024  1.0000
  N   N15       1.0  0.6928598717610014  0.4164605382659586  0.6812389775904321  1.0000
  N   N16       1.0  0.3071407094376966  0.5835391613655929  0.31876528770627743  1.0000
  O   O1        1.0  0.2264330828977136  0.6797968959071453  0.9734291662807165  1.0000
  O   O2        1.0  0.7735679148042536  0.3202045444678702  0.026571223777423773  1.0000
  O   O3        1.0  0.4972147782716334  0.6569355442081387  0.02811813777996257  1.0000
  O   O4        1.0  0.5027812249049645  0.3430624223980772  0.9718834176735454  1.0000
  O   O5        1.0  0.46358005304044536  0.8715396722922432  0.12288152836799776  1.0000
  O   O6        1.0  0.5364257391685143  0.12846436362611507  0.8771175647306819  1.0000
  O   O7        1.0  0.2607948965641497  0.9181222645969453  0.9242421707043746  1.0000
  O   O8        1.0  0.7392100856914112  0.08187826784402569  0.0757588791580162  1.0000
  O   O9        1.0  0.46630464534410987  0.09473643534897039  0.051903001723374635  1.0000
  O   O10       1.0  0.5336967589812076  0.9052667551939917  0.9480959961162368  1.0000
  O   O11       1.0  0.3276840608589921  0.7287481656105681  0.8005104128323807  1.0000
  O   O12       1.0  0.6723215633861912  0.2712506068791853  0.19949160633561283  1.0000
  O   O13       1.0  0.6735590592986255  0.05986946935042428  0.27071269558843614  1.0000
  O   O14       1.0  0.3264379604363583  0.9401328726756544  0.729285379318753  1.0000
  O   O15       1.0  0.19408364711718207  0.8704551783186713  0.13023267769808908  1.0000
  O   O16       1.0  0.8059131758927336  0.12954628234044208  0.8697644379716678  1.0000
  O   O17       1.0  0.41927011761210753  0.05967531130757917  0.2527581900581808  1.0000
  O   O18       1.0  0.5807300668431521  0.9403226287315429  0.7472449844370104  1.0000
  O   O19       1.0  0.17302002961528729  0.08195244107584897  0.04035505141559527  1.0000
  O   O20       1.0  0.8269811779849688  0.9180498681001551  0.9596429871865765  1.0000
  O   O21       1.0  0.4162602576504923  0.28630093592511935  0.20336975482278769  1.0000
  O   O22       1.0  0.5837436694054859  0.7136996125820971  0.7966333732992225  1.0000
  O   O23       1.0  0.6391567821818781  0.24982080637136048  0.4189903346305002  1.0000
  O   O24       1.0  0.3608469514423405  0.7501788576274037  0.5810110065807379  1.0000
  O   O25       1.0  0.756557655080279  0.8698017860871801  0.18835274756001036  1.0000
  O   O26       1.0  0.24343982309247994  0.13019790205474635  0.8116420267219552  1.0000
