data_image0
_chemical_formula_structural       Zn2H64C68N8O8
_chemical_formula_sum              "Zn2 H64 C68 N8 O8"
_cell_length_a       8.660010928
_cell_length_b       11.771256693979147
_cell_length_c       16.2863
_cell_angle_alpha    99.88110824872864
_cell_angle_beta     90.0
_cell_angle_gamma    111.58279813424173

_space_group_name_H-M_alt    "P 1"
_space_group_IT_number       1

loop_
  _space_group_symop_operation_xyz
  'x, y, z'

loop_
  _atom_site_type_symbol
  _atom_site_label
  _atom_site_symmetry_multiplicity
  _atom_site_fract_x
  _atom_site_fract_y
  _atom_site_fract_z
  _atom_site_occupancy
  Zn  Zn1       1.0  0.33545194280504376  0.9998163928340276  0.7499921476266493  1.0000
  Zn  Zn2       1.0  0.664544982787092  0.0001794024557711  0.2500090500974324  1.0000
  H   H1        1.0  0.48726908064936947  0.8349938723938594  0.7708550101771365  1.0000
  H   H2        1.0  0.6524740307010006  0.1643121994649448  0.7290661669191181  1.0000
  H   H3        1.0  0.51273270346028  0.165004711535147  0.22914776144929053  1.0000
  H   H4        1.0  0.34752473958415914  0.8356826662784513  0.2709392136038957  1.0000
  H   H5        1.0  0.48488553257403316  0.7868526641847566  0.8684434652405955  1.0000
  H   H6        1.0  0.6980481562419669  0.2124859417981497  0.6314743789234143  1.0000
  H   H7        1.0  0.5151157867627347  0.21314499019784713  0.1315585770807175  1.0000
  H   H8        1.0  0.3019501636688204  0.7875126421308566  0.3685320767810368  1.0000
  H   H9        1.0  0.6755578412646128  0.8447866437490036  0.8208658400495921  1.0000
  H   H10       1.0  0.8307049448623047  0.1543102801691418  0.6788894013570399  1.0000
  H   H11       1.0  0.3244437176578501  0.1552137992728149  0.179137162161048  1.0000
  H   H12       1.0  0.1692929102756011  0.845687374213469  0.3211150970162961  1.0000
  H   H13       1.0  0.824492041489229  0.2380345246833997  0.0877860081044446  1.0000
  H   H14       1.0  0.5854983816196649  0.7609238968206995  0.4121632752515936  1.0000
  H   H15       1.0  0.17549497067771816  0.7619668478848213  0.9122164953853016  1.0000
  H   H16       1.0  0.414509894911852  0.2390830530259365  0.587838691964798  1.0000
  H   H17       1.0  0.4744403152451324  0.2933574084017394  0.8613166513116326  1.0000
  H   H18       1.0  0.17991838160710924  0.7064580548858856  0.6385019223490502  1.0000
  H   H19       1.0  0.5255524561880662  0.7066393164344618  0.13868281966554719  1.0000
  H   H20       1.0  0.8200785439850264  0.293537740403913  0.3614949772840034  1.0000
  H   H21       1.0  0.7840559991972497  0.43891972737265667  0.09268323507815518  1.0000
  H   H22       1.0  0.34372663701142864  0.5603175580523327  0.4072453747401569  1.0000
  H   H23       1.0  0.2159312381568839  0.5610797861027521  0.9073178098013699  1.0000
  H   H24       1.0  0.6562890182921848  0.43968567360869326  0.5927549032817865  1.0000
  H   H25       1.0  0.610806336385707  0.4648633674791682  0.9827574754598132  1.0000
  H   H26       1.0  0.14439368384735468  0.5347643274350631  0.5171311391715818  1.0000
  H   H27       1.0  0.38918366080870465  0.5351324278106375  0.0172412662122525  1.0000
  H   H28       1.0  0.8556161833929679  0.4652342564939431  0.4828661063377949  1.0000
  H   H29       1.0  0.7081868533419565  0.883536644649034  0.9795467512644223  1.0000
  H   H30       1.0  0.8238009923306819  0.1156086156820635  0.5201886967856738  1.0000
  H   H31       1.0  0.2918200288709015  0.11646751655839438  0.020454256062635102  1.0000
  H   H32       1.0  0.17620151053606747  0.8843983341645796  0.47981818253475683  1.0000
  H   H33       1.0  0.759439001129536  0.0139422664979421  0.06106686911338238  1.0000
  H   H34       1.0  0.7449594176641483  0.985026380016592  0.4387743881409989  1.0000
  H   H35       1.0  0.24056164264567295  0.9860609651630838  0.9389352509475728  1.0000
  H   H36       1.0  0.25504585944138825  0.0149814993764465  0.5612301504195187  1.0000
  H   H37       1.0  0.009176711578696489  0.1287598381910868  0.9875008206668383  1.0000
  H   H38       1.0  0.8810051613306129  0.8709543045386212  0.5123843938315886  1.0000
  H   H39       1.0  0.9908218767148181  0.8712508298411663  0.01250283574400159  1.0000
  H   H40       1.0  0.11899756672331559  0.1290507862152097  0.4876179568135868  1.0000
  H   H41       1.0  0.9630416738789052  0.9986209961598291  0.9071693641281868  1.0000
  H   H42       1.0  0.9642114566326754  0.0011089488587288  0.5927816676885911  1.0000
  H   H43       1.0  0.0369617729321234  0.0013924605116316  0.0928327961199642  1.0000
  H   H44       1.0  0.03579196138132788  0.9988952123486995  0.4072224097034933  1.0000
  H   H45       1.0  0.9260675232167017  0.7057766973725208  0.8666706076358109  1.0000
  H   H46       1.0  0.22147956724968756  0.2947424325421437  0.6334943556394207  1.0000
  H   H47       1.0  0.07392475464659037  0.2942098024532527  0.133328209141176  1.0000
  H   H48       1.0  0.7785171187567456  0.7052505741084474  0.3665003560782907  1.0000
  H   H49       1.0  0.640136456465477  0.5546621977367465  0.8777454995980563  1.0000
  H   H50       1.0  0.08659963552418048  0.4457881457441033  0.6224164581781508  1.0000
  H   H51       1.0  0.35985556741360364  0.4453168657177997  0.1222462547120102  1.0000
  H   H52       1.0  0.9134030637327228  0.5542076495457025  0.3775761433638678  1.0000
  H   H53       1.0  0.42290338418087703  0.49790223527943317  0.7616998040966932  1.0000
  H   H54       1.0  0.9252821905069479  0.5020006053700712  0.7382874083644708  1.0000
  H   H55       1.0  0.5770939917856309  0.5020898418247555  0.23829172226388806  1.0000
  H   H56       1.0  0.0747267759846437  0.4980054149301623  0.2617052333647365  1.0000
  H   H57       1.0  0.49202389469132163  0.593859310456601  0.6347663139819204  1.0000
  H   H58       1.0  0.8980598653433345  0.4057730321896429  0.8650829662647156  1.0000
  H   H59       1.0  0.5079755943509382  0.4061439212044249  0.3652308939750029  1.0000
  H   H60       1.0  0.1019414827904583  0.5942339176569931  0.13491163279562102  1.0000
  H   H61       1.0  0.779731560515813  0.746217543179533  0.6249171355548881  1.0000
  H   H62       1.0  0.033618133807799176  0.2535895541904694  0.8749789941414363  1.0000
  H   H63       1.0  0.22026816811214184  0.2537884771207004  0.3750865584084053  1.0000
  H   H64       1.0  0.9663788205813615  0.7464155365633616  0.12501783038670308  1.0000
  C   C1        1.0  0.556107146486589  0.8556586184779748  0.8311936227386383  1.0000
  C   C2        1.0  0.7004321862531384  0.143593539689455  0.6686656062448578  1.0000
  C   C3        1.0  0.4438930181172224  0.144339035904629  0.1688090335956787  1.0000
  C   C4        1.0  0.29956451415180396  0.8564041146931487  0.33133950614147517  1.0000
  C   C5        1.0  0.582081808928578  0.9830929234984467  0.874160229105506  1.0000
  C   C6        1.0  0.5986759650328536  0.0161917687930924  0.6257411039080978  1.0000
  C   C7        1.0  0.4179158210221344  0.0169065899769691  0.12584204380002006  1.0000
  C   C8        1.0  0.4013246643438462  0.9838068151359137  0.3742622817313261  1.0000
  C   C9        1.0  0.6782198023751106  0.1577021949935258  0.9689719653010512  1.0000
  C   C10       1.0  0.5197639898228417  0.8414895426577189  0.5309786257891318  1.0000
  C   C11       1.0  0.32177782757560175  0.8422973184818829  0.031026623526443614  1.0000
  C   C12       1.0  0.48023572440660434  0.1585118299105019  0.4690226496746064  1.0000
  C   C13       1.0  0.5769554330038671  0.1704295443428023  0.9056192836134258  1.0000
  C   C14       1.0  0.40574855392864606  0.8290057344660156  0.5943099369169076  1.0000
  C   C15       1.0  0.4230445064127579  0.8295699691326136  0.0943805332400842  1.0000
  C   C16       1.0  0.5942532301810033  0.1709928494629906  0.4056909926705002  1.0000
  C   C17       1.0  0.754589244207736  0.2521617709155279  0.0373452701304657  1.0000
  C   C18       1.0  0.5014406445310726  0.7469490961986551  0.46261800902740907  1.0000
  C   C19       1.0  0.24540862532867883  0.7478405311990955  0.9626579626643945  1.0000
  C   C20       1.0  0.49856946229495946  0.2530522763695586  0.5373844944623372  1.0000
  C   C21       1.0  0.5515248467663199  0.281910044449333  0.9094820632045069  1.0000
  C   C22       1.0  0.26853613991843867  0.7176683845055365  0.5903967568670865  1.0000
  C   C23       1.0  0.4484716284514434  0.7180894690260757  0.09051713963599889  1.0000
  C   C24       1.0  0.7314660945655759  0.2823264812378596  0.40960186951287614  1.0000
  C   C25       1.0  0.7279180237492825  0.3626021085971516  0.04029064515341222  1.0000
  C   C26       1.0  0.36404464303370787  0.6366602745807128  0.4596251132137112  1.0000
  C   C27       1.0  0.27207845146848086  0.6373974048782571  0.9597091717000978  1.0000
  C   C28       1.0  0.6359649990194285  0.3633401684410984  0.5403735909058938  1.0000
  C   C29       1.0  0.628417303762248  0.37686599815051386  0.9774398459154057  1.0000
  C   C30       1.0  0.250225633148048  0.6226501511953586  0.5224386177409457  1.0000
  C   C31       1.0  0.3715828752400725  0.6231363039641096  0.022560316814434583  1.0000
  C   C32       1.0  0.7497851636380515  0.3773502918264526  0.4775600863786664  1.0000
  C   C33       1.0  0.7698907304851942  0.9851546574202034  0.9941761135236078  1.0000
  C   C34       1.0  0.7841839319830654  0.013993391550101802  0.5056634486006288  1.0000
  C   C35       1.0  0.2301122227559276  0.0148485742408226  0.0058260065373545  1.0000
  C   C36       1.0  0.21581926084375164  0.9860126287501316  0.4943414733886797  1.0000
  C   C37       1.0  0.9523660696613234  0.026411201947190904  0.9742575400865122  1.0000
  C   C38       1.0  0.9259089762180179  0.9732908566792702  0.5256746826418777  1.0000
  C   C39       1.0  0.04763898225703392  0.9735985365386527  0.025744773006209705  1.0000
  C   C40       1.0  0.074094216608799  0.0267151636209633  0.4743296253344198  1.0000
  C   C41       1.0  0.0404491081054346  0.8277685082036825  0.7365117142036227  1.0000
  C   C42       1.0  0.21314787013309203  0.1722384416429534  0.763559022469309  1.0000
  C   C43       1.0  0.9595436633277715  0.1722282166325257  0.2634889847995723  1.0000
  C   C44       1.0  0.7868474359532058  0.8277564241004428  0.2364408319366618  1.0000
  C   C45       1.0  0.8705149171085295  0.7343965015731371  0.7445846794167323  1.0000
  C   C46       1.0  0.1366260060833397  0.2656401937583937  0.7554301873422204  1.0000
  C   C47       1.0  0.12948040337627728  0.2656030119022716  0.2554151374367777  1.0000
  C   C48       1.0  0.8633750880662416  0.7343593197170222  0.24456717345927356  1.0000
  C   C49       1.0  0.8306570624984602  0.6802950418282876  0.8159707621683907  1.0000
  C   C50       1.0  0.15118195694438438  0.3199368582478712  0.6841069987527533  1.0000
  C   C51       1.0  0.16933960910946405  0.3196933170902909  0.18402582914079346  1.0000
  C   C52       1.0  0.8488161233807077  0.6800589370419345  0.3158880588412885  1.0000
  C   C53       1.0  0.6702640694774331  0.595568746291633  0.8218900349601554  1.0000
  C   C54       1.0  0.07544160513852917  0.4046129582787544  0.6781741320310459  1.0000
  C   C55       1.0  0.32973606632934593  0.4044196126269384  0.17810471431001668  1.0000
  C   C56       1.0  0.9245590242381637  0.5953856256502519  0.32182127143932593  1.0000
  C   C57       1.0  0.5482914019043363  0.5637131910623268  0.7567795950289238  1.0000
  C   C58       1.0  0.9848944185048296  0.4361952268655926  0.7431653282745643  1.0000
  C   C59       1.0  0.45170621364786706  0.4362816746810694  0.2432153472730079  1.0000
  C   C60       1.0  0.015111773747960874  0.5638098638882383  0.2568290402015521  1.0000
  C   C61       1.0  0.5871087862120702  0.6172002206348282  0.6854094061439325  1.0000
  C   C62       1.0  0.9699763641734762  0.382576201703877  0.8144798488477676  1.0000
  C   C63       1.0  0.4128899984715986  0.3827992928405806  0.31458672663154624  1.0000
  C   C64       1.0  0.0300309972107797  0.6174335367819737  0.1855163241149  1.0000
  C   C65       1.0  0.7472447829214061  0.7021654095970362  0.6794724844228099  1.0000
  C   C66       1.0  0.0452369178339893  0.297677010536276  0.8204427626857722  1.0000
  C   C67       1.0  0.2527535513878973  0.2978378220639897  0.3205284076121444  1.0000
  C   C68       1.0  0.9547593321965877  0.7023243620319448  0.1795517586349149  1.0000
  N   N1        1.0  0.6776167008951505  0.0382443276568267  0.9474505237763111  1.0000
  N   N2        1.0  0.638901549771127  0.9608618917253438  0.5524661279456637  1.0000
  N   N3        1.0  0.32238185860133234  0.9617570449113941  0.052551979713435115  1.0000
  N   N4        1.0  0.3611025582029441  0.039141339935675  0.44753722014130654  1.0000
  N   N5        1.0  0.5180879812882822  0.0593989446953032  0.8477214437586582  1.0000
  N   N6        1.0  0.4581838798971205  0.9401004728153239  0.6521709089778511  1.0000
  N   N7        1.0  0.48190871911666716  0.9405987096873076  0.1522799845496507  1.0000
  N   N8        1.0  0.541817214252454  0.0598990406600919  0.3478319779406789  1.0000
  O   O1        1.0  0.15886222891287352  0.8470361460441537  0.7918619527416838  1.0000
  O   O2        1.0  0.3122836296221649  0.1528843559870054  0.7082428847144583  1.0000
  O   O3        1.0  0.841131951237493  0.1529680151632675  0.2081427386634047  1.0000
  O   O4        1.0  0.6877112116912442  0.8471095802099881  0.2917586964384213  1.0000
  O   O5        1.0  0.06425881374372713  0.884436445567097  0.6758091064988747  1.0000
  O   O6        1.0  0.17993847467706559  0.1154431564223373  0.8241985561537462  1.0000
  O   O7        1.0  0.9357406321029842  0.11555284289788402  0.32418698608941543  1.0000
  O   O8        1.0  0.8200508469557874  0.8845582161458836  0.175805789375012  1.0000
