data_image0
_chemical_formula_structural       Zn8H4C52I8O26
_chemical_formula_sum              "Zn8 H4 C52 I8 O26"
_cell_length_a       20.776694424415926
_cell_length_b       20.927314243202723
_cell_length_c       20.926896715080076
_cell_angle_alpha    103.82046260963118
_cell_angle_beta     112.10277552775987
_cell_angle_gamma    112.07056472116227

_space_group_name_H-M_alt    "P 1"
_space_group_IT_number       1

loop_
  _space_group_symop_operation_xyz
  'x, y, z'

loop_
  _atom_site_type_symbol
  _atom_site_label
  _atom_site_symmetry_multiplicity
  _atom_site_fract_x
  _atom_site_fract_y
  _atom_site_fract_z
  _atom_site_occupancy
  Zn  Zn1       1.0  0.42813654494699455  0.7223289554952785  0.7911351506176132  1.0000
  Zn  Zn2       1.0  0.4292115212110232  0.2921243263492527  0.22260383327691366  1.0000
  Zn  Zn3       1.0  0.567629485809654  0.8634084909978057  0.7947287275582228  1.0000
  Zn  Zn4       1.0  0.43237181130695024  0.13658969985316824  0.20526810219848096  1.0000
  Zn  Zn5       1.0  0.5707920997057913  0.7078715552764409  0.7774024077458679  1.0000
  Zn  Zn6       1.0  0.5718734087894292  0.2776755404995868  0.20886739278000027  1.0000
  Zn  Zn7       1.0  0.43321226359134357  0.7064229251515997  0.6364465987833584  1.0000
  Zn  Zn8       1.0  0.5667863477112149  0.2935770071414297  0.3635510617888046  1.0000
  H   H1        1.0  0.366439382938104  0.987198932451726  0.9508517622841098  1.0000
  H   H2        1.0  0.6335624584248762  0.012802138229744704  0.04914595322141222  1.0000
  H   H3        1.0  0.46332864480270813  0.3809665688775255  0.5145843542822136  1.0000
  H   H4        1.0  0.5366667385233725  0.6190322246944434  0.485412774206317  1.0000
  C   C1        1.0  0.5053535740822638  0.6126567524040069  0.6139444871168251  1.0000
  C   C2        1.0  0.49655679143185694  0.9425253717451058  0.9480924098324197  1.0000
  C   C3        1.0  0.5204075008381465  0.565765223078614  0.4915958262816105  1.0000
  C   C4        1.0  0.42587559609664544  0.9926381021143131  0.9724128549277469  1.0000
  C   C5        1.0  0.5741267552254216  0.0073629677345508  0.027586964365894976  1.0000
  C   C6        1.0  0.47958882890562643  0.43423529612856987  0.5084025450309042  1.0000
  C   C7        1.0  0.49450487110920704  0.445834579431022  0.4427560660612713  1.0000
  C   C8        1.0  0.5054948131542575  0.5541682288663168  0.5572402896953365  1.0000
  C   C9        1.0  0.5034495859575189  0.0574745294321133  0.05191008714601248  1.0000
  C   C10       1.0  0.5228523541540324  0.9943237891220631  0.06685631996395368  1.0000
  C   C11       1.0  0.4771496664132684  0.005676707954272301  0.9331465841570646  1.0000
  C   C12       1.0  0.4431270579754384  0.48569492397359687  0.4298191593589778  1.0000
  C   C13       1.0  0.4946374452256351  0.38733975207992444  0.38604806359998634  1.0000
  C   C14       1.0  0.5568665548905898  0.5143015693622885  0.5701738901426125  1.0000
  C   C15       1.0  0.5001008117375606  0.9050297337088297  0.59834231085285  1.0000
  C   C16       1.0  0.49990602579175925  0.09496440231600192  0.4016604316398116  1.0000
  C   C17       1.0  0.4996766838202688  0.5969445057906455  0.9036584760782561  1.0000
  C   C18       1.0  0.5003293110975164  0.4030594325732936  0.09634578583765581  1.0000
  C   C19       1.0  0.4975145025464728  0.8856129666270007  0.8905659299812643  1.0000
  C   C20       1.0  0.4999673488360725  0.9414117385328424  0.5602630550279315  1.0000
  C   C21       1.0  0.5000328027725374  0.05857204335021042  0.4397251600429398  1.0000
  C   C22       1.0  0.49978252649701466  0.5596312234302803  0.9408082165420738  1.0000
  C   C23       1.0  0.5002261324420588  0.44038423708184393  0.05920694081027745  1.0000
  C   C24       1.0  0.5024891755809406  0.1143857920029703  0.10943384434916234  1.0000
  C   C25       1.0  0.4999723048623183  0.9814707799913766  0.5189300532231303  1.0000
  C   C26       1.0  0.5000295312022375  0.0185170314239116  0.48106213898409317  1.0000
  C   C27       1.0  0.49990030435174776  0.5188109352682987  0.981364546611438  1.0000
  C   C28       1.0  0.5001031134840588  0.4811987838853895  0.018648709198032534  1.0000
  C   C29       1.0  0.8067642485651092  0.9041581097197878  0.9028808723838325  1.0000
  C   C30       1.0  0.19323888872578013  0.09584525637583849  0.09711070676578971  1.0000
  C   C31       1.0  0.8812092615517315  0.9410620657703674  0.9402584740782629  1.0000
  C   C32       1.0  0.1187868372709175  0.058943637001192394  0.059733388728858514  1.0000
  C   C33       1.0  0.9625602052343541  0.9814073279185181  0.9811702296479298  1.0000
  C   C34       1.0  0.03743830850476831  0.0185972216513903  0.0188366083404432  1.0000
  C   C35       1.0  0.49999979109401954  0.6408915680926198  0.8603171750127531  1.0000
  C   C36       1.0  0.5000064527423121  0.35911467167474603  0.1396829459246335  1.0000
  C   C37       1.0  0.49986208474030763  0.8611509767623888  0.6418252671142498  1.0000
  C   C38       1.0  0.5001329356276473  0.13884436304134337  0.35817568709067865  1.0000
  C   C39       1.0  0.7194715314966089  0.8603366173177278  0.8591247834281504  1.0000
  C   C40       1.0  0.28052740222497624  0.13966388907830657  0.14087170091774942  1.0000
  C   C41       1.0  0.2806540072309432  0.6381062797578708  0.6372312571673363  1.0000
  C   C42       1.0  0.719345755645172  0.36189768655881954  0.3627735254061122  1.0000
  C   C43       1.0  0.1933153068795264  0.5945469505848066  0.5930772350390185  1.0000
  C   C44       1.0  0.8066824108527157  0.4054599060451878  0.4069269801979163  1.0000
  C   C45       1.0  0.11884196435657657  0.5580908391562716  0.55727082828151  1.0000
  C   C46       1.0  0.8811532416537702  0.44191429999087023  0.44273394432180174  1.0000
  C   C47       1.0  0.037450685618381524  0.5182828745515241  0.5180319233259143  1.0000
  C   C48       1.0  0.9625477783015983  0.4817159106986112  0.4819730563885616  1.0000
  C   C49       1.0  0.44424120369311754  0.9299491741739702  0.9869892324741871  1.0000
  C   C50       1.0  0.5557584161636413  0.07004787213193003  0.013008605060470352  1.0000
  C   C51       1.0  0.42739143603611035  0.47257863199575934  0.4950453753733158  1.0000
  C   C52       1.0  0.5726026112045801  0.5274195881405603  0.5049472903144121  1.0000
  I   I1        1.0  0.356399125544698  0.8246770792928262  0.9699674103011448  1.0000
  I   I2        1.0  0.4401222510080629  0.013411079985033296  0.8281739451242558  1.0000
  I   I3        1.0  0.3553065252013141  0.4685905971889852  0.3244181857270902  1.0000
  I   I4        1.0  0.6446851139373779  0.531407059492395  0.6755777383405218  1.0000
  I   I5        1.0  0.5598817671541667  0.9865911360720075  0.17182725214281905  1.0000
  I   I6        1.0  0.643599447302705  0.17531997300234545  0.030032422610879884  1.0000
  I   I7        1.0  0.31462460873054715  0.42937067133939893  0.48853544003727484  1.0000
  I   I8        1.0  0.6853732012576117  0.5706344549965935  0.511467445599422  1.0000
  O   O1        1.0  0.4998919044172397  0.7503728973803518  0.7495318743909324  1.0000
  O   O2        1.0  0.5402873792338029  0.36261799950228385  0.41539718533267234  1.0000
  O   O3        1.0  0.4449428672750386  0.8150407456954271  0.8629756119011277  1.0000
  O   O4        1.0  0.5550647217404504  0.18495857821572773  0.13703341836738062  1.0000
  O   O5        1.0  0.5528457830890262  0.6548222668036345  0.8403844796952953  1.0000
  O   O6        1.0  0.44716357449793526  0.34517358537357995  0.15961579682988272  1.0000
  O   O7        1.0  0.5466974544187978  0.8995694641944  0.7146928845801171  1.0000
  O   O8        1.0  0.453292606912072  0.1004282026350509  0.285307702579523  1.0000
  O   O9        1.0  0.5001150960265124  0.2496252693440583  0.2504666252726083  1.0000
  O   O10       1.0  0.6865643663107904  0.7878401863317849  0.8369494311551409  1.0000
  O   O11       1.0  0.3134386908461835  0.2121603064183759  0.16305386333989697  1.0000
  O   O12       1.0  0.6843109376843515  0.8983997140624143  0.8471854754605348  1.0000
  O   O13       1.0  0.3156879534141979  0.10159791300100103  0.15281413552578021  1.0000
  O   O14       1.0  0.31640663684971326  0.6498679979386354  0.5996123021677279  1.0000
  O   O15       1.0  0.6835920850825872  0.35012559942306615  0.4003929830985413  1.0000
  O   O16       1.0  0.3129076202440899  0.6603821392845716  0.7096801141375124  1.0000
  O   O17       1.0  0.6870924184463973  0.3396298964141452  0.2903276343843543  1.0000
  O   O18       1.0  0.44754600902226827  0.6613793684508594  0.8465209294266317  1.0000
  O   O19       1.0  0.5524600139309968  0.338627451574034  0.15348354590080504  1.0000
  O   O20       1.0  0.452790935098605  0.7884221580906114  0.6025900976369911  1.0000
  O   O21       1.0  0.5471989449440146  0.21157608267660066  0.3974057780574257  1.0000
  O   O22       1.0  0.548991831274968  0.6314080831699371  0.6846870833322074  1.0000
  O   O23       1.0  0.45099773051649816  0.36858958282903137  0.31530901428791946  1.0000
  O   O24       1.0  0.5514624425287096  0.9147521267807123  0.8740477596626807  1.0000
  O   O25       1.0  0.4485353426475528  0.08524723124405399  0.12594754189679952  1.0000
  O   O26       1.0  0.459707900472381  0.6373796400417788  0.5845972421423512  1.0000
