data_image0
_chemical_formula_structural       Al2H14C24S2N2O10F2
_chemical_formula_sum              "Al2 H14 C24 S2 N2 O10 F2"
_cell_length_a       6.645522054228547
_cell_length_b       12.795691484316196
_cell_length_c       16.87913237777996
_cell_angle_alpha    85.38402096788064
_cell_angle_beta     83.3445910152432
_cell_angle_gamma    74.65676184397762

_space_group_name_H-M_alt    "P 1"
_space_group_IT_number       1

loop_
  _space_group_symop_operation_xyz
  'x, y, z'

loop_
  _atom_site_type_symbol
  _atom_site_label
  _atom_site_symmetry_multiplicity
  _atom_site_fract_x
  _atom_site_fract_y
  _atom_site_fract_z
  _atom_site_occupancy
  Al  Al1       1.0  0.49914230395051384  0.5004002505911131  0.4998896022511872  1.0000
  Al  Al2       1.0  0.9990583663833807  0.5004652264710998  0.5000363080890581  1.0000
  H   H1        1.0  0.20394543452157166  0.6253367688700637  0.4444504700971664  1.0000
  H   H2        1.0  0.7941664712026653  0.37562250210019243  0.5556563217686873  1.0000
  H   H3        1.0  0.9358359230761979  0.42987573927029404  0.7370434549234588  1.0000
  H   H4        1.0  0.8630270447125454  0.428909626200742  0.8863662671407228  1.0000
  H   H5        1.0  0.3228660540881522  0.6077683719991924  0.8940479002917173  1.0000
  H   H6        1.0  0.6818913078742311  0.3899570720963866  0.10593698556032649  1.0000
  H   H7        1.0  0.1376029689457141  0.5712160652116796  0.11391581662439171  1.0000
  H   H8        1.0  0.06255813342446713  0.5712247109542902  0.2631412984760075  1.0000
  H   H9        1.0  0.49545733307863327  0.6687700486644559  0.7826955042877943  1.0000
  H   H10       1.0  0.3827597417968607  0.6860564546601892  0.6899772668502139  1.0000
  H   H11       1.0  0.5853469169896787  0.5703429702864894  0.7087386485577342  1.0000
  H   H12       1.0  0.4155094495416379  0.42864673536625025  0.2901656293178193  1.0000
  H   H13       1.0  0.6183593004311873  0.31382563115792556  0.3106793814344898  1.0000
  H   H14       1.0  0.5090602974198434  0.3288488038618383  0.217359284845891  1.0000
  C   C1        1.0  0.6554959889194977  0.6953296086828471  0.5038882930250993  1.0000
  C   C2        1.0  0.7883135540506107  0.4925856105166345  0.3563727283674396  1.0000
  C   C3        1.0  0.3425500456300838  0.3055214008109104  0.4960346139775069  1.0000
  C   C4        1.0  0.21050446659603492  0.5079220214652267  0.6435964616678335  1.0000
  C   C5        1.0  0.17375752198253028  0.5162705329804211  0.7320243834618267  1.0000
  C   C6        1.0  0.020939098339276443  0.46775067772185974  0.7726638417033982  1.0000
  C   C7        1.0  0.9798105744171937  0.4670526882309573  0.854890888127315  1.0000
  C   C8        1.0  0.09244899621198509  0.5176854628722296  0.8983714896100781  1.0000
  C   C9        1.0  0.24112364176959028  0.5680764868262287  0.8581686928280093  1.0000
  C   C10       1.0  0.286574418408243  0.5685866592842856  0.775107556260956  1.0000
  C   C11       1.0  0.7623052950931637  0.4302884365826715  0.141896134979099  1.0000
  C   C12       1.0  0.9106327074467943  0.4809632308185173  0.10181344754686708  1.0000
  C   C13       1.0  0.021431485251739015  0.5326273801452645  0.1453148041212557  1.0000
  C   C14       1.0  0.9789826744825946  0.5324920783934175  0.22750852805244653  1.0000
  C   C15       1.0  0.826565470481306  0.4836003666104602  0.2680142533835337  1.0000
  C   C16       1.0  0.7154942913000824  0.4303561473282899  0.2249002608570549  1.0000
  C   C17       1.0  0.5866615756611537  0.11536138348346012  0.5198935233935913  1.0000
  C   C18       1.0  0.4112283673620923  0.8854912543575749  0.48000439020479757  1.0000
  C   C19       1.0  0.40471209034554095  0.18668659513555494  0.49630899926041383  1.0000
  C   C20       1.0  0.5931288291210493  0.8141770470982337  0.5036067706827652  1.0000
  C   C21       1.0  0.40689381326885155  0.9954846320770585  0.48562283198209133  1.0000
  C   C22       1.0  0.5910863529921998  0.005365249126356304  0.5142482645877351  1.0000
  C   C23       1.0  0.44630902293955194  0.6265054800634432  0.7373055360114478  1.0000
  C   C24       1.0  0.5558921695267784  0.3723032472750419  0.2626053405161955  1.0000
  S   S1        1.0  0.23293319127719767  0.11872123717557771  0.4668660407119063  1.0000
  S   S2        1.0  0.7648824810014148  0.8821135256764734  0.5331087196116757  1.0000
  N   N1        1.0  0.06691251336728513  0.5236999058894084  0.9822756735054555  1.0000
  N   N2        1.0  0.9369814630027521  0.4746455300679885  0.017934951315737607  1.0000
  O   O1        1.0  0.5172144006783483  0.6483522386540985  0.4906363601381685  1.0000
  O   O2        1.0  0.9310725328937651  0.5152872751950143  0.3913281146279814  1.0000
  O   O3        1.0  0.15308970107435027  0.3516723146908091  0.48324204280224603  1.0000
  O   O4        1.0  0.38378636099530883  0.5204216709547964  0.60874704972521  1.0000
  O   O5        1.0  0.4810842871600372  0.35244524701335667  0.5090972692576943  1.0000
  O   O6        1.0  0.06710414813433374  0.48562350389968145  0.6087690457440829  1.0000
  O   O7        1.0  0.8448723048175072  0.6492450514748781  0.51682979366106  1.0000
  O   O8        1.0  0.6147401749737328  0.4802143753394432  0.3910149110753238  1.0000
  O   O9        1.0  0.23389813789849265  0.5502547415728287  0.4644992836144795  1.0000
  O   O10       1.0  0.7642430728892011  0.4506377679618012  0.5354446998430121  1.0000
  F   F1        1.0  0.7442867942668558  0.1455866983326217  0.5470845599578169  1.0000
  F   F2        1.0  0.25352182297230297  0.8553291774066805  0.4528171307051423  1.0000
