data_image0
_chemical_formula_structural       Li6Pu2H24C28N4O26
_chemical_formula_sum              "Li6 Pu2 H24 C28 N4 O26"
_cell_length_a       8.61104898714021
_cell_length_b       9.630620055390128
_cell_length_c       12.720767714383857
_cell_angle_alpha    109.39396645888898
_cell_angle_beta     97.10582523817413
_cell_angle_gamma    106.17158681452446

_space_group_name_H-M_alt    "P 1"
_space_group_IT_number       1

loop_
  _space_group_symop_operation_xyz
  'x, y, z'

loop_
  _atom_site_type_symbol
  _atom_site_label
  _atom_site_symmetry_multiplicity
  _atom_site_fract_x
  _atom_site_fract_y
  _atom_site_fract_z
  _atom_site_occupancy
  Li  Li1       1.0  0.3745414673704915  0.5975067531591095  0.4592510738391127  1.0000
  Li  Li2       1.0  0.6254522735448518  0.40249015011473693  0.5407483952834511  1.0000
  Li  Li3       1.0  0.1638533931810073  0.2907800235916795  0.2915776784896735  1.0000
  Li  Li4       1.0  0.8361488791770454  0.7092237445287922  0.7084243123326459  1.0000
  Li  Li5       1.0  0.3423323554729906  0.9792238725202584  0.8879826342720278  1.0000
  Li  Li6       1.0  0.6576700425771591  0.020774040593586608  0.11201315825235271  1.0000
  Pu  Pu1       1.0  0.5075157436130483  0.7475082647193005  0.2524755345982541  1.0000
  Pu  Pu2       1.0  0.4924921233664321  0.2524918102524652  0.7475252346552637  1.0000
  H   H1        1.0  0.3710849754676958  0.7571177871712041  0.669866225512159  1.0000
  H   H2        1.0  0.6289217487718375  0.24288233009718155  0.3301336649690043  1.0000
  H   H3        1.0  0.4484000965650452  0.8782376465378904  0.616295008199252  1.0000
  H   H4        1.0  0.5516061864293532  0.1217613104080826  0.3837037603944751  1.0000
  H   H5        1.0  0.19148344801633496  0.6827812275253464  0.7816479014563242  1.0000
  H   H6        1.0  0.8085221644418398  0.3172189528387933  0.21834954598219272  1.0000
  H   H7        1.0  0.3842940323395965  0.7050169282487746  0.822401525877723  1.0000
  H   H8        1.0  0.6157120368430002  0.2949844228373452  0.17759626131308445  1.0000
  H   H9        1.0  0.3740225388193252  0.37201662665579255  0.16708127887415714  1.0000
  H   H10       1.0  0.6259804368913039  0.6279800006424882  0.8329205276163307  1.0000
  H   H11       1.0  0.3055676068806862  0.18451631486186676  0.1253476612163595  1.0000
  H   H12       1.0  0.6944309807234036  0.8154780666836106  0.8746531758579366  1.0000
  H   H13       1.0  0.04658403292564372  0.6958536808394701  0.527557161360086  1.0000
  H   H14       1.0  0.9534003338807935  0.30414340481384283  0.472447009610903  1.0000
  H   H15       1.0  0.28326364714015995  0.8725739685463412  0.4812984965965228  1.0000
  H   H16       1.0  0.7167251405891761  0.12741944545575026  0.5187051383036021  1.0000
  H   H17       1.0  0.21422795564876654  0.011424343179037101  0.35781290581886793  1.0000
  H   H18       1.0  0.785771741878911  0.988575913473838  0.6421903155148314  1.0000
  H   H19       1.0  0.7990167807624005  0.4848233788677663  0.13343869817834533  1.0000
  H   H20       1.0  0.2009929440733487  0.5151813997910609  0.8665618658140346  1.0000
  H   H21       1.0  0.7347941475845943  0.6300013861416077  0.015768792725943098  1.0000
  H   H22       1.0  0.2652071320703869  0.3700059267402197  0.9842363704842968  1.0000
  H   H23       1.0  0.9769709888957012  0.8331143688572527  0.9925227825640022  1.0000
  H   H24       1.0  0.0230332139590317  0.16689755341718643  0.0074869648332054044  1.0000
  C   C1        1.0  0.714378828761113  0.6518430488316868  0.45764969758776186  1.0000
  C   C2        1.0  0.2856126266743432  0.3481539390353989  0.5423480139900931  1.0000
  C   C3        1.0  0.8610676303059535  0.7385439348783011  0.4249271198697429  1.0000
  C   C4        1.0  0.1389191612939911  0.2614531597778722  0.5750717694295986  1.0000
  C   C5        1.0  0.024190627251087272  0.7562416607650563  0.47163343499259724  1.0000
  C   C6        1.0  0.9757968348850882  0.2437542104729431  0.5283667754619543  1.0000
  C   C7        1.0  0.1543062105485476  0.8536800689887019  0.44646511754902457  1.0000
  C   C8        1.0  0.8456855777770047  0.1463180064038383  0.5535391908623168  1.0000
  C   C9        1.0  0.11665873574191478  0.9311566837977524  0.3774064536028519  1.0000
  C   C10       1.0  0.8833362824709496  0.06884366924464302  0.62259872758748  1.0000
  C   C11       1.0  0.950091064813698  0.9026636934937501  0.33126173895386296  1.0000
  C   C12       1.0  0.04990479420759901  0.09733555052569903  0.6687361599050377  1.0000
  C   C13       1.0  0.9003755833312754  0.979666862810561  0.25445754757390676  1.0000
  C   C14       1.0  0.09960691489564512  0.02032211028704721  0.7455357382816031  1.0000
  C   C15       1.0  0.11488055511578213  0.5254849021885024  0.24936311601267397  1.0000
  C   C16       1.0  0.8851243248889986  0.4745164599955347  0.750636138811231  1.0000
  C   C17       1.0  0.06499805198519941  0.6007369134456298  0.1712192437450497  1.0000
  C   C18       1.0  0.9350088532497838  0.3992667270866265  0.8287831336260895  1.0000
  C   C19       1.0  0.8994039153225161  0.5700465301951427  0.1204214962588566  1.0000
  C   C20       1.0  0.10060466863106401  0.42995235255715886  0.8795782477444263  1.0000
  C   C21       1.0  0.8639149687392944  0.6527890551620389  0.05475429022261124  1.0000
  C   C22       1.0  0.1360879586756951  0.3472134791406916  0.9452498038900714  1.0000
  C   C23       1.0  0.9959576726447067  0.7632550369760553  0.041642045757853886  1.0000
  C   C24       1.0  0.00404419829226303  0.2367569386929277  0.958368290500097  1.0000
  C   C25       1.0  0.15818072965397087  0.783610872843902  0.09277642931415646  1.0000
  C   C26       1.0  0.8418202034893909  0.2163894039097514  0.907222977981  1.0000
  C   C27       1.0  0.30731855033415917  0.8934499893132968  0.0775184126894786  1.0000
  C   C28       1.0  0.6926891975670273  0.10654660399286085  0.9224767411334726  1.0000
  N   N1        1.0  0.8237791206231861  0.805990217894639  0.3527614458017041  1.0000
  N   N2        1.0  0.176215469966067  0.19401492342806395  0.6472417725827951  1.0000
  N   N3        1.0  0.19276626000688424  0.7041043110362254  0.15629365637764892  1.0000
  N   N4        1.0  0.8072362726008464  0.2958970941427879  0.8437069694421453  1.0000
  O   O1        1.0  0.5020281755114483  0.5625447158758093  0.1445327473655027  1.0000
  O   O2        1.0  0.4979702447187009  0.43745209100851673  0.8554647619004214  1.0000
  O   O3        1.0  0.40834719880709963  0.7648416676455342  0.6009913690578657  1.0000
  O   O4        1.0  0.5916574847229371  0.2351561608750715  0.3990061810112167  1.0000
  O   O5        1.0  0.5057693762617677  0.9259475102587021  0.36342957205273063  1.0000
  O   O6        1.0  0.49422582770259293  0.0740529675784884  0.6365662235158069  1.0000
  O   O7        1.0  0.30960036712939143  0.7544652404980855  0.7988539973638282  1.0000
  O   O8        1.0  0.6904040716302546  0.24553496136354633  0.20114413557263336  1.0000
  O   O9        1.0  0.5722458395151053  0.6375075811881958  0.40408237337150876  1.0000
  O   O10       1.0  0.4277419930835579  0.36248006170215774  0.5959110559177176  1.0000
  O   O11       1.0  0.3178520801155286  0.2840987440387295  0.18746873365390826  1.0000
  O   O12       1.0  0.6821515970899128  0.715896680640519  0.8125328297214907  1.0000
  O   O13       1.0  0.7454316129384608  0.9255951211635391  0.20412903052884696  1.0000
  O   O14       1.0  0.25456450447474316  0.0744076981176178  0.7958674445442783  1.0000
  O   O15       1.0  0.7390623401206753  0.6026892235927335  0.5369916620631798  1.0000
  O   O16       1.0  0.2609288395858158  0.39731011681623596  0.46300819665236054  1.0000
  O   O17       1.0  0.0085583681239356  0.08837300426431942  0.24331554458991886  1.0000
  O   O18       1.0  0.991448916439012  0.9116317549920867  0.7566910832092547  1.0000
  O   O19       1.0  0.26704340960242234  0.5842860279617882  0.3055396808952153  1.0000
  O   O20       1.0  0.7329617287942655  0.4157189094839497  0.694458150142914  1.0000
  O   O21       1.0  0.44614000393165304  0.879364499610219  0.10940159845069539  1.0000
  O   O22       1.0  0.5538634177801569  0.12062988954139806  0.8905894574154659  1.0000
  O   O23       1.0  0.010742196874225831  0.40941438421369025  0.2571193420926292  1.0000
  O   O24       1.0  0.9892578382995865  0.5905835614955637  0.7428786035627866  1.0000
  O   O25       1.0  0.2878143196881239  0.9893083968394973  0.032952402419567726  1.0000
  O   O26       1.0  0.7121915047240818  0.010695327587640711  0.9670459676386187  1.0000
