data_image0
_chemical_formula_structural       Y8H88C168N16O60
_chemical_formula_sum              "Y8 H88 C168 N16 O60"
_cell_length_a       10.49982915857824
_cell_length_b       21.213044849282102
_cell_length_c       21.2130373323858
_cell_angle_alpha    86.4936300548976
_cell_angle_beta     75.67213045390811
_cell_angle_gamma    75.67225867357213

_space_group_name_H-M_alt    "P 1"
_space_group_IT_number       1

loop_
  _space_group_symop_operation_xyz
  'x, y, z'

loop_
  _atom_site_type_symbol
  _atom_site_label
  _atom_site_symmetry_multiplicity
  _atom_site_fract_x
  _atom_site_fract_y
  _atom_site_fract_z
  _atom_site_occupancy
  Y   Y1        1.0  0.35534504729098204  0.7921085844702488  0.42650968139667367  1.0000
  Y   Y2        1.0  0.5739974893046451  0.20790233574066974  0.5734913113264355  1.0000
  Y   Y3        1.0  0.8524701060872321  0.5734988039169338  0.7921296991305057  1.0000
  Y   Y4        1.0  0.21811074412617165  0.42650498354370114  0.2078892156131431  1.0000
  Y   Y5        1.0  0.3946389844232174  0.073487654840882  0.7078953135810125  1.0000
  Y   Y6        1.0  0.17599825974946304  0.9265104208823802  0.2920973766257973  1.0000
  Y   Y7        1.0  0.8975449332085362  0.7078731488832589  0.9265061383199509  1.0000
  Y   Y8        1.0  0.5318945604581488  0.29210018013819916  0.07349172784005023  1.0000
  H   H1        1.0  0.6764607614819198  0.705158303159955  0.28257087308772105  1.0000
  H   H2        1.0  0.8534000001896941  0.6576118120783222  0.16739519625766525  1.0000
  H   H3        1.0  0.35063011364214  0.08150369034387953  0.3362837264086522  1.0000
  H   H4        1.0  0.38586482401234456  0.6361967971888876  0.3872191107578971  1.0000
  H   H5        1.0  0.5536922524038136  0.5294540892361326  0.35671729880733233  1.0000
  H   H6        1.0  0.7980519699431737  0.5204603693013469  0.3537878700972712  1.0000
  H   H7        1.0  0.9765146015395917  0.5740278567054844  0.370423462510118  1.0000
  H   H8        1.0  0.03437305895057832  0.6703727078319872  0.4054445896322889  1.0000
  H   H9        1.0  0.9599730830400051  0.7847223105085561  0.4490109176067918  1.0000
  H   H10       1.0  0.7685305963352109  0.8828621152664767  0.4849747201173998  1.0000
  H   H11       1.0  0.5363501925243597  0.8820874642021015  0.4748572789098234  1.0000
  H   H12       1.0  0.6642396971729526  0.2948116983536337  0.7174451425184785  1.0000
  H   H13       1.0  0.6784411956381222  0.3423566375104272  0.8326127809533332  1.0000
  H   H14       1.0  0.7684678976465378  0.9185071316346693  0.6637190465593504  1.0000
  H   H15       1.0  0.4092906742332618  0.3637755551887524  0.6128055231630184  1.0000
  H   H16       1.0  0.4398371905633598  0.4705269621316718  0.6433031443173433  1.0000
  H   H17       1.0  0.6723139125506138  0.47952385255440083  0.6462149649413363  1.0000
  H   H18       1.0  0.9208633889799532  0.4259962844213874  0.6295887658257086  1.0000
  H   H19       1.0  0.1101851504931449  0.3296808170428704  0.5945775502787995  1.0000
  H   H20       1.0  0.19376393995139543  0.21527748086665355  0.5509959824142499  1.0000
  H   H21       1.0  0.13646223236545293  0.11717155915827251  0.5150037664909917  1.0000
  H   H22       1.0  0.8934155701445692  0.11790581182336982  0.5250808315580002  1.0000
  H   H23       1.0  0.6184914611709833  0.7174373410610074  0.7051548629852888  1.0000
  H   H24       1.0  0.4889355969593442  0.8325928548713435  0.6576258269092179  1.0000
  H   H25       1.0  0.5677371216528331  0.6637403954449823  0.08156627706914323  1.0000
  H   H26       1.0  0.9779005469820351  0.612793182199198  0.6362157423158906  1.0000
  H   H27       1.0  0.9168667606830924  0.643291783407392  0.5294746193670649  1.0000
  H   H28       1.0  0.6815014257341759  0.6461769409803112  0.5204535325205839  1.0000
  H   H29       1.0  0.4495590378603468  0.6295823639021877  0.5739813676839773  1.0000
  H   H30       1.0  0.29518929310182074  0.59461826413758  0.6703189446017106  1.0000
  H   H31       1.0  0.25522327666791256  0.550996034452794  0.7846600627172792  1.0000
  H   H32       1.0  0.34858523323197965  0.5149724952292444  0.8827665509048258  1.0000
  H   H33       1.0  0.5814397109802699  0.5251082171341395  0.8820561852511587  1.0000
  H   H34       1.0  0.04078496558449982  0.2825611433564675  0.294839317089874  1.0000
  H   H35       1.0  0.9792170390034441  0.1673417283625085  0.3423534912780823  1.0000
  H   H36       1.0  0.3131332789986772  0.336248409927869  0.9185007445587842  1.0000
  H   H37       1.0  0.22692110331502863  0.3872039240009499  0.36376024758853026  1.0000
  H   H38       1.0  0.08963721875242922  0.35666743185257843  0.47051302715095744  1.0000
  H   H39       1.0  0.8481784817071298  0.3537880922021373  0.4795403991450939  1.0000
  H   H40       1.0  0.6529768003406957  0.3704668168528046  0.4259836766321358  1.0000
  H   H41       1.0  0.5601016908358788  0.4054633473103096  0.3296255043914655  1.0000
  H   H42       1.0  0.5909767313826394  0.4489799555277827  0.21528814882355363  1.0000
  H   H43       1.0  0.7464294849691343  0.48488884336987337  0.11715355179349986  1.0000
  H   H44       1.0  0.9886814537929428  0.4748467836508538  0.11790643378086683  1.0000
  H   H45       1.0  0.0735398288935374  0.21742112653641502  0.7948269687924778  1.0000
  H   H46       1.0  0.8966101468004771  0.33259269699378546  0.8423902671161015  1.0000
  H   H47       1.0  0.39937224830044465  0.16371440424178735  0.4184956552940094  1.0000
  H   H48       1.0  0.36410335596473  0.11278201142545193  0.8638194644832852  1.0000
  H   H49       1.0  0.1962706204500153  0.1432904104185724  0.9705577743738089  1.0000
  H   H50       1.0  0.951914483313978  0.14622231972476382  0.9795467727867547  1.0000
  H   H51       1.0  0.773461833290725  0.12956128030702985  0.9259814251918569  1.0000
  H   H52       1.0  0.7156196878072905  0.0945445014972393  0.8296335520858165  1.0000
  H   H53       1.0  0.7900263017013386  0.05098089920079474  0.7152788100361461  1.0000
  H   H54       1.0  0.9814760959288477  0.0150232411893256  0.6171435637091136  1.0000
  H   H55       1.0  0.21365594789438802  0.0251339837918749  0.6179266773593639  1.0000
  H   H56       1.0  0.0857405320701689  0.7825502400669109  0.2051853381520274  1.0000
  H   H57       1.0  0.07155383663851489  0.6673838589563844  0.15763888041884397  1.0000
  H   H58       1.0  0.9815647693133301  0.8362893531601401  0.5814977799266998  1.0000
  H   H59       1.0  0.3407033972520849  0.8872084139009077  0.1362234421104205  1.0000
  H   H60       1.0  0.31015856505864314  0.8567063979548523  0.029472670162093123  1.0000
  H   H61       1.0  0.07768190587238896  0.8537846849025359  0.02047882434403902  1.0000
  H   H62       1.0  0.8291318459947946  0.8704036023690734  0.0740104244931246  1.0000
  H   H63       1.0  0.6398062958326706  0.9054182670812241  0.17032407016735365  1.0000
  H   H64       1.0  0.5562336853719997  0.9489901006980407  0.28473003688191056  1.0000
  H   H65       1.0  0.6135273016874694  0.9849858814388454  0.3828389709169073  1.0000
  H   H66       1.0  0.8565762604646425  0.9749189430636281  0.382096717823501  1.0000
  H   H67       1.0  0.13153773574067892  0.79485535328665  0.7825580491341881  1.0000
  H   H68       1.0  0.2610991162668275  0.842365433178635  0.6673958471961611  1.0000
  H   H69       1.0  0.18220092422348724  0.41843176822833766  0.8362598940825235  1.0000
  H   H70       1.0  0.7720957847356187  0.8637877027230375  0.8872429300337998  1.0000
  H   H71       1.0  0.833137780105226  0.9705213653258866  0.8567228858005862  1.0000
  H   H72       1.0  0.06851351286297105  0.979541124834384  0.8538159745045988  1.0000
  H   H73       1.0  0.3004508908164285  0.9260203581846158  0.8704215293152301  1.0000
  H   H74       1.0  0.4548176730994485  0.8296872531337487  0.9053905312089229  1.0000
  H   H75       1.0  0.49479935165986405  0.7153368607542421  0.948998290282212  1.0000
  H   H76       1.0  0.4014499099048269  0.6172253217098529  0.9850096456594173  1.0000
  H   H77       1.0  0.1685929771564007  0.6179390005779696  0.9748797277642964  1.0000
  H   H78       1.0  0.7092110478986485  0.2051785122078229  0.21743549802751264  1.0000
  H   H79       1.0  0.770784808654895  0.15765617927203124  0.3326515627465128  1.0000
  H   H80       1.0  0.43681596818755974  0.5814838181535507  0.16372975607947646  1.0000
  H   H81       1.0  0.5230988079472353  0.13623220393291993  0.11279578772363412  1.0000
  H   H82       1.0  0.6603871633756028  0.0294799943308703  0.1433245702565884  1.0000
  H   H83       1.0  0.9018387745690217  0.020455875728977398  0.14620747941787476  1.0000
  H   H84       1.0  0.09702669399471386  0.07402362599156478  0.1295414077448456  1.0000
  H   H85       1.0  0.18989819988949114  0.1703787909209566  0.094545909534169  1.0000
  H   H86       1.0  0.15902955481942632  0.28471998546593374  0.051035328438544504  1.0000
  H   H87       1.0  0.003559546796964254  0.3828551960660463  0.015131579385183603  1.0000
  H   H88       1.0  0.7613188994265416  0.3820923587828844  0.025159125771537623  1.0000
  C   C1        1.0  0.4689168318962443  0.8222403685778731  0.26064490171251714  1.0000
  C   C2        1.0  0.5860846243724399  0.7782555324327021  0.21859965851396623  1.0000
  C   C3        1.0  0.6772152042272594  0.7242261116424658  0.23401598815254945  1.0000
  C   C4        1.0  0.7686641172532234  0.6999589678045127  0.17487433923393075  1.0000
  C   C5        1.0  0.7290856314249511  0.7408879265124853  0.12646829236566504  1.0000
  C   C6        1.0  0.7918403459414592  0.739541641148165  0.05611736904339186  1.0000
  C   C7        1.0  0.3405778415991565  0.9529474680927236  0.39803840503036264  1.0000
  C   C8        1.0  0.35607535300169246  0.014861905855738699  0.4193404585236422  1.0000
  C   C9        1.0  0.36220437795029886  0.0722612159791538  0.3856501216561412  1.0000
  C   C10       1.0  0.4924556312373058  0.6302784608527148  0.3863972537667095  1.0000
  C   C11       1.0  0.5874254723354543  0.5707510697226184  0.3687802441781329  1.0000
  C   C12       1.0  0.7218331650660019  0.5658370520901954  0.3672325916933091  1.0000
  C   C13       1.0  0.7615676768083407  0.6203482725306416  0.38372675246434806  1.0000
  C   C14       1.0  0.8983443107279143  0.6187258419603623  0.38470225901095745  1.0000
  C   C15       1.0  0.9305926966436079  0.6719726254964584  0.4038457175533878  1.0000
  C   C16       1.0  0.8291625399795282  0.730952687238343  0.42278558094709234  1.0000
  C   C17       1.0  0.8570535427695135  0.7859176195110962  0.4460037403785507  1.0000
  C   C18       1.0  0.7522110461286433  0.8401115656054188  0.4653580208533441  1.0000
  C   C19       1.0  0.6214154504262271  0.8401277479518824  0.46005181938636514  1.0000
  C   C20       1.0  0.6934016040672191  0.735001916125569  0.4200561374845364  1.0000
  C   C21       1.0  0.6585223836123362  0.6785561077287454  0.4010097076303937  1.0000
  C   C22       1.0  0.5516479626320818  0.1777578369733064  0.7393877755054916  1.0000
  C   C23       1.0  0.5828525282961441  0.22173508532721795  0.7814207527903888  1.0000
  C   C24       1.0  0.6354553906157538  0.27574424701595746  0.7659961013546025  1.0000
  C   C25       1.0  0.6434387423564589  0.3000361764085683  0.825138750903342  1.0000
  C   C26       1.0  0.5963129612006454  0.25912773950904017  0.8735488295108098  1.0000
  C   C27       1.0  0.58741711497504  0.2604596764862634  0.9438910464846373  1.0000
  C   C28       1.0  0.6917294102995939  0.047091661146893705  0.6019938935666787  1.0000
  C   C29       1.0  0.7903139700829133  0.9851470958925007  0.5806650833746617  1.0000
  C   C30       1.0  0.820154044754972  0.9277518438317999  0.614353355941212  1.0000
  C   C31       1.0  0.5091521806658295  0.3696997082357855  0.6136174125792024  1.0000
  C   C32       1.0  0.5269403026768912  0.4292324844790868  0.631231693335458  1.0000
  C   C33       1.0  0.6548814687799478  0.4341472250406114  0.6327803448398869  1.0000
  C   C34       1.0  0.7656529434222181  0.3796439952528203  0.616257514498308  1.0000
  C   C35       1.0  0.9017395413669365  0.3812847136282684  0.6153020287100405  1.0000
  C   C36       1.0  0.006426366312062904  0.32806217082983835  0.5961583737213586  1.0000
  C   C37       1.0  0.9829667661591441  0.26907349312125467  0.5772161006916151  1.0000
  C   C38       1.0  0.08901746712121672  0.21410262222142504  0.5539993269550506  1.0000
  C   C39       1.0  0.057745977577717274  0.15991680496738073  0.5346136628916796  1.0000
  C   C40       1.0  0.921692549418459  0.15986848362028644  0.5398934197523318  1.0000
  C   C41       1.0  0.8485297566252685  0.2649967447322865  0.5799325938602068  1.0000
  C   C42       1.0  0.7381250857013414  0.3214306928734985  0.5989785910776247  1.0000
  C   C43       1.0  0.7089100273505199  0.7393930151762973  0.8222473230950699  1.0000
  C   C44       1.0  0.6357397963733863  0.7814454483792731  0.7782537201448888  1.0000
  C   C45       1.0  0.5986465552825287  0.7659975034113842  0.7242262758817047  1.0000
  C   C46       1.0  0.5313728899115944  0.8251158628054827  0.699961944358833  1.0000
  C   C47       1.0  0.5299474716124241  0.8735365030400783  0.7408909735247208  1.0000
  C   C48       1.0  0.4685620330134771  0.9438795044223767  0.7395253315776174  1.0000
  C   C49       1.0  0.7064072588210809  0.6019599840465731  0.952969413505464  1.0000
  C   C50       1.0  0.629067101842807  0.5806731290230261  0.014913906962583214  1.0000
  C   C51       1.0  0.5654558395931416  0.6143690288152825  0.07230862411279297  1.0000
  C   C52       1.0  0.8772385164014412  0.6136005927273657  0.6302802070489335  1.0000
  C   C53       1.0  0.8418364067878489  0.6312032376556617  0.5707540312388275  1.0000
  C   C54       1.0  0.7123509939958483  0.6327452410391459  0.565831024605373  1.0000
  C   C55       1.0  0.6180772769777791  0.6162715199342089  0.6203456231503424  1.0000
  C   C56       1.0  0.4829496836621702  0.6153147651936737  0.6186968555487127  1.0000
  C   C57       1.0  0.3973854449066112  0.5961888820258211  0.6719302183637338  1.0000
  C   C58       1.0  0.4397869437496383  0.5772779320795608  0.7309250692538002  1.0000
  C   C59       1.0  0.35691816997398024  0.5540247993926783  0.7858657771322086  1.0000
  C   C60       1.0  0.4076080824784258  0.5346397738255176  0.8400395373715455  1.0000
  C   C61       1.0  0.5383454718722263  0.5399519640566767  0.840097109608557  1.0000
  C   C62       1.0  0.5715215432424259  0.5800009316530608  0.7349922645269373  1.0000
  C   C63       1.0  0.6629065384571361  0.5989987338459315  0.6785552444347828  1.0000
  C   C64       1.0  0.2704854403830482  0.26063175907087544  0.17775588294401248  1.0000
  C   C65       1.0  0.19538741657157038  0.21860686319311642  0.22177938939979208  1.0000
  C   C66       1.0  0.08873891276082463  0.2340118153255659  0.2757853512187296  1.0000
  C   C67       1.0  0.05653138729324077  0.17485358748676558  0.3000520398350517  1.0000
  C   C68       1.0  0.1446096888359207  0.1264586479976657  0.2591461916921531  1.0000
  C   C69       1.0  0.15210913682861368  0.05612561274404021  0.2604497573652225  1.0000
  C   C70       1.0  0.2612385557945984  0.39804722274710985  0.04708265002130933  1.0000
  C   C71       1.0  0.22450972719565987  0.4193092250090302  0.9851429955740157  1.0000
  C   C72       1.0  0.2521667774633801  0.38561218608958814  0.9277418866194792  1.0000
  C   C73       1.0  0.12112838088765461  0.3863950757800509  0.3697089412524335  1.0000
  C   C74       1.0  0.043808135342473443  0.3687690435559787  0.4292319052368967  1.0000
  C   C75       1.0  0.910935677533658  0.36723530608396265  0.4341541026785833  1.0000
  C   C76       1.0  0.8546139447732559  0.38375017664980504  0.3796622864152682  1.0000
  C   C77       1.0  0.7168703544193277  0.3847392437635336  0.38128648321969655  1.0000
  C   C78       1.0  0.6654740564265039  0.40387276623405916  0.3280414987476874  1.0000
  C   C79       1.0  0.7480023550131565  0.42277650802749633  0.2690597698629276  1.0000
  C   C80       1.0  0.6969071348278177  0.4459628522592496  0.21409516989257332  1.0000
  C   C81       1.0  0.7823887406080063  0.4652901193335381  0.15989663553423136  1.0000
  C   C82       1.0  0.9184634637540512  0.46002586872160833  0.15987247234600233  1.0000
  C   C83       1.0  0.8865090169432507  0.4200576737004128  0.2649965274596724  1.0000
  C   C84       1.0  0.9404016174771214  0.4010298899618334  0.32145327309667243  1.0000
  C   C85       1.0  0.2810911367658734  0.23935442350494182  0.6777535721543088  1.0000
  C   C86       1.0  0.16391419979250113  0.28139755733726457  0.7217368291306271  1.0000
  C   C87       1.0  0.07278239291115092  0.26598011222221635  0.7757648584893673  1.0000
  C   C88       1.0  0.9813363134267873  0.32511882230929956  0.8000372758248702  1.0000
  C   C89       1.0  0.020909982408554385  0.3735278767949097  0.759112372479521  1.0000
  C   C90       1.0  0.958168094204979  0.4438799856333163  0.7604651143760391  1.0000
  C   C91       1.0  0.40941819637500043  0.10196496933973259  0.5470488156347671  1.0000
  C   C92       1.0  0.3939230867074175  0.08065976278194141  0.48513678590957454  1.0000
  C   C93       1.0  0.38778631585610424  0.11435308853469912  0.42773660782984985  1.0000
  C   C94       1.0  0.2575185610218824  0.11359821011160423  0.8697350815261443  1.0000
  C   C95       1.0  0.16254925008115634  0.13121869764580646  0.9292586561776445  1.0000
  C   C96       1.0  0.028133352448819017  0.13277183392883532  0.9341715628316224  1.0000
  C   C97       1.0  0.988402317280148  0.116273640374871  0.87966083673129  1.0000
  C   C98       1.0  0.8516359963765083  0.11529172813938263  0.8812843299865918  1.0000
  C   C99       1.0  0.8193948597572033  0.09614465830190971  0.8280338392131908  1.0000
  C   C100      1.0  0.9208256568149478  0.0772081280280545  0.76905549840437  1.0000
  C   C101      1.0  0.8929446234730989  0.0539891250032625  0.7140894032089663  1.0000
  C   C102      1.0  0.9977939498635425  0.034635376665022505  0.659894606062352  1.0000
  C   C103      1.0  0.12858735884221795  0.0399405213448745  0.659884536299934  1.0000
  C   C104      1.0  0.05658570136260718  0.07993930019112841  0.7650085272522349  1.0000
  C   C105      1.0  0.09145528534318022  0.09898581468076628  0.8214565641757261  1.0000
  C   C106      1.0  0.19834123586877456  0.7606120928403399  0.3222347205923199  1.0000
  C   C107      1.0  0.16714080253864705  0.7185780061045862  0.2782572142294768  1.0000
  C   C108      1.0  0.11453793142462156  0.7340011147001917  0.2242518983566697  1.0000
  C   C109      1.0  0.10655436813650723  0.6748592572363209  0.19996076370333776  1.0000
  C   C110      1.0  0.15367958854063368  0.626450857010667  0.24086702840458676  1.0000
  C   C111      1.0  0.16259412721789365  0.5561060300407591  0.2395309731794626  1.0000
  C   C112      1.0  0.05826793511987233  0.8980073301270723  0.4529124998584066  1.0000
  C   C113      1.0  0.9596804000494076  0.9193390029880033  0.5148523100037466  1.0000
  C   C114      1.0  0.9298617017603376  0.8856518366261315  0.5722544969117465  1.0000
  C   C115      1.0  0.24084293863201375  0.8863863977178712  0.1302999675557714  1.0000
  C   C116      1.0  0.22305222801772126  0.8687741477642493  0.0707684999136404  1.0000
  C   C117      1.0  0.0951106341512614  0.8672251539964793  0.06585587406789979  1.0000
  C   C118      1.0  0.9843466264357092  0.8837411177533596  0.12035994364305223  1.0000
  C   C119      1.0  0.8482569725385788  0.8846911192758  0.11872186782907337  1.0000
  C   C120      1.0  0.7435666039913615  0.9038346373584363  0.1719452116532167  1.0000
  C   C121      1.0  0.7670268816453644  0.9227780689537612  0.2309349149823205  1.0000
  C   C122      1.0  0.6609744590439138  0.9459911027882343  0.2859055736596687  1.0000
  C   C123      1.0  0.6922466632271382  0.965380509216132  0.34008965590350476  1.0000
  C   C124      1.0  0.8282962249115899  0.9601060442820428  0.3401348946363498  1.0000
  C   C125      1.0  0.9014659761727659  0.920064941512585  0.2350085676606284  1.0000
  C   C126      1.0  0.011866727562307097  0.9010217854484779  0.1785732288102651  1.0000
  C   C127      1.0  0.041090204306655935  0.677763574514998  0.7606156019839928  1.0000
  C   C128      1.0  0.11426762131870305  0.7217502914553009  0.7185606718227717  1.0000
  C   C129      1.0  0.15137878601245117  0.7757753954913869  0.7340027392247279  1.0000
  C   C130      1.0  0.21864811721361865  0.8000344341240435  0.6748787139838512  1.0000
  C   C131      1.0  0.22004416321060224  0.7591081512897446  0.626464910602877  1.0000
  C   C132      1.0  0.2814200061426036  0.760470928640132  0.5561187515931748  1.0000
  C   C133      1.0  0.04361537383090332  0.5470329980176559  0.8980443841734881  1.0000
  C   C134      1.0  0.12093431358363219  0.4850823837265708  0.9193234710129232  1.0000
  C   C135      1.0  0.18451574265748186  0.4276837061460838  0.8856264572275663  1.0000
  C   C136      1.0  0.8727716362132872  0.8697156766187035  0.8864162933588133  1.0000
  C   C137      1.0  0.9081744881598162  0.9292425375406949  0.8688053623182838  1.0000
  C   C138      1.0  0.03766591365665328  0.9341642100062516  0.867255926423077  1.0000
  C   C139      1.0  0.13194060604045196  0.8796531752475262  0.8837316405883017  1.0000
  C   C140      1.0  0.26706507994750706  0.8813032212863379  0.8846878505123356  1.0000
  C   C141      1.0  0.3526313457280926  0.8280684690428612  0.9038111226003308  1.0000
  C   C142      1.0  0.3102390912806923  0.769072453291628  0.9227173279539757  1.0000
  C   C143      1.0  0.3931006579649649  0.7141330331505957  0.9459698036360465  1.0000
  C   C144      1.0  0.34242310720302577  0.6599557180603952  0.9653454527148  1.0000
  C   C145      1.0  0.21168468087091713  0.6599003788824336  0.9600384919001286  1.0000
  C   C146      1.0  0.178492592786384  0.7650071448300225  0.9200008663628907  1.0000
  C   C147      1.0  0.0871120662742302  0.8214457587771025  0.9010059286873612  1.0000
  C   C148      1.0  0.4794974314525578  0.32225665134934195  0.23937518375044683  1.0000
  C   C149      1.0  0.5546086758401146  0.27822877367947296  0.28139351747251606  1.0000
  C   C150      1.0  0.6612575171500128  0.22422866119070767  0.2659882106190636  1.0000
  C   C151      1.0  0.6934710133022366  0.19995840554364014  0.32514253914222735  1.0000
  C   C152      1.0  0.6053805749265989  0.24085898776587558  0.3735402338692424  1.0000
  C   C153      1.0  0.5978800459420699  0.23955484335745328  0.44387491058433437  1.0000
  C   C154      1.0  0.488763373309773  0.45290359668275226  0.10194195339214933  1.0000
  C   C155      1.0  0.5254848317303813  0.5148454927152315  0.08066993191309994  1.0000
  C   C156      1.0  0.497805567446669  0.5722492015210677  0.1143732893403921  1.0000
  C   C157      1.0  0.6288858065064177  0.13028669240179616  0.11360476887013962  1.0000
  C   C158      1.0  0.7062107945517084  0.07076229783462651  0.13122681384962936  1.0000
  C   C159      1.0  0.8390764181395057  0.06584306277697752  0.13276371759327082  1.0000
  C   C160      1.0  0.8953949776431003  0.12033630140232535  0.11624988735920283  1.0000
  C   C161      1.0  0.033135729011476746  0.11871647335105712  0.11526399392942469  1.0000
  C   C162      1.0  0.0845309088599819  0.17196450683444908  0.0961351246521644  1.0000
  C   C163      1.0  0.002001645896882667  0.2309458371599575  0.0772331632258911  1.0000
  C   C164      1.0  0.053095583916551434  0.2859121513414281  0.0540505823010662  1.0000
  C   C165      1.0  0.9676122700608264  0.34010415472585015  0.03471996816175253  1.0000
  C   C166      1.0  0.8315400695668489  0.3401261497601595  0.03997593760620796  1.0000
  C   C167      1.0  0.8634929570190977  0.23500477874562628  0.0799465355725033  1.0000
  C   C168      1.0  0.8096050054117185  0.17854700800844372  0.09897441246072702  1.0000
  N   N1        1.0  0.5265589246075424  0.6827913793684389  0.40189494736279135  1.0000
  N   N2        1.0  0.5926894345642567  0.7895149534919383  0.43723995723850356  1.0000
  N   N3        1.0  0.6112756102090701  0.3171864441166364  0.5981083467206645  1.0000
  N   N4        1.0  0.8195366569571121  0.2104850545625397  0.5627262698731316  1.0000
  N   N5        1.0  0.7906248576537256  0.5981140099851531  0.6827966715801423  1.0000
  N   N6        1.0  0.6177120069060323  0.5627800420164847  0.7895027468536784  1.0000
  N   N7        1.0  0.07149614038667826  0.40190195256767686  0.31721008398270806  1.0000
  N   N8        1.0  0.9700288939585631  0.4372470494988577  0.21048617454165716  1.0000
  N   N9        1.0  0.22341858186605637  0.09810169410704359  0.8172192645310759  1.0000
  N   N10       1.0  0.15730494315786825  0.06275063271301921  0.7105002684729556  1.0000
  N   N11       1.0  0.13872037786118369  0.9018900703230202  0.1828137072650762  1.0000
  N   N12       1.0  0.9304592444502546  0.9372746419402633  0.2895209533395473  1.0000
  N   N13       1.0  0.9593904110402109  0.8172037642563625  0.9018990546635381  1.0000
  N   N14       1.0  0.13231372090584168  0.7104925772813645  0.9372159706934937  1.0000
  N   N15       1.0  0.6785155716840238  0.18278609515740382  0.09809886684587352  1.0000
  N   N16       1.0  0.7799778314649971  0.28950950510090934  0.06275327127290356  1.0000
  O   O1        1.0  0.3926477239700574  0.8667263298734299  0.2347182851469113  1.0000
  O   O2        1.0  0.4532145330483533  0.8112593941094064  0.3215234814928962  1.0000
  O   O3        1.0  0.6161662591221668  0.7884680842585754  0.15253273754849062  1.0000
  O   O4        1.0  0.7415856858505595  0.7797815194197143  0.016411940516796685  1.0000
  O   O5        1.0  0.899598056312769  0.6943341844865786  0.03753206783832043  1.0000
  O   O6        1.0  0.350737589088496  0.9037295948926883  0.4349744691414159  1.0000
  O   O7        1.0  0.32042691350977753  0.9551570674719586  0.34105923096968377  1.0000
  O   O8        1.0  0.49393439674853595  0.1332732045490843  0.7653222322684384  1.0000
  O   O9        1.0  0.58578493557998  0.18876079104438048  0.6785136535569619  1.0000
  O   O10       1.0  0.5570253783317655  0.21154298807984875  0.8474915666667188  1.0000
  O   O11       1.0  0.5377267395203444  0.22020474108030197  0.983594022957476  1.0000
  O   O12       1.0  0.6313880028913705  0.30566539987376024  0.9624757204957888  1.0000
  O   O13       1.0  0.689720959157043  0.0963008139746009  0.5650538217581413  1.0000
  O   O14       1.0  0.6167389862937471  0.0449015710409952  0.6589650106248897  1.0000
  O   O15       1.0  0.7407387419133121  0.7653157580156318  0.8667216626450129  1.0000
  O   O16       1.0  0.7354804823704486  0.6785110795862793  0.8112781332820233  1.0000
  O   O17       1.0  0.595337429082747  0.8475089633367715  0.788462961923088  1.0000
  O   O18       1.0  0.47859557599314734  0.9835832701974638  0.7797755818881669  1.0000
  O   O19       1.0  0.40605472195422776  0.962472795603439  0.6943088574289361  1.0000
  O   O20       1.0  0.7453544916187202  0.5649855367854215  0.903770980235727  1.0000
  O   O21       1.0  0.7244142215212078  0.6589328370101839  0.9551112713638474  1.0000
  O   O22       1.0  0.37268315302855376  0.23467800786347953  0.13326055935903722  1.0000
  O   O23       1.0  0.22532644902855747  0.3215092296356872  0.18871528706711163  1.0000
  O   O24       1.0  0.23146756574499963  0.15253213838169444  0.21158212085132527  1.0000
  O   O25       1.0  0.24205549321167305  0.016427172940211697  0.22019165659433781  1.0000
  O   O26       1.0  0.06288129067443295  0.03753453943225791  0.30562511230804995  1.0000
  O   O27       1.0  0.21403418550866612  0.4350211446990571  0.09626581103981378  1.0000
  O   O28       1.0  0.3384463206749758  0.34108453829032476  0.04491285555022983  1.0000
  O   O29       1.0  0.35734657844495393  0.2652800974396073  0.6332676933795014  1.0000
  O   O30       1.0  0.2967851897505582  0.1784714998371157  0.6887393000216946  1.0000
  O   O31       1.0  0.1338307575401247  0.3474626148428399  0.7115262861328375  1.0000
  O   O32       1.0  0.008413548343384078  0.4835824417557932  0.7202187510524283  1.0000
  O   O33       1.0  0.8504316284567824  0.4624689501925801  0.8056852547866883  1.0000
  O   O34       1.0  0.3992558819767568  0.0650186560680339  0.5962719605678471  1.0000
  O   O35       1.0  0.42957430650987777  0.15893471334701562  0.5448440651732156  1.0000
  O   O36       1.0  0.2560487909062702  0.7346836305300215  0.3667174193690883  1.0000
  O   O37       1.0  0.16419148875024825  0.8214905518659423  0.3112342112871431  1.0000
  O   O38       1.0  0.1929724903093018  0.6525066031385479  0.28845018597967  1.0000
  O   O39       1.0  0.2123075928088982  0.5164042902561549  0.27977936939375064  1.0000
  O   O40       1.0  0.11860382476802318  0.5375260977768903  0.1943305090682514  1.0000
  O   O41       1.0  0.06027919681395165  0.9349560388979014  0.40369725332455886  1.0000
  O   O42       1.0  0.13324493782003807  0.841044835422146  0.4550986118364619  1.0000
  O   O43       1.0  0.009252677198844646  0.6332898164468761  0.7346895887207694  1.0000
  O   O44       1.0  0.014516255744567665  0.6887304838624146  0.8214949978695358  1.0000
  O   O45       1.0  0.15464892521062276  0.7115388083234324  0.6524987146963709  1.0000
  O   O46       1.0  0.27136029882026247  0.7202300449393209  0.5164163118659886  1.0000
  O   O47       1.0  0.34394265858763623  0.8056823283598007  0.5375252177558849  1.0000
  O   O48       1.0  0.004669512034212243  0.5962220209423849  0.9350200159409922  1.0000
  O   O49       1.0  0.025608431697684158  0.544901674699055  0.8410639888147742  1.0000
  O   O50       1.0  0.3773392108064187  0.3667390365280241  0.2653125522691155  1.0000
  O   O51       1.0  0.5246739818689791  0.3112805827132092  0.17847971076391642  1.0000
  O   O52       1.0  0.5185241111447498  0.2884251944335645  0.34746925819103325  1.0000
  O   O53       1.0  0.5079316608410455  0.27980986224324056  0.48357615686757777  1.0000
  O   O54       1.0  0.6871064546742646  0.19438063369897662  0.4624642873447797  1.0000
  O   O55       1.0  0.5360024088285871  0.40371169195350387  0.06494932040808986  1.0000
  O   O56       1.0  0.4115779836702559  0.4550631855172114  0.1588862414750452  1.0000
  O   O57       1.0  0.3750015839852808  0.0195570153693154  0.4804434956463126  1.0000
  O   O58       1.0  0.8749922596129951  0.9804475982023033  0.5195540523949802  1.0000
  O   O59       1.0  0.6055593847597722  0.5195547349371026  0.019592266057806344  1.0000
  O   O60       1.0  0.14446163775203089  0.4803974614010615  0.9804383364704633  1.0000
