data_image0
_chemical_formula_structural       Cu2H42C38N4O12
_chemical_formula_sum              "Cu2 H42 C38 N4 O12"
_cell_length_a       9.25510940445966
_cell_length_b       9.87783575962329
_cell_length_c       12.549794838532387
_cell_angle_alpha    69.74617343745057
_cell_angle_beta     72.9183429510405
_cell_angle_gamma    73.63132810813735

_space_group_name_H-M_alt    "P 1"
_space_group_IT_number       1

loop_
  _space_group_symop_operation_xyz
  'x, y, z'

loop_
  _atom_site_type_symbol
  _atom_site_label
  _atom_site_symmetry_multiplicity
  _atom_site_fract_x
  _atom_site_fract_y
  _atom_site_fract_z
  _atom_site_occupancy
  Cu  Cu1       1.0  0.21313139078674936  0.3409172981185192  0.16449176330407062  1.0000
  Cu  Cu2       1.0  0.7868718254405492  0.6590769915682343  0.8355112451297088  1.0000
  H   H1        1.0  0.9325335591544146  0.8471647936410278  0.44837883855601035  1.0000
  H   H2        1.0  0.06746944426279812  0.1528306192496984  0.5516215247929209  1.0000
  H   H3        1.0  0.9018594228125919  0.9347071022653566  0.3063296747028519  1.0000
  H   H4        1.0  0.0981436188686686  0.06529378254665369  0.6936716084124797  1.0000
  H   H5        1.0  0.3635874218994033  0.8764735569767057  0.8042329998059115  1.0000
  H   H6        1.0  0.6364020277864455  0.1235275113276657  0.19576876059292664  1.0000
  H   H7        1.0  0.5043542296296621  0.7021703462158158  0.15677045066170336  1.0000
  H   H8        1.0  0.4956506109350015  0.29782727161566674  0.8432257416996476  1.0000
  H   H9        1.0  0.1370297218390563  0.9298083331841905  0.05949895164827979  1.0000
  H   H10       1.0  0.8629660385857675  0.0701893271511054  0.9405063495841686  1.0000
  H   H11       1.0  0.9727901473906825  0.05625614180035401  0.10548742524669315  1.0000
  H   H12       1.0  0.0272070125916954  0.9437459190862965  0.8945140088989019  1.0000
  H   H13       1.0  0.4520860038308712  0.786965853155074  0.9903145523614256  1.0000
  H   H14       1.0  0.5479106820075259  0.2130329386776637  0.009685466765567766  1.0000
  H   H15       1.0  0.20444271750276508  0.119339002340439  0.87102400579473  1.0000
  H   H16       1.0  0.7955584521869097  0.8806542201230767  0.12897893023593818  1.0000
  H   H17       1.0  0.033402827384946876  0.2458606957655576  0.9114954201496346  1.0000
  H   H18       1.0  0.966604047747609  0.7541379384918016  0.08850643868525047  1.0000
  H   H19       1.0  0.1424121853961182  0.5037137060853141  0.9232768604114411  1.0000
  H   H20       1.0  0.8575919094308946  0.4962762068937677  0.07672394191506261  1.0000
  H   H21       1.0  0.20541982209455503  0.8688943239697409  0.384954795123633  1.0000
  H   H22       1.0  0.7945793758756423  0.1311087678563112  0.6150507071896527  1.0000
  H   H23       1.0  0.19690824617473626  0.9297143712701722  0.23755378297681057  1.0000
  H   H24       1.0  0.8030936972568768  0.07029198442641868  0.7624502577726201  1.0000
  H   H25       1.0  0.32344671862958296  0.24065317409677084  0.3889219063444073  1.0000
  H   H26       1.0  0.6765463848316458  0.7593522170079152  0.611081101914287  1.0000
  H   H27       1.0  0.47708059169055156  0.3390706349530888  0.47202840572895616  1.0000
  H   H28       1.0  0.5229161307019297  0.66093362154416  0.5279733323173588  1.0000
  H   H29       1.0  0.19931578994030733  0.7355594731995294  0.7711257895584678  1.0000
  H   H30       1.0  0.8006781435968265  0.2644360257356126  0.22887888774405235  1.0000
  H   H31       1.0  0.5647801262749822  0.5765421608454987  0.35314980336487156  1.0000
  H   H32       1.0  0.4352229239560829  0.42345876025034096  0.6468474839858728  1.0000
  H   H33       1.0  0.1220729444690463  0.6382482347865235  0.37646812875625096  1.0000
  H   H34       1.0  0.8779335084632649  0.3617526603923267  0.6235268416030948  1.0000
  H   H35       1.0  0.07828289563435929  0.7259184960785277  0.23726241491399233  1.0000
  H   H36       1.0  0.92172133279437  0.2740879124888094  0.7627323560296375  1.0000
  H   H37       1.0  0.8517411402614741  0.6093538566984477  0.4645675872334181  1.0000
  H   H38       1.0  0.14826056748565722  0.3906482155917388  0.5354256962884988  1.0000
  H   H39       1.0  0.7959200480662573  0.7173220555891078  0.3316749896625809  1.0000
  H   H40       1.0  0.20408575446606383  0.2826821584043273  0.6683176395126367  1.0000
  H   H41       1.0  0.916058665459218  0.2899927828741013  0.3829722012749455  1.0000
  H   H42       1.0  0.08393040371035451  0.7100160327865765  0.617021992108931  1.0000
  C   C1        1.0  0.9882783878449289  0.8601205469750681  0.3559752742213219  1.0000
  C   C2        1.0  0.011723044888611903  0.13987707500309904  0.6440256325901785  1.0000
  C   C3        1.0  0.20748373182630792  0.20409952600392955  0.0054297078691618915  1.0000
  C   C4        1.0  0.7925228871022372  0.7958947377658347  0.9945709835732187  1.0000
  C   C5        1.0  0.0889308228575629  0.09028077754629751  0.3270751147535193  1.0000
  C   C6        1.0  0.9110674616687858  0.9097212335796808  0.6729300755948059  1.0000
  C   C7        1.0  0.3808113090705944  0.5377815654677959  0.17116585222849073  1.0000
  C   C8        1.0  0.6191906012268475  0.4622193400778158  0.8288348712957825  1.0000
  C   C9        1.0  0.33202591192220154  0.776834774282733  0.8696234959304617  1.0000
  C   C10       1.0  0.667967374634877  0.22316405798052583  0.13037724188209407  1.0000
  C   C11       1.0  0.46345386937407074  0.6014590988008238  0.21158665062786502  1.0000
  C   C12       1.0  0.5365491808569942  0.3985418222950086  0.7884106367228865  1.0000
  C   C13       1.0  0.046961501973335394  0.0239038935773905  0.02840962113376831  1.0000
  C   C14       1.0  0.9530363118289461  0.9760948630082141  0.9715925558901188  1.0000
  C   C15       1.0  0.38026728343034927  0.7282766328439862  0.9745416198371968  1.0000
  C   C16       1.0  0.6197301030418031  0.2717243628928117  0.025456066169908812  1.0000
  C   C17       1.0  0.33978186269384025  0.5997254210818214  0.056583402063978376  1.0000
  C   C18       1.0  0.6602168662622533  0.40027442346062264  0.9434182877719549  1.0000
  C   C19       1.0  0.1219237726194464  0.15243992740823836  0.9451861111951201  1.0000
  C   C20       1.0  0.8780808397454861  0.847558748316331  0.054814628457634636  1.0000
  C   C21       1.0  0.21026944470255418  0.5692376676571768  0.9349359237115207  1.0000
  C   C22       1.0  0.7897317284070411  0.4307555693198708  0.06506541401331843  1.0000
  C   C23       1.0  0.12721585564781887  0.9312692367104702  0.32517228680313787  1.0000
  C   C24       1.0  0.8727824305884936  0.06873278167227428  0.6748321043922728  1.0000
  C   C25       1.0  0.3660246019652007  0.3424735107175323  0.3422950553714656  1.0000
  C   C26       1.0  0.6339750421446979  0.6575274217817578  0.6577061472765208  1.0000
  C   C27       1.0  0.44987989582737953  0.39857034642481887  0.3870906786141859  1.0000
  C   C28       1.0  0.5501179630787975  0.6014339111091259  0.6129092215644361  1.0000
  C   C29       1.0  0.2441053220676039  0.6983144132971261  0.8498044822996106  1.0000
  C   C30       1.0  0.7558904434871039  0.3016832688084675  0.15019842147408724  1.0000
  C   C31       1.0  0.49820065195973484  0.5302945547970807  0.3207512533709576  1.0000
  C   C32       1.0  0.501799912433853  0.46970748742935325  0.6792470646303244  1.0000
  C   C33       1.0  0.031126588380644225  0.7113977866868593  0.33091537192125026  1.0000
  C   C34       1.0  0.9688773752942621  0.2886042151090535  0.6690822273944618  1.0000
  C   C35       1.0  0.922484216443209  0.5024660486194107  0.3301325096195812  1.0000
  C   C36       1.0  0.07751548645026665  0.4975404428823467  0.6698600229597957  1.0000
  C   C37       1.0  0.8914149433606512  0.6382812487484344  0.36965619870477445  1.0000
  C   C38       1.0  0.10858837333419304  0.36172408637558806  0.6303374611209731  1.0000
  N   N1        1.0  0.25845465491988767  0.5210334780689932  0.034647059061008206  1.0000
  N   N2        1.0  0.7415481322673186  0.4789630435121808  0.9653522575089041  1.0000
  N   N3        1.0  0.33254840949756204  0.4108065315737832  0.2372330837841474  1.0000
  N   N4        1.0  0.6674498818686274  0.589195508579266  0.7627689099525053  1.0000
  O   O1        1.0  0.35144756931396165  0.1788708741379779  0.984182458269032  1.0000
  O   O2        1.0  0.6485584026345207  0.8211267229599032  0.01581429368338412  1.0000
  O   O3        1.0  0.11671181371703909  0.2732672089707506  0.07964028764779132  1.0000
  O   O4        1.0  0.8832944919338671  0.7267171325657175  0.9203671073177659  1.0000
  O   O5        1.0  0.9498076387684619  0.14918740287427568  0.36108922895422774  1.0000
  O   O6        1.0  0.05018569289250513  0.8508169303373234  0.6389092320130629  1.0000
  O   O7        1.0  0.20385292715368306  0.1556219257571669  0.29330047120691205  1.0000
  O   O8        1.0  0.7961417281816523  0.8443811764356538  0.7067107842713013  1.0000
  O   O9        1.0  0.9810583673544286  0.5031699859535054  0.22741745790741424  1.0000
  O   O10       1.0  0.018946736254093807  0.49683203139263543  0.7725767052347763  1.0000
  O   O11       1.0  0.8821439195278771  0.3855102889815639  0.413505319389223  1.0000
  O   O12       1.0  0.11784650580531776  0.6144974335388863  0.5864864846001439  1.0000
