data_image0
_chemical_formula_structural       Zn4H8C28N4O16
_chemical_formula_sum              "Zn4 H8 C28 N4 O16"
_cell_length_a       7.16468566400977
_cell_length_b       7.164701272009688
_cell_length_c       19.773936030054394
_cell_angle_alpha    90.00018855396074
_cell_angle_beta     90.00018956829214
_cell_angle_gamma    89.99998299830503

_space_group_name_H-M_alt    "P 1"
_space_group_IT_number       1

loop_
  _space_group_symop_operation_xyz
  'x, y, z'

loop_
  _atom_site_type_symbol
  _atom_site_label
  _atom_site_symmetry_multiplicity
  _atom_site_fract_x
  _atom_site_fract_y
  _atom_site_fract_z
  _atom_site_occupancy
  Zn  Zn1       1.0  0.9999998905816768  1.2780252732000001e-06  0.28011469196675165  1.0000
  Zn  Zn2       1.0  0.49999892566240334  0.5000006049554743  0.7801194327518247  1.0000
  Zn  Zn3       1.0  0.5000005401935894  0.5000022360603184  0.21988145164605305  1.0000
  Zn  Zn4       1.0  0.99999832804329  3.44793456e-07  0.7198855990222555  1.0000
  H   H1        1.0  0.19037413562817557  0.7626544682790097  0.05020503711806161  1.0000
  H   H2        1.0  0.7373369350086278  0.690380103074695  0.5502069377180306  1.0000
  H   H3        1.0  0.8096239906832351  0.2373456640817508  0.050205600145410804  1.0000
  H   H4        1.0  0.26266438768567474  0.3096148216815494  0.5502059231784316  1.0000
  H   H5        1.0  0.6903825577415931  0.7373376459891007  0.4497934439503695  1.0000
  H   H6        1.0  0.7626490962653989  0.19037224109701611  0.9497957914090024  1.0000
  H   H7        1.0  0.30962202993259075  0.2626605496823089  0.44979141821593777  1.0000
  H   H8        1.0  0.23734752193649913  0.8096291213842336  0.9497963515507167  1.0000
  C   C1        1.0  0.9999993817409774  2.2947979500000033e-08  0.0375176587436812  1.0000
  C   C2        1.0  0.5000033945534597  0.4999967066243727  0.5375187692969092  1.0000
  C   C3        1.0  0.500003049970232  0.4999963642622376  0.4624805979507016  1.0000
  C   C4        1.0  2.3262116139999792e-07  2.0414124439999997e-07  0.9624831379615415  1.0000
  C   C5        1.0  0.10601463298998232  0.8697337239383174  0.0743610909078072  1.0000
  C   C6        1.0  0.6302660666517993  0.6060152323317922  0.5743608415040526  1.0000
  C   C7        1.0  0.8939851109102649  0.1302666288464138  0.07436162739873  1.0000
  C   C8        1.0  0.36973408214388565  0.3939771213671648  0.5743600547024743  1.0000
  C   C9        1.0  0.6060214693214191  0.6302653940008724  0.42563830105053313  1.0000
  C   C10       1.0  0.8697283640767567  0.1060140968549703  0.9256397646416591  1.0000
  C   C11       1.0  0.39398568797906813  0.36973537272069734  0.4256370086579153  1.0000
  C   C12       1.0  0.13026524080125063  0.8939898366657247  0.9256402972758266  1.0000
  C   C13       1.0  0.10390879151381678  0.8758054776511914  0.1447001495717259  1.0000
  C   C14       1.0  0.624194944278841  0.6039052079824073  0.644702927247053  1.0000
  C   C15       1.0  0.8960915983928999  0.1241955169760161  0.144700175651046  1.0000
  C   C16       1.0  0.3758030590816901  0.39608918331873616  0.6447016444694001  1.0000
  C   C17       1.0  0.603910796430931  0.6241950366399748  0.3552982284422512  1.0000
  C   C18       1.0  0.8758050700260754  0.10390761603876092  0.855300204980935  1.0000
  C   C19       1.0  0.39609292338197843  0.37580648395960037  0.3552969457680746  1.0000
  C   C20       1.0  0.12419486751446131  0.8960928841705993  0.8553012385903928  1.0000
  C   C21       1.0  0.2175525250357708  0.7501702834601573  0.19013014710036205  1.0000
  C   C22       1.0  0.7498391687188574  0.7175528424830518  0.6901280167573134  1.0000
  C   C23       1.0  0.7824482821071967  0.24983252144571116  0.19012968112173215  1.0000
  C   C24       1.0  0.2501592518405573  0.28244475479144177  0.6901279664999224  1.0000
  C   C25       1.0  0.7175498881833632  0.7498343843255172  0.30986583778103244  1.0000
  C   C26       1.0  0.7501622075727709  0.2175604562162405  0.8098767675019048  1.0000
  C   C27       1.0  0.28245481009376766  0.25017649181571505  0.309862753410478  1.0000
  C   C28       1.0  0.24983452131543527  0.7824396294995423  0.8098768045421139  1.0000
  N   N1        1.0  8.172321415e-07  8.119644761e-07  0.1779645688486227  1.0000
  N   N2        1.0  0.49999845656470404  0.4999973474178392  0.6779662753339367  1.0000
  N   N3        1.0  0.5000024050170566  0.5000027021253147  0.3220325861982687  1.0000
  N   N4        1.0  0.9999981919434617  9.590873375000003e-07  0.8220371490698072  1.0000
  O   O1        1.0  0.329419138642784  0.6385395150574311  0.1598579751498193  1.0000
  O   O2        1.0  0.8614531212281519  0.8294010357168488  0.6598691258917456  1.0000
  O   O3        1.0  0.6705841819432193  0.36146440934567897  0.15985750832771126  1.0000
  O   O4        1.0  0.13854222995477983  0.17059349397856488  0.6598683041418597  1.0000
  O   O5        1.0  0.8294069765023836  0.8614665152824869  0.3401346030439214  1.0000
  O   O6        1.0  0.6385412431867721  0.3294089586689708  0.8401393311200422  1.0000
  O   O7        1.0  0.17058962537052477  0.13853905414445927  0.3401332757242345  1.0000
  O   O8        1.0  0.36145855511821884  0.6705886117386939  0.8401413913198753  1.0000
  O   O9        1.0  0.19666285100249334  0.7670966107668847  0.2530442756057951  1.0000
  O   O10       1.0  0.7328924507314484  0.6966436769338885  0.7530542623496856  1.0000
  O   O11       1.0  0.8033357424883009  0.23290397676844074  0.25304381443393  1.0000
  O   O12       1.0  0.26710515201473584  0.3033530988052817  0.7530527399563169  1.0000
  O   O13       1.0  0.6966526626914986  0.7328955016304873  0.24695219008204822  1.0000
  O   O14       1.0  0.7671047445669502  0.1966632730275393  0.7469510028150523  1.0000
  O   O15       1.0  0.3033444791098532  0.2671134047017746  0.24695117358078994  1.0000
  O   O16       1.0  0.23289419787671764  0.8033334470354706  0.7469530673271765  1.0000
