data_image0
_chemical_formula_structural       Al2H12C22N2O10F2
_chemical_formula_sum              "Al2 H12 C22 N2 O10 F2"
_cell_length_a       6.661119073143339
_cell_length_b       11.140141979069893
_cell_length_c       16.930099396060573
_cell_angle_alpha    83.86206214226786
_cell_angle_beta     83.07013658925703
_cell_angle_gamma    72.94297647181271

_space_group_name_H-M_alt    "P 1"
_space_group_IT_number       1

loop_
  _space_group_symop_operation_xyz
  'x, y, z'

loop_
  _atom_site_type_symbol
  _atom_site_label
  _atom_site_symmetry_multiplicity
  _atom_site_fract_x
  _atom_site_fract_y
  _atom_site_fract_z
  _atom_site_occupancy
  Al  Al1       1.0  0.5000040862824591  0.5000041777440032  0.4999988042004942  1.0000
  Al  Al2       1.0  7.881819009030554e-06  0.4999926890848058  0.4999960800535701  1.0000
  H   H1        1.0  0.19158065473779115  0.6502330259576895  0.4506077689014203  1.0000
  H   H2        1.0  0.8084330984200677  0.3497639274657659  0.5493925362760378  1.0000
  H   H3        1.0  0.8537573451373605  0.49434454671552436  0.7362711982044697  1.0000
  H   H4        1.0  0.7895983266593304  0.4985743689195702  0.886010174338281  1.0000
  H   H5        1.0  0.42858908930509176  0.502308293961825  0.896311069763939  1.0000
  H   H6        1.0  0.4923009853600249  0.499064436402037  0.7459328666332252  1.0000
  H   H7        1.0  0.5713550728396727  0.49768557891707144  0.10369229981386496  1.0000
  H   H8        1.0  0.2103383276210664  0.50144674073389  0.11397319817731236  1.0000
  H   H9        1.0  0.14621180754510016  0.5056689600321961  0.2637150897835311  1.0000
  H   H10       1.0  0.5076688821378211  0.5009294854461857  0.2540703931252394  1.0000
  H   H11       1.0  0.24897255028035653  0.8734066958208121  0.541262033479043  1.0000
  H   H12       1.0  0.7510773631208708  0.1265908878214503  0.45874647012331576  1.0000
  C   C1        1.0  0.6423940501087486  0.7259266480883398  0.5070180825509991  1.0000
  C   C2        1.0  0.7876535343464682  0.5073161251895331  0.3554352650904632  1.0000
  C   C3        1.0  0.3576514444843184  0.2740733690741665  0.4929781025487754  1.0000
  C   C4        1.0  0.2123486670360748  0.4926763627178731  0.644559359327239  1.0000
  C   C5        1.0  0.17653341572849965  0.4962945663645755  0.7330718087193018  1.0000
  C   C6        1.0  0.9777108912194948  0.49624194824391316  0.7722772921466328  1.0000
  C   C7        1.0  0.942075609104222  0.4985064526118209  0.8544786709145524  1.0000
  C   C8        1.0  0.10671622330926304  0.5002762540667051  0.8989539026222882  1.0000
  C   C9        1.0  0.30493429027036695  0.5008376591451836  0.8599715940042925  1.0000
  C   C10       1.0  0.3396549301542179  0.49900018213994485  0.7773853917584146  1.0000
  C   C11       1.0  0.6950072860253443  0.49915827787346245  0.14002765785731694  1.0000
  C   C12       1.0  0.8932189479395304  0.49972647403966886  0.10104057801245149  1.0000
  C   C13       1.0  0.05787865714086145  0.5014973756333134  0.14551302028797145  1.0000
  C   C14       1.0  0.022257760607835884  0.5037665721111895  0.2277151981902675  1.0000
  C   C15       1.0  0.8234444531974531  0.5037044256836156  0.2669236862258798  1.0000
  C   C16       1.0  0.6603072736122613  0.5009968342373414  0.2226115858580186  1.0000
  C   C17       1.0  0.4269520160767684  0.13342747204528393  0.49638600013987827  1.0000
  C   C18       1.0  0.5731137220619189  0.8665655133776582  0.5036207752701356  1.0000
  C   C19       1.0  0.28985573253471836  0.05867867005690641  0.519653579489997  1.0000
  C   C20       1.0  0.7102051588636797  0.9413150776012174  0.48035694349366737  1.0000
  C   C21       1.0  0.3598064021095411  0.9284403794049965  0.5231686582599906  1.0000
  C   C22       1.0  0.640250120289501  0.0715591436963408  0.47683881874849  1.0000
  N   N1        1.0  0.08930501338006275  0.5015046653336057  0.9828427869806471  1.0000
  N   N2        1.0  0.9106292662935829  0.49849991842450697  0.01715222952459777  1.0000
  O   O1        1.0  0.499949794329943  0.6726898238663851  0.5019676034153304  1.0000
  O   O2        1.0  0.9385465328336833  0.5194305978958197  0.3907277659158621  1.0000
  O   O3        1.0  0.16438617381400186  0.3293056469278213  0.4856921298312641  1.0000
  O   O4        1.0  0.3906342103006182  0.5003560892017165  0.6110483090970076  1.0000
  O   O5        1.0  0.5001010750496704  0.3273054187526086  0.4980303415821224  1.0000
  O   O6        1.0  0.061462505108302395  0.480560165762725  0.609263653779962  1.0000
  O   O7        1.0  0.8356692005322373  0.6706896406125012  0.5143049959275527  1.0000
  O   O8        1.0  0.6093729787288494  0.4996418617603453  0.3889504988674658  1.0000
  O   O9        1.0  0.23036234454194468  0.5610547160814505  0.4673105298768261  1.0000
  O   O10       1.0  0.7696783010894066  0.4389396771339236  0.5326850188758739  1.0000
  F   F1        1.0  0.08179138743045657  0.11217999108151842  0.5417358165942969  1.0000
  F   F2        1.0  0.9182629910073391  0.8878151054096719  0.4582861879105377  1.0000
