data_image0
_chemical_formula_structural       Cd4H52C40N8O16
_chemical_formula_sum              "Cd4 H52 C40 N8 O16"
_cell_length_a       8.348272443054924
_cell_length_b       9.3322092287717
_cell_length_c       14.91252732582029
_cell_angle_alpha    100.97338173951908
_cell_angle_beta     90.0002146291377
_cell_angle_gamma    90.00030789949697

_space_group_name_H-M_alt    "P 1"
_space_group_IT_number       1

loop_
  _space_group_symop_operation_xyz
  'x, y, z'

loop_
  _atom_site_type_symbol
  _atom_site_label
  _atom_site_symmetry_multiplicity
  _atom_site_fract_x
  _atom_site_fract_y
  _atom_site_fract_z
  _atom_site_occupancy
  Cd  Cd1       1.0  0.9934698731361352  0.24999483160105024  0.7499993751783338  1.0000
  Cd  Cd2       1.0  0.0065337773229999  0.7500049802880681  0.2500017777710824  1.0000
  Cd  Cd3       1.0  0.9999983876214317  0.9999969512091623  0.5000000284377537  1.0000
  Cd  Cd4       1.0  3.0228686399999973e-07  0.5000016238449801  1.1626132873801752e-06  1.0000
  H   H1        1.0  0.7052524233239409  0.7987795460553995  0.6947710136762737  1.0000
  H   H2        1.0  0.7052524993927349  0.7012215663977558  0.8052291152738678  1.0000
  H   H3        1.0  0.2947452378698827  0.20122027001868756  0.3052294691931935  1.0000
  H   H4        1.0  0.2947475575137588  0.2987804326973206  0.19477163280735976  1.0000
  H   H5        1.0  0.6832249180109712  0.8537463472928194  0.5874068806052011  1.0000
  H   H6        1.0  0.683230172525306  0.6462502703381643  0.9125933268711182  1.0000
  H   H7        1.0  0.31677274318507637  0.1462534645793525  0.4125942723358947  1.0000
  H   H8        1.0  0.3167710822278663  0.3537506414551075  0.08740661853591551  1.0000
  H   H9        1.0  0.41937294750127313  0.8315934635938829  0.6742507650553764  1.0000
  H   H10       1.0  0.41937535938450304  0.6684060274843445  0.8257492405314724  1.0000
  H   H11       1.0  0.5806259115526017  0.16840853549780377  0.3257499830241883  1.0000
  H   H12       1.0  0.5806246975204985  0.33159487590171466  0.17425204501716965  1.0000
  H   H13       1.0  0.4850088065532103  0.9785244432852875  0.7586831750996412  1.0000
  H   H14       1.0  0.48500498160758093  0.5214765105751482  0.7413171452504347  1.0000
  H   H15       1.0  0.5149900524984402  0.0214775600083215  0.241316902908281  1.0000
  H   H16       1.0  0.5149962731515317  0.4785254885233173  0.2586836028324556  1.0000
  H   H17       1.0  0.5080968669344514  0.13420719473865714  0.6354675440768462  1.0000
  H   H18       1.0  0.5080971286497515  0.3657938955627174  0.8645342633032629  1.0000
  H   H19       1.0  0.49190199211570723  0.8657937128459208  0.3645330713984977  1.0000
  H   H20       1.0  0.4919029282470859  0.6342059247200564  0.1354655494978942  1.0000
  H   H21       1.0  0.4291762488626034  0.9884185662729478  0.5559416590492178  1.0000
  H   H22       1.0  0.42917371826862893  0.5115831632613989  0.9440586389475744  1.0000
  H   H23       1.0  0.5708250058965092  0.0115834328255175  0.44405908903367225  1.0000
  H   H24       1.0  0.5708239429192544  0.48841556550749476  0.0559410412460366  1.0000
  H   H25       1.0  0.031464000126256095  0.8308009956758577  0.6901843507121656  1.0000
  H   H26       1.0  0.0314639146640729  0.6691962926456154  0.8098159184007729  1.0000
  H   H27       1.0  0.9685348589290822  0.1691988035939573  0.30981881244549925  1.0000
  H   H28       1.0  0.9685373400861363  0.3308057232605037  0.19018214939557515  1.0000
  H   H29       1.0  0.16556750370799728  0.5520963796560281  0.6745471559191005  1.0000
  H   H30       1.0  0.16556799717113788  0.9478994884592779  0.8254525501093186  1.0000
  H   H31       1.0  0.8344313553354538  0.44790124500340756  0.3254544018868658  1.0000
  H   H32       1.0  0.8344320597271917  0.05210142753251999  0.17454672522441683  1.0000
  H   H33       1.0  0.18177158709416827  0.6821070784454761  0.4178796105699477  1.0000
  H   H34       1.0  0.1817744670999204  0.8178918794617684  0.08212096247500257  1.0000
  H   H35       1.0  0.8182296676775564  0.317895995352444  0.5821239504036984  1.0000
  H   H36       1.0  0.8182291833451103  0.1821057620188711  0.9178779150510723  1.0000
  H   H37       1.0  0.25584484149644027  0.4277866455574396  0.4206944971594667  1.0000
  H   H38       1.0  0.25584862421160887  0.0722149370196234  0.0793052893387696  1.0000
  H   H39       1.0  0.7441528196988756  0.5722142662256643  0.5793054482425788  1.0000
  H   H40       1.0  0.7441502348311175  0.927783787550744  0.9206950609281394  1.0000
  H   H41       1.0  0.21259767868004786  0.35327670622449137  0.5200333241328894  1.0000
  H   H42       1.0  0.21259859445685686  0.1467205420732967  0.9799653876877845  1.0000
  H   H43       1.0  0.787401180370111  0.6467242013600865  0.4799672913424545  1.0000
  H   H44       1.0  0.7874026602792127  0.8532760078934556  0.020033357230744248  1.0000
  H   H45       1.0  0.4650516693708369  0.4590045395757939  0.5934230207479774  1.0000
  H   H46       1.0  0.46505026285938555  0.04099521991509649  0.9065778644850726  1.0000
  H   H47       1.0  0.5349471896800537  0.5409952680978518  0.4065788022664237  1.0000
  H   H48       1.0  0.5349497940352208  0.9590046045695927  0.0934212782444419  1.0000
  H   H49       1.0  0.49752233863359396  0.3327322097791239  0.49138703616255713  1.0000
  H   H50       1.0  0.4975238239922816  0.16726637389830754  0.008612890674349699  1.0000
  H   H51       1.0  0.5024777182714074  0.6672686936069282  0.5086142493860921  1.0000
  H   H52       1.0  0.5024762329008396  0.8327323548773577  0.9913867895225937  1.0000
  C   C1        1.0  0.7796630764134561  0.016858824502214997  0.6943914501376586  1.0000
  C   C2        1.0  0.7796660445321419  0.48314274412651753  0.8056056177816233  1.0000
  C   C3        1.0  0.22033578263297926  0.9831409915752541  0.3056090327334716  1.0000
  C   C4        1.0  0.2203364080714252  0.5168581718720519  0.19439365755543755  1.0000
  C   C5        1.0  0.6689875952825161  0.8890993596648752  0.6615167811215416  1.0000
  C   C6        1.0  0.668989747120669  0.6108993688368612  0.8384823119009542  1.0000
  C   C7        1.0  0.33101006591502363  0.11090154791631328  0.3384838343521396  1.0000
  C   C8        1.0  0.3310139033399651  0.3891015387612739  0.16151830358104044  1.0000
  C   C9        1.0  0.4940042919081262  0.930578986262695  0.6856104357348659  1.0000
  C   C10       1.0  0.49400483612647855  0.5694209269891672  0.8143897769833901  1.0000
  C   C11       1.0  0.5059945671472477  0.06942410853801559  0.31438977487728453  1.0000
  C   C12       1.0  0.5059964186266867  0.43057998480410475  0.18561016842364356  1.0000
  C   C13       1.0  0.42946591610780155  0.037618256865819384  0.628984464257826  1.0000
  C   C14       1.0  0.4294656028360819  0.4623823970336359  0.8710157847435983  1.0000
  C   C15       1.0  0.5705353386453709  0.9623826549274526  0.3710154811492147  1.0000
  C   C16       1.0  0.5705332562059128  0.5376174274476639  0.1289833579842607  1.0000
  C   C17       1.0  0.26295268267979566  0.09615806540465137  0.653947027728812  1.0000
  C   C18       1.0  0.2629518514463385  0.4038416675611741  0.8460494087680673  1.0000
  C   C19       1.0  0.7370461763718551  0.9038439378889505  0.34605305027911026  1.0000
  C   C20       1.0  0.737047007580813  0.5961570864225862  0.15394625099740014  1.0000
  C   C21       1.0  0.08104869608122559  0.7586348371859158  0.6312837435698955  1.0000
  C   C22       1.0  0.08105183262887998  0.7413583656098338  0.868716132749441  1.0000
  C   C23       1.0  0.9189513608170685  0.24136278327498667  0.36871848430936194  1.0000
  C   C24       1.0  0.9189494221161282  0.25864146308015984  0.13128233991010774  1.0000
  C   C25       1.0  0.14662590374705078  0.621864174488067  0.6248735069727119  1.0000
  C   C26       1.0  0.1466287059483378  0.8781315822819091  0.8751268165594795  1.0000
  C   C27       1.0  0.8533717574482366  0.3781334417641489  0.3751293909748626  1.0000
  C   C28       1.0  0.8533713509396037  0.12186825480851836  0.12487031595513542  1.0000
  C   C29       1.0  0.15762193952402012  0.6882824363056272  0.48992610307096396  1.0000
  C   C30       1.0  0.1576243014068481  0.8117142019748086  0.01007413773920256  1.0000
  C   C31       1.0  0.8423769195268704  0.3117173713680188  0.5100757199434369  1.0000
  C   C32       1.0  0.8423757554810931  0.18828563511561916  0.9899229947754127  1.0000
  C   C33       1.0  0.27319602786644737  0.44227439430112964  0.4948989192357944  1.0000
  C   C34       1.0  0.27319683247092286  0.05772619491359881  0.005100782811084102  1.0000
  C   C35       1.0  0.7268028311866672  0.5577254091706009  0.5051035738502423  1.0000
  C   C36       1.0  0.7268044222733464  0.9422747336873274  0.9948964823094147  1.0000
  C   C37       1.0  0.4513179913994634  0.4429230429943799  0.51870176179785  1.0000
  C   C38       1.0  0.4513171803056152  0.05707773451775467  0.9812985478517648  1.0000
  C   C39       1.0  0.5486832633640971  0.5570789477002549  0.4813003264283112  1.0000
  C   C40       1.0  0.548684074439386  0.9429220941722386  0.018699924807783843  1.0000
  N   N1        1.0  0.08875192510752329  0.798924653048573  0.5468039377354545  1.0000
  N   N2        1.0  0.08875538398265799  0.7010707721364611  0.953196895244162  1.0000
  N   N3        1.0  0.9112517253449112  0.2010718759153888  0.45319815754457704  1.0000
  N   N4        1.0  0.9112482664750201  0.29893123957452156  0.046801842627139906  1.0000
  N   N5        1.0  0.19350822905516907  0.579270457953484  0.5348616066514753  1.0000
  N   N6        1.0  0.1935094921579932  0.9207277512349209  0.9651384421339417  1.0000
  N   N7        1.0  0.8064918278424003  0.42072826241835043  0.465139413688732  1.0000
  N   N8        1.0  0.8064917625825601  0.0792720858588964  0.03485869038233601  1.0000
  O   O1        1.0  0.8435529451070635  0.08383060677430619  0.6352891377734412  1.0000
  O   O2        1.0  0.8435618952617787  0.4161746062124222  0.864707165145319  1.0000
  O   O3        1.0  0.15644591394681837  0.9161713923173876  0.3647116103061237  1.0000
  O   O4        1.0  0.15643816162688748  0.5838241309670734  0.1352911749083532  1.0000
  O   O5        1.0  0.8048974457397619  0.05788317811130379  0.7791579201651688  1.0000
  O   O6        1.0  0.804896008134584  0.44211635023800233  0.7208389525757612  1.0000
  O   O7        1.0  0.19510141331484476  0.9421177210694509  0.22084403545344605  1.0000
  O   O8        1.0  0.19510644447120026  0.5578845615586587  0.2791609928329352  1.0000
  O   O9        1.0  0.1872304113038794  0.15495135480043834  0.5956769819302112  1.0000
  O   O10       1.0  0.1872224292435973  0.34504903289830224  0.9043207171424543  1.0000
  O   O11       1.0  0.8127708434463015  0.8450473655747857  0.40432403841165876  1.0000
  O   O12       1.0  0.8127704405204668  0.6549497210685186  0.0956749426146999  1.0000
  O   O13       1.0  0.20724558813036248  0.08856654530134017  0.7324457597702649  1.0000
  O   O14       1.0  0.207253861114566  0.41142960224370023  0.7675494542438771  1.0000
  O   O15       1.0  0.7927556666213177  0.9114332707829078  0.2675547231041834  1.0000
  O   O16       1.0  0.7927509871734485  0.5885691559589145  0.23244553545826113  1.0000
