data_image0
_chemical_formula_structural       Zn4H16C16S16N24
_chemical_formula_sum              "Zn4 H16 C16 S16 N24"
_cell_length_a       8.11983560400479
_cell_length_b       11.213616399007558
_cell_length_c       11.115893212008135
_cell_angle_alpha    89.99989572349196
_cell_angle_beta     90.00009066052252
_cell_angle_gamma    89.99991567265826

_space_group_name_H-M_alt    "P 1"
_space_group_IT_number       1

loop_
  _space_group_symop_operation_xyz
  'x, y, z'

loop_
  _atom_site_type_symbol
  _atom_site_label
  _atom_site_symmetry_multiplicity
  _atom_site_fract_x
  _atom_site_fract_y
  _atom_site_fract_z
  _atom_site_occupancy
  Zn  Zn1       1.0  0.8785200132556527  0.6241305900335944  0.3610010670103492  1.0000
  Zn  Zn2       1.0  0.6214798860954931  0.3758687060507525  0.8610023500288193  1.0000
  Zn  Zn3       1.0  0.1214815493586272  0.12413103877111091  0.1389973339411483  1.0000
  Zn  Zn4       1.0  0.3785185591712832  0.8758691989267645  0.6389980012571429  1.0000
  H   H1        1.0  0.7738998984841102  0.19725960314723776  0.1772716714510949  1.0000
  H   H2        1.0  0.7260996028087093  0.8027400262959501  0.677273195734749  1.0000
  H   H3        1.0  0.22610028559655865  0.6972590351414921  0.3227256963911174  1.0000
  H   H4        1.0  0.27390145254361903  0.3027399774247214  0.8227272890492046  1.0000
  H   H5        1.0  0.602980316563709  0.15335852788922472  0.2608402457336396  1.0000
  H   H6        1.0  0.8970193657827821  0.8466427334727695  0.760841887396694  1.0000
  H   H7        1.0  0.39701995575540394  0.6533570355504069  0.23915810186344544  1.0000
  H   H8        1.0  0.1029803697782512  0.34664212864278443  0.7391585172428563  1.0000
  H   H9        1.0  0.8754822717577683  0.5260869538072653  0.7291676998834762  1.0000
  H   H10       1.0  0.6245173419682076  0.47391258147739274  0.22916729716401113  1.0000
  H   H11       1.0  0.12451564498181975  0.026087160072243893  0.7708332899270475  1.0000
  H   H12       1.0  0.37548351762318083  0.9739128384243543  0.27083226448784364  1.0000
  H   H13       1.0  0.018443931057277003  0.6317999226619121  0.7780313775313132  1.0000
  H   H14       1.0  0.48155647869599966  0.36819917100051913  0.2780306807870474  1.0000
  H   H15       1.0  0.9815537732112676  0.1318001857973172  0.7219703189134208  1.0000
  H   H16       1.0  0.5184458249203204  0.8681993625470523  0.2219690738449316  1.0000
  C   C1        1.0  0.9485963212267592  0.8907189190105524  0.3923586681178008  1.0000
  C   C2        1.0  0.5514036460616724  0.10928121195108526  0.8923603568078632  1.0000
  C   C3        1.0  0.05140470557189051  0.3907195001604079  0.10763834656496131  1.0000
  C   C4        1.0  0.44859533501698223  0.6092816862077441  0.6076395815195639  1.0000
  C   C5        1.0  0.817692919700555  0.06002899158389851  0.2924465520663801  1.0000
  C   C6        1.0  0.6823080626722273  0.9399731042050445  0.7924468756130382  1.0000
  C   C7        1.0  0.18230877175375332  0.5600268961959713  0.20755196590461372  1.0000
  C   C8        1.0  0.31769025375093213  0.4399741088891814  0.7075533586501664  1.0000
  C   C9        1.0  0.7349983253509224  0.6462103147648647  0.0959687309061934  1.0000
  C   C10       1.0  0.7650022313461733  0.35378946219476853  0.5959693204779841  1.0000
  C   C11       1.0  0.26500072978591055  0.14621012796386876  0.40403322818928444  1.0000
  C   C12       1.0  0.23500118450697022  0.8537896288533131  0.9040319707294986  1.0000
  C   C13       1.0  0.8473365089207763  0.5866355208328073  0.9027569174203054  1.0000
  C   C14       1.0  0.6526647124467786  0.4133636994903539  0.40275665775956787  1.0000
  C   C15       1.0  0.15266251767421582  0.0866351199552398  0.5972430622475288  1.0000
  C   C16       1.0  0.3473362688392784  0.9133651935038216  0.09724211481005092  1.0000
  S   S1        1.0  0.8953881199943441  0.6991200932649164  0.0046553755796737  1.0000
  S   S2        1.0  0.6046122388668991  0.30087984937478757  0.5046549767716045  1.0000
  S   S3        1.0  0.10461082879661632  0.1991216971707601  0.4953455873147874  1.0000
  S   S4        1.0  0.39538758867692547  0.800877002195371  0.995347310635573  1.0000
  S   S5        1.0  0.6854703104691141  0.711613739584159  0.2318326681980736  1.0000
  S   S6        1.0  0.8145305405821475  0.2883875744093913  0.731833434398894  1.0000
  S   S7        1.0  0.3145286132107543  0.2116155294695048  0.2681682718891238  1.0000
  S   S8        1.0  0.18546931206822143  0.7883853656354776  0.7681679761994717  1.0000
  S   S9        1.0  0.7592623812386422  0.9676754446344871  0.4106629104514283  1.0000
  S   S10       1.0  0.7407363941542044  0.032324653117044  0.910664058814092  1.0000
  S   S11       1.0  0.24073849088939883  0.4676740714184787  0.0893357629749616  1.0000
  S   S12       1.0  0.25926151004686204  0.5323262563850334  0.5893369196082645  1.0000
  S   S13       1.0  0.00043448561009280004  0.7670286570785836  0.4787039708849932  1.0000
  S   S14       1.0  0.4995651273590981  0.23297185602717718  0.9787059516935558  1.0000
  S   S15       1.0  0.9995692528969257  0.267028373135922  0.0212923699831791  1.0000
  S   S16       1.0  0.500429910459154  0.7329724310887682  0.5212946604477509  1.0000
  N   N1        1.0  0.040266216888795704  0.9371041643056512  0.3079015501045177  1.0000
  N   N2        1.0  0.45973302603088234  0.06289576693041708  0.8079046949668367  1.0000
  N   N3        1.0  0.9597334851294194  0.4371027216117581  0.19209448029051404  1.0000
  N   N4        1.0  0.540266048277971  0.5628968809366908  0.6920962276492447  1.0000
  N   N5        1.0  0.6588576649143861  0.5537237305811544  0.05046905390888411  1.0000
  N   N6        1.0  0.8411427932053783  0.4462761289332704  0.5504695626381988  1.0000
  N   N7        1.0  0.3411403445551572  0.05372516272289119  0.4495312747926122  1.0000
  N   N8        1.0  0.15885920520710073  0.9462745115440826  0.9495297605105719  1.0000
  N   N9        1.0  0.7226592180966948  0.5191301222399146  0.9418783695441919  1.0000
  N   N10       1.0  0.7773420880284974  0.4808699188741414  0.4418781307344234  1.0000
  N   N11       1.0  0.27733871262606874  0.0191296579894669  0.5581226329666009  1.0000
  N   N12       1.0  0.22266122068474203  0.9808698346755873  0.05812231783139049  1.0000
  N   N13       1.0  0.9677045611148999  0.0324330331464395  0.2517220913457692  1.0000
  N   N14       1.0  0.5322963330280077  0.9675682447594834  0.7517230907698221  1.0000
  N   N15       1.0  0.03229718580519152  0.5324301337502745  0.248276477002257  1.0000
  N   N16       1.0  0.46770192793295  0.4675681221260319  0.7482770931196044  1.0000
  N   N17       1.0  0.7278917024264899  0.15053779348490784  0.2489321456331339  1.0000
  N   N18       1.0  0.7721079541193989  0.8494634894841295  0.7489327381811891  1.0000
  N   N19       1.0  0.2721098071166921  0.6505346305994024  0.2510671067282432  1.0000
  N   N20       1.0  0.22789054421944854  0.3494636202129654  0.7510676613077081  1.0000
  N   N21       1.0  0.9275855728213359  0.5719480710057923  0.79889127985777  1.0000
  N   N22       1.0  0.5724154235161834  0.4280513377715422  0.2988909006456382  1.0000
  N   N23       1.0  0.07241102019091271  0.0719475681526234  0.701109626233425  1.0000
  N   N24       1.0  0.42758799135643955  0.9280516650768432  0.2011096443398871  1.0000
