data_image0
_chemical_formula_structural       Cd2H40C56N4O8
_chemical_formula_sum              "Cd2 H40 C56 N4 O8"
_cell_length_a       5.338323024130996
_cell_length_b       11.706464179529522
_cell_length_c       18.874343663356704
_cell_angle_alpha    88.13834985740482
_cell_angle_beta     81.87085428866375
_cell_angle_gamma    76.83442944227215

_space_group_name_H-M_alt    "P 1"
_space_group_IT_number       1

loop_
  _space_group_symop_operation_xyz
  'x, y, z'

loop_
  _atom_site_type_symbol
  _atom_site_label
  _atom_site_symmetry_multiplicity
  _atom_site_fract_x
  _atom_site_fract_y
  _atom_site_fract_z
  _atom_site_occupancy
  Cd  Cd1       1.0  0.3244602242679872  0.9997151700843288  0.9999535077975636  1.0000
  Cd  Cd2       1.0  0.07490701422421592  0.500251761498923  0.5000145200450561  1.0000
  H   H1        1.0  0.6912396069886241  0.3092152539554148  0.9205334729604502  1.0000
  H   H2        1.0  0.749661058876299  0.19099343654735182  0.4203261764080466  1.0000
  H   H3        1.0  0.36085122394953817  0.8094290767775332  0.5795565151877186  1.0000
  H   H4        1.0  0.9210795549057309  0.6903919572771215  0.07953442156782133  1.0000
  H   H5        1.0  0.8105330066485124  0.5619851879247618  0.7534059506445558  1.0000
  H   H6        1.0  0.12322560592175325  0.93872069351341  0.25320794930666324  1.0000
  H   H7        1.0  0.31452703901891943  0.0617019317615117  0.7467315628725686  1.0000
  H   H8        1.0  0.12635225358882707  0.4377009556187943  0.24662435244955114  1.0000
  H   H9        1.0  0.24327096057360365  0.44359359064811343  0.7153673677628588  1.0000
  H   H10       1.0  0.4370250754021896  0.0575219024015183  0.2152885273429632  1.0000
  H   H11       1.0  0.7093439913205015  0.9431491841706289  0.7846100442869998  1.0000
  H   H12       1.0  0.4020325292302689  0.5563346565104437  0.2848224381902966  1.0000
  H   H13       1.0  0.41337929759511355  0.25697265554217813  0.780472240510143  1.0000
  H   H14       1.0  0.41980645164311864  0.2440446368083968  0.2805570171416676  1.0000
  H   H15       1.0  0.9438340082812431  0.7565730679340702  0.7194094607834954  1.0000
  H   H16       1.0  0.45029971740310504  0.7430470370440573  0.2197387500819943  1.0000
  H   H17       1.0  0.34313031143808065  0.4743312608532974  0.9081684035851653  1.0000
  H   H18       1.0  0.5676273258336622  0.0258081246546311  0.4077807349945957  1.0000
  H   H19       1.0  0.00047199157061323185  0.9745201869905242  0.592164758443829  1.0000
  H   H20       1.0  0.7261770486897063  0.5252159449020155  0.09186740704678438  1.0000
  H   H21       1.0  0.49748106737755654  0.6757280806861345  0.8154793146222374  1.0000
  H   H22       1.0  0.9242377935378701  0.8244181063474797  0.31538070595761514  1.0000
  H   H23       1.0  0.06289444094460325  0.17585519462811305  0.6846920968265806  1.0000
  H   H24       1.0  0.9893812847121806  0.32376144147216473  0.18441306680377068  1.0000
  H   H25       1.0  0.9378311284039212  0.5744763501648504  0.9351371276940625  1.0000
  H   H26       1.0  0.26346418725038473  0.9255862879399644  0.4349720463292145  1.0000
  H   H27       1.0  0.6222802648805014  0.0747917530714659  0.5651141614912447  1.0000
  H   H28       1.0  0.44824716364627903  0.42496265967172053  0.06478450854257291  1.0000
  H   H29       1.0  0.546112523549887  0.7203004595823541  0.9877905083444461  1.0000
  H   H30       1.0  0.017385299780755703  0.7797710377113916  0.4876982515675223  1.0000
  H   H31       1.0  0.28387377464694874  0.22080694864533967  0.5123151242126411  1.0000
  H   H32       1.0  0.2551302302029726  0.27908317275630873  0.012088336229631113  1.0000
  H   H33       1.0  0.8325565199792208  0.99879930425336  0.8967033164895781  1.0000
  H   H34       1.0  0.5817986140077234  0.5011562596512391  0.39670757641294335  1.0000
  H   H35       1.0  0.48015264958979026  0.49915555604282946  0.6032408283323605  1.0000
  H   H36       1.0  0.7287376269860815  0.000512878633451  0.10314504180366409  1.0000
  H   H37       1.0  0.2407964689610721  0.8653712959705685  0.8399722284037878  1.0000
  H   H38       1.0  0.8569935613552176  0.6345993262403553  0.339964986195568  1.0000
  H   H39       1.0  0.8312601701097717  0.3655386176830504  0.6600918830918587  1.0000
  H   H40       1.0  0.9469741669936054  0.13403357708085648  0.15984872917560008  1.0000
  C   C1        1.0  0.16865408750214078  0.16516448568484776  0.8954634202211692  1.0000
  C   C2        1.0  0.08315361914957003  0.3351517610857967  0.395634719963752  1.0000
  C   C3        1.0  0.8133779239110763  0.665276916552493  0.6043718874625057  1.0000
  C   C4        1.0  0.2290895845673902  0.8345960888872098  0.10461997811938772  1.0000
  C   C5        1.0  0.06088840588851247  0.27244365879506194  0.8540045301769226  1.0000
  C   C6        1.0  0.08270945116852597  0.22812453846272265  0.353968904593863  1.0000
  C   C7        1.0  0.6643318084557344  0.7723850815234812  0.6459939432710798  1.0000
  C   C8        1.0  0.18711463143785054  0.7273960685578729  0.1461633244559408  1.0000
  C   C9        1.0  0.8104028225876619  0.33969751790731095  0.8754150685764586  1.0000
  C   C10       1.0  0.8995256772846644  0.16073057155983858  0.37522057214894744  1.0000
  C   C11       1.0  0.4352027660839325  0.8397714413836609  0.6246677974558069  1.0000
  C   C12       1.0  0.025449985284900705  0.6600416118618496  0.12470752455656964  1.0000
  C   C13       1.0  0.7155078180189705  0.44588404914342294  0.8409432851440642  1.0000
  C   C14       1.0  0.911507920470086  0.0545381117361856  0.34070240387059414  1.0000
  C   C15       1.0  0.3061738898772715  0.9459036849335901  0.6592191677697841  1.0000
  C   C16       1.0  0.0025692931904684217  0.5537869352613499  0.15916013205605142  1.0000
  C   C17       1.0  0.8764631815938835  0.4813074827752645  0.7825138696731527  1.0000
  C   C18       1.0  0.10813908999838164  0.019387108548450296  0.2823385611088085  1.0000
  C   C19       1.0  0.4091876860417401  0.9810593694054429  0.7175990845480769  1.0000
  C   C20       1.0  0.14040545764000714  0.5184648131891618  0.21759455366386501  1.0000
  C   C21       1.0  0.12349966089932707  0.41350434922071594  0.7603537403610332  1.0000
  C   C22       1.0  0.2870281478852518  0.0874356103867626  0.260263548707286  1.0000
  C   C23       1.0  0.6342442431891726  0.9131866287460254  0.7396504828604265  1.0000
  C   C24       1.0  0.29735991114769406  0.5863250927756809  0.23977839632605938  1.0000
  C   C25       1.0  0.21747176325132497  0.30940472446334866  0.7958672021675071  1.0000
  C   C26       1.0  0.2764244575579439  0.1914820694248219  0.2958565771328239  1.0000
  C   C27       1.0  0.7632525867705834  0.8090978060039473  0.704099317203344  1.0000
  C   C28       1.0  0.3224933238577561  0.6904832857921406  0.20430107996023847  1.0000
  C   C29       1.0  0.4617734812648917  0.5174792135641156  0.8687801309362231  1.0000
  C   C30       1.0  0.7297551170407599  0.9826788001244466  0.36850872207294577  1.0000
  C   C31       1.0  0.08000998332810383  0.017613316050528696  0.6315083117913574  1.0000
  C   C32       1.0  0.8486054715286429  0.48204581253497036  0.13124764914090292  1.0000
  C   C33       1.0  0.37362762148460155  0.6317230538051035  0.8526398049228304  1.0000
  C   C34       1.0  0.7562762662290153  0.8683576502864625  0.3524841070298664  1.0000
  C   C35       1.0  0.9759657266948591  0.13190738456400194  0.6475946556620045  1.0000
  C   C36       1.0  0.8586761971074282  0.36775102800443443  0.1472695858423876  1.0000
  C   C37       1.0  0.13042850445331305  0.7072828641280178  0.8837879657651869  1.0000
  C   C38       1.0  0.588666353162111  0.7927432598701927  0.383678131618943  1.0000
  C   C39       1.0  0.7639767463080529  0.20750093472625508  0.6164328229016789  1.0000
  C   C40       1.0  0.7221991162055799  0.2921326550669506  0.11611317041159448  1.0000
  C   C41       1.0  0.9274563565149804  0.6676522157380518  0.9260079156572019  1.0000
  C   C42       1.0  0.3461283528113695  0.8324087167426697  0.4258676092511919  1.0000
  C   C43       1.0  0.6031076051938556  0.16793786238746825  0.5742246760189644  1.0000
  C   C44       1.0  0.5219460479470968  0.3317667351900937  0.0738732734639598  1.0000
  C   C45       1.0  0.7075078284262303  0.7482888933458156  0.9553923503489089  1.0000
  C   C46       1.0  0.20671904667442215  0.7517709748610388  0.45530580781052526  1.0000
  C   C47       1.0  0.412878143428834  0.24868834990422073  0.5447647516144231  1.0000
  C   C48       1.0  0.4120505499274356  0.2510980301442416  0.0444966115123009  1.0000
  C   C49       1.0  0.866150142092081  0.9041011722212176  0.9039825529955011  1.0000
  C   C50       1.0  0.5209874865270409  0.5958768148650363  0.40397337590962223  1.0000
  C   C51       1.0  0.5206251727434645  0.40443031251060546  0.596072862304375  1.0000
  C   C52       1.0  0.6749901562727771  0.09523617434759757  0.09588404094969862  1.0000
  C   C53       1.0  0.09198002024815076  0.8291876822226032  0.8726479183796343  1.0000
  C   C54       1.0  0.6720334708540677  0.6707901863563279  0.3726301190574972  1.0000
  C   C55       1.0  0.7149122881827733  0.32942877529151804  0.6274703159008439  1.0000
  C   C56       1.0  0.7946187309990047  0.17020346898571853  0.12720158759322692  1.0000
  N   N1        1.0  0.6759347096856057  0.8648406038525493  0.9451166346272188  1.0000
  N   N2        1.0  0.2915252670984713  0.6352001638365364  0.44508453119052405  1.0000
  N   N3        1.0  0.3715080200030272  0.36523270225757176  0.554935181244808  1.0000
  N   N4        1.0  0.4866917209147417  0.1345373822647886  0.054745747952601696  1.0000
  O   O1        1.0  0.393909352907286  0.10475139596304218  0.8748101902063113  1.0000
  O   O2        1.0  0.24815948923659895  0.3956166014794532  0.3751393175866724  1.0000
  O   O3        1.0  0.017710460128362943  0.6045092708631756  0.6250507925494375  1.0000
  O   O4        1.0  0.37303718573183187  0.8951794442232096  0.12524393601525932  1.0000
  O   O5        1.0  0.026163727893098964  0.1423659216690538  0.9528878603037185  1.0000
  O   O6        1.0  0.9179384194074416  0.35771088799239686  0.4530661894095402  1.0000
  O   O7        1.0  0.7286442493701274  0.6429502107409348  0.5468163418634617  1.0000
  O   O8        1.0  0.12164125188420616  0.8570768204053393  0.047110142129128015  1.0000
