data_image0
_chemical_formula_structural       Zn2H52C60N8O8
_chemical_formula_sum              "Zn2 H52 C60 N8 O8"
_cell_length_a       12.135233416007335
_cell_length_b       12.11699684547193
_cell_length_c       12.214241825375364
_cell_angle_alpha    61.28560717878457
_cell_angle_beta     78.1818478123466
_cell_angle_gamma    107.61916173354678

_space_group_name_H-M_alt    "P 1"
_space_group_IT_number       1

loop_
  _space_group_symop_operation_xyz
  'x, y, z'

loop_
  _atom_site_type_symbol
  _atom_site_label
  _atom_site_symmetry_multiplicity
  _atom_site_fract_x
  _atom_site_fract_y
  _atom_site_fract_z
  _atom_site_occupancy
  Zn  Zn1       1.0  0.45574290507756393  0.7513666458247459  0.2954415309325  1.0000
  Zn  Zn2       1.0  0.046437627520184266  0.251134467958849  0.2033593712761572  1.0000
  H   H1        1.0  0.7498999493091603  0.8617487955389579  0.2585995832788937  1.0000
  H   H2        1.0  0.7551231475038094  0.9957521784246524  0.3855649813897628  1.0000
  H   H3        1.0  0.12086944973163578  0.5081245615647276  0.24115299815413482  1.0000
  H   H4        1.0  0.38130225092593417  0.6405422709597417  0.1129359166166424  1.0000
  H   H5        1.0  0.35638216168142384  0.2651375178768732  0.6800613015238001  1.0000
  H   H6        1.0  0.14201538570041075  0.9627646045012879  0.5928590129340066  1.0000
  H   H7        1.0  0.9436684094317654  0.5370852952018976  0.8219863083102086  1.0000
  H   H8        1.0  0.5576784927596279  0.23508000153353242  0.9050745735055228  1.0000
  H   H9        1.0  0.010661886760139861  0.2158677439177766  0.9873750859285906  1.0000
  H   H10       1.0  0.48820945407626226  0.0030914358831209674  0.29517501676532737  1.0000
  H   H11       1.0  0.2033926915483804  0.4994940927484777  0.5139567235614919  1.0000
  H   H12       1.0  0.2984624587837104  0.2831323803090484  0.2032406181610255  1.0000
  H   H13       1.0  0.9782526374308276  0.04423099792121124  0.12034656444092201  1.0000
  H   H14       1.0  0.526213871582627  0.9040161144087763  0.43001697426954877  1.0000
  H   H15       1.0  0.16402343881654963  0.5987707512177067  0.380545429681625  1.0000
  H   H16       1.0  0.3332594864506504  0.4550252744250187  0.06862733836643287  1.0000
  H   H17       1.0  0.040965932621496406  0.8764013812340324  0.8152360169630481  1.0000
  H   H18       1.0  0.46085459555182956  0.14430472804789216  0.663448928517809  1.0000
  H   H19       1.0  0.6932228490388327  0.35612835601516224  0.6828995580910231  1.0000
  H   H20       1.0  0.8049272122199652  0.623475817017315  0.8385196468318983  1.0000
  H   H21       1.0  0.5870818105460671  0.02516498032026242  0.9842122333769935  1.0000
  H   H22       1.0  0.9080700405614479  0.4285627035745492  0.061733328942210494  1.0000
  H   H23       1.0  0.009748405147142543  0.07246093725867546  0.5156688390842703  1.0000
  H   H24       1.0  0.4909932961573703  0.47136218318872386  0.43837609830945456  1.0000
  H   H25       1.0  0.2183019703976471  0.2836703782441107  0.8438754109292363  1.0000
  H   H26       1.0  0.28050608569533625  0.9377355126419858  0.4358796670029931  1.0000
  H   H27       1.0  0.1259694565985185  0.5630287710168532  0.6587162139589039  1.0000
  H   H28       1.0  0.3755947109630355  0.21619931330400985  0.06164546152163544  1.0000
  H   H29       1.0  0.9031561506140308  0.8988634777909966  0.9735910999782288  1.0000
  H   H30       1.0  0.5989626181848636  0.12404688375739416  0.5030547289281201  1.0000
  H   H31       1.0  0.8742631199412118  0.37707398452546664  0.5248782834153474  1.0000
  H   H32       1.0  0.6242119660812192  0.6008536382874111  0.9985410642641099  1.0000
  H   H33       1.0  0.34976505585374446  0.4957263839256143  0.7530518628514784  1.0000
  H   H34       1.0  0.15196054429004163  0.8926917077432038  0.3541059168680221  1.0000
  H   H35       1.0  0.2502405180510296  0.6021832482609782  0.7462285208754694  1.0000
  H   H36       1.0  0.24552651059547512  0.005275845285048288  0.1464740919438299  1.0000
  H   H37       1.0  0.5042218345788357  0.5086827860297021  0.7229244175354594  1.0000
  H   H38       1.0  0.9981525791310731  0.7724857131631779  0.49284938838660247  1.0000
  H   H39       1.0  0.23215890251631785  0.7259166172166971  0.7773920080240585  1.0000
  H   H40       1.0  0.26316776342335385  0.9891416228618083  0.007487855942997491  1.0000
  H   H41       1.0  0.8506755097341953  0.20200320779416356  0.8508636143640089  1.0000
  H   H42       1.0  0.6437084936010109  0.2980641920327969  0.14905578796204103  1.0000
  H   H43       1.0  0.0538528459865475  0.2034285063257784  0.6498322819169573  1.0000
  H   H44       1.0  0.4457458134470401  0.2925025151881542  0.3518435603732684  1.0000
  H   H45       1.0  0.6903292681821256  0.7471102399647832  0.6246200754655149  1.0000
  H   H46       1.0  0.8103131546546082  0.6825112854645071  0.4437536383285518  1.0000
  H   H47       1.0  0.3716172953145929  0.8145757685868845  0.8770909150524558  1.0000
  H   H48       1.0  0.12598333147672494  0.7524480805871931  0.05589058137118023  1.0000
  H   H49       1.0  0.761579409904904  0.9191394207908062  0.6807843571765133  1.0000
  H   H50       1.0  0.7381579427156737  0.5558641091649932  0.34287335101949157  1.0000
  H   H51       1.0  0.5988160337306925  0.9430890212633971  0.8202565881293609  1.0000
  H   H52       1.0  0.8998258344809926  0.5805218416084942  0.15539906987105212  1.0000
  C   C1        1.0  0.7406237923753595  0.9309176546057429  0.16684161797780908  1.0000
  C   C2        1.0  0.7615504765452173  0.09556115407144741  0.30803991803436737  1.0000
  C   C3        1.0  0.09848257272592782  0.40765640124467245  0.33300687957338937  1.0000
  C   C4        1.0  0.403449791031079  0.5696724930193113  0.19105226352498758  1.0000
  C   C5        1.0  0.20909140899534853  0.06922782946245572  0.735136174599603  1.0000
  C   C6        1.0  0.29105368604183474  0.05579493828747672  0.6400022903760174  1.0000
  C   C7        1.0  0.8042764391430808  0.4443483131775919  0.7650103263094933  1.0000
  C   C8        1.0  0.6955195736731242  0.4307984783327684  0.8599959556494097  1.0000
  C   C9        1.0  0.05149227374780463  0.09371557640963618  0.9183938725621629  1.0000
  C   C10       1.0  0.4490029488476707  0.0307030432016332  0.457610142341963  1.0000
  C   C11       1.0  0.012365643126443523  0.47072631428533634  0.582014431452393  1.0000
  C   C12       1.0  0.48773998626025167  0.4059074483167747  0.041888227581750814  1.0000
  C   C13       1.0  0.4844507219830519  0.6348991317275009  0.5394694907279172  1.0000
  C   C14       1.0  0.017551991547747947  0.9765112694515139  0.3491797364327807  1.0000
  C   C15       1.0  0.17417368269718755  0.5230288659095096  0.9603358691129102  1.0000
  C   C16       1.0  0.3256094110305697  0.8670411926421409  0.15052817233084417  1.0000
  C   C17       1.0  0.49017536679435386  0.681950289991434  0.7185425232567014  1.0000
  C   C18       1.0  0.00953089558018418  0.7902214392859508  0.3078838289786815  1.0000
  C   C19       1.0  0.4002483735514488  0.707028673761279  0.783479292880429  1.0000
  C   C20       1.0  0.09809992930165384  0.8166350372228095  0.19223677329841135  1.0000
  C   C21       1.0  0.25738924613106934  0.1833769609418995  0.745440870299312  1.0000
  C   C22       1.0  0.2418545244088649  0.9967514036571573  0.5750323973865434  1.0000
  C   C23       1.0  0.9278750842167796  0.5032955636886386  0.7559328118693358  1.0000
  C   C24       1.0  0.5728020305989857  0.316779163462499  0.9236840355439567  1.0000
  C   C25       1.0  0.972629668238632  0.10458788376357123  0.02180306888550373  1.0000
  C   C26       1.0  0.5283641470963686  0.007268994439698353  0.36677837081675346  1.0000
  C   C27       1.0  0.12667028294919203  0.4953374002644183  0.4789714727037193  1.0000
  C   C28       1.0  0.3734286702609779  0.3943485257645137  0.13230406529444136  1.0000
  C   C29       1.0  0.08000388307811346  0.9682526906083809  0.8181291242348153  1.0000
  C   C30       1.0  0.4210690394647755  0.10210578468340967  0.6112723039003213  1.0000
  C   C31       1.0  0.7873650137143001  0.39833304680472265  0.6809174096484231  1.0000
  C   C32       1.0  0.7116081445167808  0.5316461719517777  0.8897811438804409  1.0000
  C   C33       1.0  0.660739823237563  0.020485633524636126  0.02083821217580345  1.0000
  C   C34       1.0  0.8362984310290643  0.3191207212116397  0.13999595882644672  1.0000
  C   C35       1.0  0.04194662377464915  0.18256066327514026  0.4790677916131685  1.0000
  C   C36       1.0  0.45923508080825576  0.477188633542923  0.36000249658771816  1.0000
  C   C37       1.0  0.17970375103375605  0.19539024573258965  0.8357465384508133  1.0000
  C   C38       1.0  0.3197103830300562  0.9844370931906425  0.48517239159140496  1.0000
  C   C39       1.0  0.030310145496038398  0.5162193868026536  0.6657607104628909  1.0000
  C   C40       1.0  0.4705199487974241  0.3045961765455872  0.013308067130488129  1.0000
  C   C41       1.0  0.0022000467950462274  0.9804204337279999  0.908121707833061  1.0000
  C   C42       1.0  0.4990493616923145  0.09012916043242565  0.5212239180128293  1.0000
  C   C43       1.0  0.8896329683792885  0.4108123336190133  0.591075449224661  1.0000
  C   C44       1.0  0.6095133016545519  0.5193974834280084  0.9795905769717025  1.0000
  C   C45       1.0  0.4517921079931854  0.5693289808854942  0.6915260904573158  1.0000
  C   C46       1.0  0.04968125332182189  0.8550669469642429  0.38171715654546284  1.0000
  C   C47       1.0  0.26142199923597786  0.6421058829126451  0.8090101051986026  1.0000
  C   C48       1.0  0.23571963645995458  0.9304041232102237  0.11861933302792957  1.0000
  C   C49       1.0  0.7899208816880188  0.10660199617409181  0.9541155911789762  1.0000
  C   C50       1.0  0.7066945102299941  0.25653768348016104  0.1831659807916067  1.0000
  C   C51       1.0  0.06174741591865994  0.24542197038466898  0.546179630563941  1.0000
  C   C52       1.0  0.43876408453122917  0.38979604904080395  0.3172369889285063  1.0000
  C   C53       1.0  0.6198365024644944  0.7617267419934565  0.68001587190561  1.0000
  C   C54       1.0  0.8801743555698068  0.6984062620799918  0.3583535798551194  1.0000
  C   C55       1.0  0.44127232527672794  0.7990191003335951  0.8217916801374936  1.0000
  C   C56       1.0  0.056930728107161654  0.7374693580308077  0.14123992160830304  1.0000
  C   C57       1.0  0.660103734466205  0.8579366882652624  0.7128587879082672  1.0000
  C   C58       1.0  0.8393971863652753  0.6256707865114208  0.3022994016101706  1.0000
  C   C59       1.0  0.5697945797025098  0.8728215348654659  0.7885702896084437  1.0000
  C   C60       1.0  0.9289983884560729  0.6412314827735984  0.19654578972244943  1.0000
  N   N1        1.0  0.6312025910187985  0.9116321304442252  0.15360596967144594  1.0000
  N   N2        1.0  0.8692758842275625  0.21743346378929126  0.21840279863721423  1.0000
  N   N3        1.0  0.0656995635106767  0.2850523227038053  0.3460269828670662  1.0000
  N   N4        1.0  0.43643553466215224  0.588631533634775  0.2807575629652702  1.0000
  N   N5        1.0  0.8385943710952618  0.04877288271405423  0.04796335768348569  1.0000
  N   N6        1.0  0.6613140329198687  0.11544952049688817  0.2888071771904777  1.0000
  N   N7        1.0  0.09787110965469042  0.387455633559533  0.4522433621989492  1.0000
  N   N8        1.0  0.40312480015770547  0.449544616426671  0.2110721559470504  1.0000
  O   O1        1.0  0.4009996328536688  0.6661011842221642  0.4969448448904996  1.0000
  O   O2        1.0  0.0998337555500513  0.10052045777667469  0.23587398685684488  1.0000
  O   O3        1.0  0.16250615020140913  0.3971377726346503  0.002338048773459822  1.0000
  O   O4        1.0  0.3368944490485219  0.8363715466774694  0.2641959611624287  1.0000
  O   O5        1.0  0.5876076589084461  0.658655731746478  0.4630752038291421  1.0000
  O   O6        1.0  0.9157493905049066  0.9529337412115739  0.42773326970676334  1.0000
  O   O7        1.0  0.12089789583952638  0.5498537059001833  0.03671952971878762  1.0000
  O   O8        1.0  0.38110399379259274  0.8446583078191808  0.07102376520137432  1.0000
