data_image0
_chemical_formula_structural       Zn2H24C28N4O8
_chemical_formula_sum              "Zn2 H24 C28 N4 O8"
_cell_length_a       9.286167858272691
_cell_length_b       9.286060814189042
_cell_length_c       11.019629595240378
_cell_angle_alpha    91.28873474691768
_cell_angle_beta     91.28912245923429
_cell_angle_gamma    100.4819082594645

_space_group_name_H-M_alt    "P 1"
_space_group_IT_number       1

loop_
  _space_group_symop_operation_xyz
  'x, y, z'

loop_
  _atom_site_type_symbol
  _atom_site_label
  _atom_site_symmetry_multiplicity
  _atom_site_fract_x
  _atom_site_fract_y
  _atom_site_fract_z
  _atom_site_occupancy
  Zn  Zn1       1.0  0.8503500846044219  0.14964498386369476  0.2499900019893531  1.0000
  Zn  Zn2       1.0  0.14964667534886902  0.8503523427428307  0.7500007051807314  1.0000
  H   H1        1.0  0.45858517446298924  0.3247804545839656  0.9881045674638927  1.0000
  H   H2        1.0  0.32477381844621794  0.45856982023561704  0.4881457363914166  1.0000
  H   H3        1.0  0.541417175771173  0.6752181569176228  0.011885408270146091  1.0000
  H   H4        1.0  0.6752163679957307  0.5414281465987045  0.5118656922084384  1.0000
  H   H5        1.0  0.15678739232512132  0.026753834194479995  0.9959310872235108  1.0000
  H   H6        1.0  0.0267284151143841  0.1567873465580547  0.4959359281456202  1.0000
  H   H7        1.0  0.8432111557992883  0.9732555157411086  0.004061788646339396  1.0000
  H   H8        1.0  0.9732736118372145  0.8432166412319191  0.5040596221896648  1.0000
  H   H9        1.0  0.20094199765522092  0.21384140813511004  0.9682283805621948  1.0000
  H   H10       1.0  0.2138210371013827  0.20094496846147789  0.4682394417659168  1.0000
  H   H11       1.0  0.7990595567575127  0.7861593156926573  0.03176525902546248  1.0000
  H   H12       1.0  0.7861814623890808  0.799062283290702  0.5317580193169815  1.0000
  H   H13       1.0  0.3010598635267031  0.9383347520497125  0.1900525441829259  1.0000
  H   H14       1.0  0.9383040652584068  0.30106811015244256  0.6900494894972908  1.0000
  H   H15       1.0  0.6989359078874318  0.061677754103662594  0.8099421564379199  1.0000
  H   H16       1.0  0.0617077147492964  0.6989229464468136  0.30996231537083213  1.0000
  H   H17       1.0  0.710753647745804  0.3165298235551859  0.0706347358659514  1.0000
  H   H18       1.0  0.3165439629417719  0.7107387249088006  0.5706812854076658  1.0000
  H   H19       1.0  0.289243824736019  0.68346530752369  0.9293595635127685  1.0000
  H   H20       1.0  0.6834457536156505  0.28924935075132646  0.4293362307160463  1.0000
  H   H21       1.0  0.5605599070487274  0.9432092446790963  0.26183590302064624  1.0000
  H   H22       1.0  0.9431908787054439  0.5605635565309371  0.7618342453444882  1.0000
  H   H23       1.0  0.4394306238158237  0.0568041872212817  0.7381577795087252  1.0000
  H   H24       1.0  0.05681772758875072  0.43942083791318953  0.23817912274400743  1.0000
  C   C1        1.0  0.35806548763726204  0.13212067743582168  0.0830076239364104  1.0000
  C   C2        1.0  0.13209735564961989  0.3580580528636901  0.5830271704535122  1.0000
  C   C3        1.0  0.6419298659504166  0.867881989544273  0.9169886291693814  1.0000
  C   C4        1.0  0.8679046661990526  0.6419326701021218  0.4169852834325098  1.0000
  C   C5        1.0  0.476259129416718  0.2387159932639165  0.0494080079546677  1.0000
  C   C6        1.0  0.2387075267958139  0.4762466387305225  0.5494484856162529  1.0000
  C   C7        1.0  0.5237365474535238  0.7612812974277999  0.9505826705498776  1.0000
  C   C8        1.0  0.7612915643001729  0.5237461559324006  0.45056485376895944  1.0000
  C   C9        1.0  0.20515188424571557  0.13358793206013786  0.03920971328987829  1.0000
  C   C10       1.0  0.13355831543317717  0.2051432020971831  0.5392143978178794  1.0000
  C   C11       1.0  0.7948450561987174  0.8664180659975215  0.9607857582057308  1.0000
  C   C12       1.0  0.866441271156674  0.7948519488103969  0.4607844939308449  1.0000
  C   C13       1.0  0.10152400839081109  0.15773249836102107  0.14023709056779407  1.0000
  C   C14       1.0  0.1577004579943377  0.10150730006798629  0.6402409156573865  1.0000
  C   C15       1.0  0.8984830663926644  0.8422836309026208  0.8597598074561004  1.0000
  C   C16       1.0  0.8422969984503723  0.8984802544806101  0.35974865163984043  1.0000
  C   C17       1.0  0.38911769560226617  0.023439987029505  0.16076002755314528  1.0000
  C   C18       1.0  0.023411959023285092  0.38911233255931416  0.6607753612575635  1.0000
  C   C19       1.0  0.6108798214971571  0.9765693789921884  0.8392282846122469  1.0000
  C   C20       1.0  0.9765931788553318  0.6108774344306125  0.3392344253577164  1.0000
  C   C21       1.0  0.6162469401235099  0.2351605248913273  0.09491684085143957  1.0000
  C   C22       1.0  0.2351634719885851  0.6162310824329111  0.5949569460354452  1.0000
  C   C23       1.0  0.383749994695421  0.764837907036238  0.9050729915548743  1.0000
  C   C24       1.0  0.7648323178001917  0.3837615524846782  0.4050608423920535  1.0000
  C   C25       1.0  0.5317513389905741  0.026227019926913894  0.20206204827496066  1.0000
  C   C26       1.0  0.026206661366970304  0.531748677983316  0.7020698702798284  1.0000
  C   C27       1.0  0.46824596159675747  0.9737811991730113  0.797930766685333  1.0000
  C   C28       1.0  0.9737977431598922  0.46824326373388914  0.29793813814238485  1.0000
  N   N1        1.0  0.643764049523462  0.13150332301938758  0.1709811472861062  1.0000
  N   N2        1.0  0.131493378912495  0.643755778910794  0.6710107611144949  1.0000
  N   N3        1.0  0.3562328700977416  0.8685026542379004  0.8290161382250645  1.0000
  N   N4        1.0  0.8685050808160852  0.35624022299916186  0.32900627436836055  1.0000
  O   O1        1.0  0.13943437206680903  0.1616507457988092  0.24990672007237438  1.0000
  O   O2        1.0  0.16156754050170014  0.13937749583897838  0.7499112694007266  1.0000
  O   O3        1.0  0.8605976251945365  0.8384021623196458  0.7500917579839096  1.0000
  O   O4        1.0  0.8384341025126218  0.8606100567662835  0.2500911106676256  1.0000
  O   O5        1.0  0.9705792160510711  0.16965256234203  0.10232874350287349  1.0000
  O   O6        1.0  0.16966350891257784  0.9705734866932614  0.6023269175011734  1.0000
  O   O7        1.0  0.029419070943639287  0.8303414057289656  0.8976746223752058  1.0000
  O   O8        1.0  0.830337635430965  0.029424035573398993  0.397659369292171  1.0000
