data_image0
_chemical_formula_structural       TmH9C5N2O8
_chemical_formula_sum              "Tm1 H9 C5 N2 O8"
_cell_length_a       6.514614211639861
_cell_length_b       6.638977721612293
_cell_length_c       6.639070233926614
_cell_angle_alpha    64.51099823328374
_cell_angle_beta     73.26485417382777
_cell_angle_gamma    73.26509049660422

_space_group_name_H-M_alt    "P 1"
_space_group_IT_number       1

loop_
  _space_group_symop_operation_xyz
  'x, y, z'

loop_
  _atom_site_type_symbol
  _atom_site_label
  _atom_site_symmetry_multiplicity
  _atom_site_fract_x
  _atom_site_fract_y
  _atom_site_fract_z
  _atom_site_occupancy
  Tm  Tm1       1.0  1.4426886210107384e-05  0.4563585876218211  0.5436287792146642  1.0000
  H   H1        1.0  0.40218107461748076  0.2517300704736485  0.18749208113546695  1.0000
  H   H2        1.0  0.5978030319257854  0.8124957585965761  0.7482980751827243  1.0000
  H   H3        1.0  0.5311546887270282  0.9585708943139081  0.28586184672091963  1.0000
  H   H4        1.0  0.4688196237764402  0.7141490118884732  0.04145274284219622  1.0000
  H   H5        1.0  0.8253381845644228  0.004661328105122201  0.009615730156774287  1.0000
  H   H6        1.0  0.17464787263384807  0.9903645247875164  0.9953376854654861  1.0000
  H   H7        1.0  0.8695526850879886  0.6114845399431276  0.016251202214370205  1.0000
  H   H8        1.0  0.1304310589404735  0.9837655709174131  0.3884838739176998  1.0000
  H   H9        1.0  0.499985766473202  0.37124258916868746  0.62876841133356  1.0000
  C   C1        1.0  0.70586101775001  0.160187011459449  0.01203989249994919  1.0000
  C   C2        1.0  0.29414720901019814  0.9879522856228747  0.8398386174160917  1.0000
  C   C3        1.0  0.037025946467657916  0.5085055816742566  0.014931679282071345  1.0000
  C   C4        1.0  0.9629529967706814  0.9850641926034243  0.4914877997534076  1.0000
  C   C5        1.0  0.5000059031866826  0.5260819985183005  0.4739156424876115  1.0000
  N   N1        1.0  0.532851391315006  0.123143085502214  0.17551885423520022  1.0000
  N   N2        1.0  0.46712980945304844  0.8244608422421963  0.8769066942391817  1.0000
  O   O1        1.0  0.33137240746656715  0.6042294975170962  0.3833071617304852  1.0000
  O   O2        1.0  0.6686609635129342  0.6166738353049865  0.39577010446551253  1.0000
  O   O3        1.0  0.12422164126564172  0.4644612295902136  0.18254037543884744  1.0000
  O   O4        1.0  0.8757932234136944  0.8174353640569549  0.5355518823201207  1.0000
  O   O5        1.0  0.7384977524896995  0.3531177995327043  0.86801124683236  1.0000
  O   O6        1.0  0.26154914074543706  0.13201678945275575  0.6468792452120126  1.0000
  O   O7        1.0  0.12848167033466498  0.44280613906785493  0.8536280709580807  1.0000
  O   O8        1.0  0.8715065597660469  0.14637486479928435  0.5571687522430296  1.0000
