data_image0
_chemical_formula_structural       Ni2H32C32N4O8
_chemical_formula_sum              "Ni2 H32 C32 N4 O8"
_cell_length_a       4.2246157540168205
_cell_length_b       10.591009934429167
_cell_length_c       15.388999224753283
_cell_angle_alpha    96.66308242108775
_cell_angle_beta     90.0000430492427
_cell_angle_gamma    90.00031165737153

_space_group_name_H-M_alt    "P 1"
_space_group_IT_number       1

loop_
  _space_group_symop_operation_xyz
  'x, y, z'

loop_
  _atom_site_type_symbol
  _atom_site_label
  _atom_site_symmetry_multiplicity
  _atom_site_fract_x
  _atom_site_fract_y
  _atom_site_fract_z
  _atom_site_occupancy
  Ni  Ni1       1.0  0.4999998489769838  0.4999995436926738  0.4999998058687042  1.0000
  Ni  Ni2       1.0  0.9999986753784004  0.49999940799320786  0.9999999467449714  1.0000
  H   H1        1.0  0.2576653389616226  0.4393823347153044  0.765044013701875  1.0000
  H   H2        1.0  0.7576595205818322  0.5606198646850371  0.7349546351823193  1.0000
  H   H3        1.0  0.742339093162869  0.5606186487746924  0.23495509265872272  1.0000
  H   H4        1.0  0.24233544321564437  0.4393792329128272  0.2650462769810247  1.0000
  H   H5        1.0  0.5759828004210378  0.057038622986205205  0.7501037327412875  1.0000
  H   H6        1.0  0.0759906706373314  0.9429622278375474  0.7498960744508738  1.0000
  H   H7        1.0  0.4240168975404117  0.9429614201121835  0.24989660162739114  1.0000
  H   H8        1.0  0.9240113944079839  0.057038755649791995  0.2501030319092692  1.0000
  H   H9        1.0  0.6284165958366543  0.17566511116001488  0.6200407346520436  1.0000
  H   H10       1.0  0.1284279512865609  0.8243387041797589  0.8799586596974793  1.0000
  H   H11       1.0  0.3715807350512251  0.8243358774309254  0.3799590219206125  1.0000
  H   H12       1.0  0.871571746686115  0.17566322990904837  0.12004051908006373  1.0000
  H   H13       1.0  0.7490480973603298  0.16572851827728394  0.9671372734810291  1.0000
  H   H14       1.0  0.2490467928227957  0.8342736617668507  0.532861372097969  1.0000
  H   H15       1.0  0.2509539676859164  0.8342724703189716  0.03286248309253641  1.0000
  H   H16       1.0  0.750955272203811  0.1657244750170291  0.46713816722203927  1.0000
  H   H17       1.0  0.0785012217578114  0.07253106598921731  0.9285468573993401  1.0000
  H   H18       1.0  0.578502292558852  0.9274697802674653  0.5714516503308859  1.0000
  H   H19       1.0  0.9214984762101892  0.9274699277132966  0.07145354938719353  1.0000
  H   H20       1.0  0.4214997724658929  0.0725283462985757  0.4285465885622842  1.0000
  H   H21       1.0  0.6936881552874041  0.02435787419273079  0.8926997011221616  1.0000
  H   H22       1.0  0.193693707423698  0.9756432308718529  0.607298850801108  1.0000
  H   H23       1.0  0.3063115426796585  0.9756431144008673  0.10730005545094914  1.0000
  H   H24       1.0  0.8063130917659508  0.024355846303635097  0.3926994605108193  1.0000
  H   H25       1.0  0.4299601051722349  0.38190317197369683  0.9071934328660876  1.0000
  H   H26       1.0  0.9299570403495565  0.6181003804737839  0.5928073051787167  1.0000
  H   H27       1.0  0.5700419598768108  0.6180978319493136  0.09280827434774612  1.0000
  H   H28       1.0  0.0700426576006734  0.3818977716341933  0.40719418478110475  1.0000
  H   H29       1.0  0.23257583960473482  0.2778202289966174  0.9590994469581773  1.0000
  H   H30       1.0  0.7325764096129177  0.7221819140396305  0.5408991923014953  1.0000
  H   H31       1.0  0.7674214912831517  0.722180759594323  0.0409003096144787  1.0000
  H   H32       1.0  0.2674280225003471  0.27781717845995496  0.45910106965024516  1.0000
  C   C1        1.0  0.9518505853636513  0.3136743960074355  0.6842663073406428  1.0000
  C   C2        1.0  0.4518480566861456  0.6863282448023824  0.8157330662579911  1.0000
  C   C3        1.0  0.0481514796779123  0.6863256522025337  0.3157346772419203  1.0000
  C   C4        1.0  0.5481445400377609  0.31367179828803415  0.18426726810933053  1.0000
  C   C5        1.0  0.1052556443962942  0.356202344272802  0.7625691786896598  1.0000
  C   C6        1.0  0.6052580618758298  0.6437957307207326  0.7374317229054556  1.0000
  C   C7        1.0  0.8947464206396633  0.6437967584419582  0.23743238368846425  1.0000
  C   C8        1.0  0.3947345348480766  0.35620431236967687  0.2625686114618588  1.0000
  C   C9        1.0  0.06366337607186522  0.29383725859794646  0.8369316471962449  1.0000
  C   C10       1.0  0.5636593324144599  0.7061673414049564  0.6630651938715035  1.0000
  C   C11       1.0  0.9363386889734427  0.706163724889393  0.16306745916389792  1.0000
  C   C12       1.0  0.43633799844724314  0.29382984476947627  0.3369342730297476  1.0000
  C   C13       1.0  0.8766335952621276  0.18283059159652737  0.8326073811577146  1.0000
  C   C14       1.0  0.3766324306336912  0.8171680726913094  0.6673910236988831  1.0000
  C   C15       1.0  0.12336610269932177  0.8171694515018685  0.16739295321096392  1.0000
  C   C16       1.0  0.6233696343994667  0.18283101469669558  0.3326085880389797  1.0000
  C   C17       1.0  0.7246146476126185  0.14168300783229879  0.7533542465468772  1.0000
  C   C18       1.0  0.2246142599639782  0.858321008306021  0.7466432340671079  1.0000
  C   C19       1.0  0.2753874174326895  0.8583179756550405  0.24664485981326587  1.0000
  C   C20       1.0  0.7753854379937408  0.14167901435668986  0.2533544994478873  1.0000
  C   C21       1.0  0.7559172402612901  0.2063760776904289  0.6802530316099933  1.0000
  C   C22       1.0  0.25592801286888545  0.7936232813152985  0.8197473499934207  1.0000
  C   C23       1.0  0.24408245770109008  0.7936239705168832  0.31974795297210795  1.0000
  C   C24       1.0  0.7440716850832203  0.20637579585221036  0.1802509613171424  1.0000
  C   C25       1.0  0.9883678859559666  0.3841786222404693  0.6061804600282985  1.0000
  C   C26       1.0  0.4883740854557815  0.6158221994182398  0.8938187827464007  1.0000
  C   C27       1.0  0.011631812011089001  0.6158223663531217  0.3938192965448124  1.0000
  C   C28       1.0  0.5116232454264847  0.3841778436774914  0.10618155162183031  1.0000
  C   C29       1.0  0.8460315923284583  0.10770969959160226  0.9093057076699937  1.0000
  C   C30       1.0  0.3460265001191303  0.892291752856302  0.5906935529121782  1.0000
  C   C31       1.0  0.1539704727112365  0.8922903384005278  0.0906939764857242  1.0000
  C   C32       1.0  0.6539755649140204  0.10770733453170322  0.4093060588256848  1.0000
  N   N1        1.0  0.21017655922231884  0.3440165167920384  0.9165089204876014  1.0000
  N   N2        1.0  0.7101787164686472  0.6559817990472181  0.5834926715744545  1.0000
  N   N3        1.0  0.7898231387335245  0.6559825808111484  0.08349199167665232  1.0000
  N   N4        1.0  0.2898233485588975  0.3440163428455776  0.41650751795897634  1.0000
  O   O1        1.0  0.7914503110753445  0.3589563796882089  0.5433652586716209  1.0000
  O   O2        1.0  0.2914475578440588  0.6410440046334925  0.9566345587661191  1.0000
  O   O3        1.0  0.20855175397276332  0.6410446191258784  0.4566357983287902  1.0000
  O   O4        1.0  0.7085474059730501  0.35895794477675474  0.043366570650775316  1.0000
  O   O5        1.0  0.21047758012061735  0.4663638685504522  0.6070880691395929  1.0000
  O   O6        1.0  0.7104765666134937  0.5336363338430701  0.8929117172327851  1.0000
  O   O7        1.0  0.7895197507616559  0.533636174545279  0.3929122652286381  1.0000
  O   O8        1.0  0.2895207642753165  0.4663646598567863  0.10708868955329365  1.0000
