data_image0
_chemical_formula_structural       K8H12C24N28O16
_chemical_formula_sum              "K8 H12 C24 N28 O16"
_cell_length_a       7.442436185340898
_cell_length_b       9.578607324281887
_cell_length_c       15.482565732000822
_cell_angle_alpha    90.00003201764856
_cell_angle_beta     89.99997146845088
_cell_angle_gamma    109.1709314225635

_space_group_name_H-M_alt    "P 1"
_space_group_IT_number       1

loop_
  _space_group_symop_operation_xyz
  'x, y, z'

loop_
  _atom_site_type_symbol
  _atom_site_label
  _atom_site_symmetry_multiplicity
  _atom_site_fract_x
  _atom_site_fract_y
  _atom_site_fract_z
  _atom_site_occupancy
  K   K1        1.0  0.950304323781381  0.894364047646782  0.6604312762197397  1.0000
  K   K2        1.0  0.5496948292117378  0.6056365176255272  0.16043145903321232  1.0000
  K   K3        1.0  0.0496943614587053  0.1056372287161267  0.3395690535063522  1.0000
  K   K4        1.0  0.450310036430025  0.3943603271309186  0.8395721001302762  1.0000
  K   K5        1.0  0.5309050079910802  0.0642151992828914  0.6940444742886528  1.0000
  K   K6        1.0  0.969094818226303  0.43578608422900794  0.1940446715616915  1.0000
  K   K7        1.0  0.4690963630648  0.9357860735941017  0.3059552095493317  1.0000
  K   K8        1.0  0.030906083568389413  0.5642140833605751  0.8059556581639387  1.0000
  H   H1        1.0  0.9284896691873993  0.7091202607974338  0.3053066443428918  1.0000
  H   H2        1.0  0.5715089072498001  0.7908793025380588  0.8053058699616216  1.0000
  H   H3        1.0  0.07151123260728545  0.2908799067921492  0.6946936853827383  1.0000
  H   H4        1.0  0.4284888394686205  0.2091197632493547  0.19469381387641962  1.0000
  H   H5        1.0  0.35217879421049486  0.1357088663158095  0.5399867088935508  1.0000
  H   H6        1.0  0.1478200495342391  0.36429069510374745  0.0399869578703402  1.0000
  H   H7        1.0  0.6478207646766518  0.8642913030163868  0.4600129749444619  1.0000
  H   H8        1.0  0.8521781664448935  0.6357094759715239  0.9600133718556166  1.0000
  H   H9        1.0  0.23873230896864328  0.9756762170203856  0.5120954957552399  1.0000
  H   H10       1.0  0.2612667958360433  0.5243248408167602  0.012095600086858803  1.0000
  H   H11       1.0  0.7612677191792157  0.0243250575996825  0.4879048339706884  1.0000
  H   H12       1.0  0.7387327630506277  0.47567532851589783  0.9879053755267151  1.0000
  C   C1        1.0  0.6086316264714353  0.3752815019313687  0.5003401902740734  1.0000
  C   C2        1.0  0.8913674046830096  0.12471743281981416  0.000338360728442  1.0000
  C   C3        1.0  0.3913679324154699  0.6247186674010621  0.49966013945172  1.0000
  C   C4        1.0  0.1086316849434255  0.8752816312245173  0.9996606772216554  1.0000
  C   C5        1.0  0.7087152383672047  0.42484402277322897  0.6428443453743997  1.0000
  C   C6        1.0  0.791283752123128  0.0751583312432942  0.14284252249183282  1.0000
  C   C7        1.0  0.291286132688434  0.5751572501039917  0.3571559843513654  1.0000
  C   C8        1.0  0.2087149331174273  0.9248429451191595  0.8571565154586979  1.0000
  C   C9        1.0  0.8695482036523784  0.5969671295546775  0.5394751840325754  1.0000
  C   C10       1.0  0.630452851090034  0.9030344529748219  0.039475450549645116  1.0000
  C   C11       1.0  0.13045182449572218  0.4030341450651562  0.46052449980557253  1.0000
  C   C12       1.0  0.36954939361243067  0.09696571287192061  0.9605248791758287  1.0000
  C   C13       1.0  0.023651698560037546  0.7639029586167894  0.4328889745371569  1.0000
  C   C14       1.0  0.47634662534261435  0.7360972941179256  0.932888084868374  1.0000
  C   C15       1.0  0.9763483295880631  0.2360983160030443  0.5671107093009911  1.0000
  C   C16       1.0  0.5236524642833373  0.2639017699268678  0.06711224485728452  1.0000
  C   C17       1.0  0.7728242035864169  0.5428041392108299  0.3889180989029981  1.0000
  C   C18       1.0  0.7271751845748466  0.9571943767406735  0.8889166991503007  1.0000
  C   C19       1.0  0.22717582456144203  0.4571971354092382  0.6110822308229305  1.0000
  C   C20       1.0  0.27282343579064144  0.0428035820160204  0.11108233879966183  1.0000
  C   C21       1.0  0.5330658895243231  0.3267609861472494  0.3552389176761395  1.0000
  C   C22       1.0  0.9669328787905085  0.17323820178160795  0.8552373626063245  1.0000
  C   C23       1.0  0.4669341386235358  0.6732402884728189  0.6447614120497961  1.0000
  C   C24       1.0  0.033065741574979865  0.8267597569750863  0.14476167534363782  1.0000
  N   N1        1.0  0.753306880555996  0.5057487852843607  0.47562917508495434  1.0000
  N   N2        1.0  0.7466911004788839  0.9942497942679224  0.9756277835120104  1.0000
  N   N3        1.0  0.24669314759186278  0.4942524893357075  0.5243711546409742  1.0000
  N   N4        1.0  0.2533075198865973  0.005748164488771599  0.024371254437952  1.0000
  N   N5        1.0  0.5847007077014934  0.3387173632546165  0.5830919749784229  1.0000
  N   N6        1.0  0.915301417242901  0.16128273233218948  0.083090798279791  1.0000
  N   N7        1.0  0.4153015370007367  0.6612828025923534  0.4169090006348314  1.0000
  N   N8        1.0  0.08469995381322096  0.8387185405445693  0.9169082396704199  1.0000
  N   N9        1.0  0.8479291924486173  0.5563413494667273  0.6214519024238001  1.0000
  N   N10       1.0  0.6520726752287942  0.9436591845123633  0.12145088608011893  1.0000
  N   N11       1.0  0.15207352151480083  0.4436599216676457  0.3785484273018086  1.0000
  N   N12       1.0  0.34792956947391923  0.05634098133414509  0.8785487977575743  1.0000
  N   N13       1.0  0.003026031897754146  0.7228888261316585  0.5165721282561649  1.0000
  N   N14       1.0  0.4969712574232615  0.7771111313537844  0.016570972208398906  1.0000
  N   N15       1.0  0.9969726533425669  0.27711245023102293  0.4834275555821464  1.0000
  N   N16       1.0  0.503027362941985  0.22288682740313703  0.9834287116293442  1.0000
  N   N17       1.0  0.906879401282907  0.6739774988658382  0.3701892977123152  1.0000
  N   N18       1.0  0.5931177841941346  0.826022112498471  0.8701885303509018  1.0000
  N   N19       1.0  0.09311881469646008  0.3260226722092057  0.6298103861258542  1.0000
  N   N20       1.0  0.4068799625242789  0.17397695328893548  0.1298111534871396  1.0000
  N   N21       1.0  0.6707609411521387  0.4569973481502245  0.3283157376330835  1.0000
  N   N22       1.0  0.8292378471018791  0.0430018205724068  0.8283148161444418  1.0000
  N   N23       1.0  0.32923861773477364  0.5430028211822061  0.67168459209271  1.0000
  N   N24       1.0  0.17076124252431413  0.9569972434721522  0.1716848676934433  1.0000
  N   N25       1.0  0.49702215156040086  0.2908871654342349  0.44026229126116334  1.0000
  N   N26       1.0  0.0029772693859726087  0.2091115745027494  0.940260859002038  1.0000
  N   N27       1.0  0.5029774073265115  0.7091130038981959  0.5597380384646302  1.0000
  N   N28       1.0  0.9970213509797502  0.7908863842537103  0.05973753306015082  1.0000
  O   O1        1.0  0.6970334845045085  0.3817425125318651  0.7203521646093378  1.0000
  O   O2        1.0  0.8029671958766115  0.11825768271643261  0.22035099975035172  1.0000
  O   O3        1.0  0.3029674172901764  0.6182576550577182  0.2796481651162992  1.0000
  O   O4        1.0  0.19703417517950336  0.8817435901603262  0.7796480381998594  1.0000
  O   O5        1.0  0.14728777949960656  0.8814032613960308  0.4085002576093189  1.0000
  O   O6        1.0  0.35271009320425145  0.6185958686528608  0.9085000025838285  1.0000
  O   O7        1.0  0.8527122486484939  0.11859801322380291  0.5914994262288291  1.0000
  O   O8        1.0  0.6472889964219418  0.38140319539169804  0.09149968125404943  1.0000
  O   O9        1.0  0.4351444556287731  0.2384461771555308  0.2988916641701493  1.0000
  O   O10       1.0  0.0648537271092664  0.2615524636735884  0.7988908812235139  1.0000
  O   O11       1.0  0.564855103258374  0.7615539921766654  0.7011080196678635  1.0000
  O   O12       1.0  0.9351453625171683  0.73844660037075  0.2011081567265833  1.0000
  O   O13       1.0  0.27270635934834075  0.04016743750674579  0.5635176853957022  1.0000
  O   O14       1.0  0.22729380987701833  0.4598321389565001  0.0635179485259698  1.0000
  O   O15       1.0  0.7272945424463443  0.9598327300828374  0.436482644329928  1.0000
  O   O16       1.0  0.7727052797489403  0.5401669250882932  0.9364823811996887  1.0000
