data_image0
_chemical_formula_structural       Cd2H52C60N4O10
_chemical_formula_sum              "Cd2 H52 C60 N4 O10"
_cell_length_a       8.377795462170853
_cell_length_b       12.488691915006978
_cell_length_c       12.48868197836512
_cell_angle_alpha    84.12712598574545
_cell_angle_beta     81.73232394949383
_cell_angle_gamma    81.73250836492893

_space_group_name_H-M_alt    "P 1"
_space_group_IT_number       1

loop_
  _space_group_symop_operation_xyz
  'x, y, z'

loop_
  _atom_site_type_symbol
  _atom_site_label
  _atom_site_symmetry_multiplicity
  _atom_site_fract_x
  _atom_site_fract_y
  _atom_site_fract_z
  _atom_site_occupancy
  Cd  Cd1       1.0  0.749998650025354  0.3737343532671744  0.6262668411611472  1.0000
  Cd  Cd2       1.0  0.2499998480190372  0.6262664191703635  0.3737338069963698  1.0000
  H   H1        1.0  0.6585782885223779  0.5718891018208653  0.4716252241205368  1.0000
  H   H2        1.0  0.8414215814388939  0.5283749669536276  0.4281110530649243  1.0000
  H   H3        1.0  0.3414214149742207  0.42811167556682517  0.5283745067086371  1.0000
  H   H4        1.0  0.15857932799893598  0.4716258115771055  0.5718885614944753  1.0000
  H   H5        1.0  0.7832054895680756  0.1320315112615802  0.5362845826793502  1.0000
  H   H6        1.0  0.716793564085016  0.4637163958275821  0.8679681174297613  1.0000
  H   H7        1.0  0.21679316873164825  0.8679684568400814  0.4637145271337103  1.0000
  H   H8        1.0  0.28320734486378996  0.5362843865102674  0.13203069607107662  1.0000
  H   H9        1.0  0.9474506845171718  0.020727980672816698  0.39464514292897224  1.0000
  H   H10       1.0  0.552548767528549  0.6053554414101042  0.9792723730028711  1.0000
  H   H11       1.0  0.05254660611893065  0.9792728020430272  0.6053532183226196  1.0000
  H   H12       1.0  0.4474510972014157  0.39464452402748407  0.020727421598977013  1.0000
  H   H13       1.0  0.2173629186524835  0.2925215141524333  0.29329013383285474  1.0000
  H   H14       1.0  0.28263642324696997  0.7067096818902455  0.7074788733671937  1.0000
  H   H15       1.0  0.7826391967265779  0.7074792655213354  0.7067093644567706  1.0000
  H   H16       1.0  0.7173632802496285  0.29329109549744464  0.2925208574619802  1.0000
  H   H17       1.0  0.046097405421441834  0.3903769742142059  0.43817800410681673  1.0000
  H   H18       1.0  0.4539022445226522  0.5618225088489622  0.6096226388356668  1.0000
  H   H19       1.0  0.9539024597975473  0.6096229874162659  0.561822591553593  1.0000
  H   H20       1.0  0.5460974584849296  0.4381782723458514  0.3903762909349452  1.0000
  H   H21       1.0  0.1991444651515977  0.9931822519312233  0.2639146281118768  1.0000
  H   H22       1.0  0.30085471008301573  0.7360848770787596  0.006819513424645175  1.0000
  H   H23       1.0  0.8008552378559841  0.0068185292635832015  0.7360843016587282  1.0000
  H   H24       1.0  0.6991453163693464  0.2639142726016033  0.9931811460084388  1.0000
  H   H25       1.0  0.28002543053450074  0.20969901500651386  0.14203993686211186  1.0000
  H   H26       1.0  0.21997331121939814  0.8579604103190874  0.7903003773572691  1.0000
  H   H27       1.0  0.7199744346844882  0.790300946623958  0.8579606587983052  1.0000
  H   H28       1.0  0.7800251863359762  0.14204036592556687  0.20969946974167897  1.0000
  H   H29       1.0  0.4090287898584181  0.1962728516364861  0.9606266393842019  1.0000
  H   H30       1.0  0.0909695698223985  0.039372603232479306  0.8037274876554292  1.0000
  H   H31       1.0  0.5909710758495947  0.8037271061868765  0.03937475733478381  1.0000
  H   H32       1.0  0.9090266780619345  0.9606273511617545  0.19627425787287925  1.0000
  H   H33       1.0  0.4117865021884766  0.9035209920928723  0.1788305746316681  1.0000
  H   H34       1.0  0.08820955143968229  0.8211689728291488  0.09648110290772387  1.0000
  H   H35       1.0  0.5882109506590324  0.09647897105863726  0.8211694525097286  1.0000
  H   H36       1.0  0.9117883865749902  0.17882854305069878  0.9035215187273947  1.0000
  H   H37       1.0  0.0714869587605662  0.29989710457217456  0.025790595404174596  1.0000
  H   H38       1.0  0.4285135384578211  0.9742092351519956  0.7001032239324657  1.0000
  H   H39       1.0  0.928514111421606  0.7001028658155658  0.9742082818693375  1.0000
  H   H40       1.0  0.5714861650387844  0.025791542235694492  0.29989650689671515  1.0000
  H   H41       1.0  0.05553644376447413  0.5966637955038434  0.8175109864497188  1.0000
  H   H42       1.0  0.4444634065930444  0.18248851171230743  0.40333580074349124  1.0000
  H   H43       1.0  0.9444634204764669  0.4033361737408612  0.1824880070935606  1.0000
  H   H44       1.0  0.5555362969035613  0.8175122656753828  0.5966639300856826  1.0000
  H   H45       1.0  0.19376651496206418  0.29496293424975306  0.8422073126128069  1.0000
  H   H46       1.0  0.3062325685993983  0.1577926157934542  0.7050381323046295  1.0000
  H   H47       1.0  0.8062343944757656  0.7050378442809804  0.15779230194659277  1.0000
  H   H48       1.0  0.6937672961305665  0.8422073496441344  0.2949616622972187  1.0000
  H   H49       1.0  0.24367961872721364  0.4170114424907326  0.7647242854244212  1.0000
  H   H50       1.0  0.2563209732850282  0.2352755323276341  0.5829894401827217  1.0000
  H   H51       1.0  0.7563224966518476  0.5829893371830366  0.23527521286520428  1.0000
  H   H52       1.0  0.7436788914449436  0.7647244331099543  0.41701035441913353  1.0000
  C   C1        1.0  0.8806220133669456  0.16430166041374858  0.48022877153427856  1.0000
  C   C2        1.0  0.6193778663001696  0.519771910091066  0.8356984686583642  1.0000
  C   C3        1.0  0.11937785087400234  0.8356983088309491  0.5197702220090079  1.0000
  C   C4        1.0  0.3806207924885712  0.48022805420347925  0.16430144221325804  1.0000
  C   C5        1.0  0.9725436407193868  0.10296263613231818  0.4007482855226598  1.0000
  C   C6        1.0  0.5274560443828449  0.5992523817795429  0.8970369013182945  1.0000
  C   C7        1.0  0.0274550170913059  0.8970373357764599  0.5992500232318321  1.0000
  C   C8        1.0  0.4725426144058955  0.4007475825150025  0.10296300955333491  1.0000
  C   C9        1.0  0.09811301121271043  0.14628637931507169  0.32956644093007276  1.0000
  C   C10       1.0  0.40188625442724657  0.6704333865943752  0.8537137350498225  1.0000
  C   C11       1.0  0.901889427611124  0.8537127688442608  0.6704347870220317  1.0000
  C   C12       1.0  0.5981136103027253  0.32956657884320617  0.1462860595520254  1.0000
  C   C13       1.0  0.12122444062406866  0.253303595973577  0.34354360150228297  1.0000
  C   C14       1.0  0.37877556722379774  0.6564568299709986  0.7466963115033707  1.0000
  C   C15       1.0  0.8787792046300144  0.7466955495216823  0.656458311238616  1.0000
  C   C16       1.0  0.621225342214032  0.3435439485597342  0.25330330305603604  1.0000
  C   C17       1.0  0.025335437459816004  0.3088651338121551  0.42543906251442104  1.0000
  C   C18       1.0  0.4746634207259603  0.574560309666296  0.6911348673925276  1.0000
  C   C19       1.0  0.974664427270156  0.6911348316254334  0.5745607320874341  1.0000
  C   C20       1.0  0.5253362822816143  0.42544047152851056  0.3088640623780847  1.0000
  C   C21       1.0  0.19926823562069979  0.08093671914785722  0.2494785775475137  1.0000
  C   C22       1.0  0.30073141751809374  0.7505209795176382  0.919064324965923  1.0000
  C   C23       1.0  0.8007328365175611  0.919063236011425  0.7505235039602596  1.0000
  C   C24       1.0  0.6992698148754853  0.24947817130576774  0.0809362181973867  1.0000
  C   C25       1.0  0.2889337165171142  0.12148922111568787  0.159426125024531  1.0000
  C   C26       1.0  0.21106794596476428  0.840573342006621  0.8785116442393882  1.0000
  C   C27       1.0  0.7110659879575252  0.8785115486577764  0.8405752079217806  1.0000
  C   C28       1.0  0.788933286428822  0.15942580881678478  0.12148889892392839  1.0000
  C   C29       1.0  0.3948353407654181  0.058293398161318094  0.07975811294315349  1.0000
  C   C30       1.0  0.10516336795797092  0.9202394526030202  0.941706470007226  1.0000
  C   C31       1.0  0.6051621125711151  0.9417065611830749  0.9202427152568119  1.0000
  C   C32       1.0  0.8948335238817721  0.07975726160501749  0.05829392849463489  1.0000
  C   C33       1.0  0.44963670202457  0.10991469053779207  0.9780151879892356  1.0000
  C   C34       1.0  0.0503610310441829  0.021982874907472194  0.8900866171334837  1.0000
  C   C35       1.0  0.5503617960198284  0.8900860818997456  0.021985460168281228  1.0000
  C   C36       1.0  0.9496357000512177  0.9780146474435653  0.10991451865427139  1.0000
  C   C37       1.0  0.4477686418235721  0.9464999795146055  0.10044776389850091  1.0000
  C   C38       1.0  0.05222890211682341  0.8995508226489831  0.0535005338283128  1.0000
  C   C39       1.0  0.5522300174541924  0.0534999809728234  0.8995529480316902  1.0000
  C   C40       1.0  0.9477678289785846  0.10044669970204723  0.9465006019594426  1.0000
  C   C41       1.0  0.041309112593758426  0.38793611689924745  0.014478278090798814  1.0000
  C   C42       1.0  0.45869174741535096  0.9855212023627685  0.6120641688246805  1.0000
  C   C43       1.0  0.9586917963550475  0.6120646654385951  0.9855205354100393  1.0000
  C   C44       1.0  0.541309162022479  0.014479576167964598  0.38793544573472627  1.0000
  C   C45       1.0  0.07457626754002432  0.4412180208634028  0.9110672889888816  1.0000
  C   C46       1.0  0.4254234384924517  0.08893249099956077  0.5587829525150027  1.0000
  C   C47       1.0  0.9254248036201957  0.5587819419101052  0.08893319040176095  1.0000
  C   C48       1.0  0.5745752207853058  0.9110674694878752  0.4412177594151884  1.0000
  C   C49       1.0  0.03178322464579253  0.5540402428948283  0.8976871281317003  1.0000
  C   C50       1.0  0.4682157406524325  0.10231251361653898  0.4459598873540215  1.0000
  C   C51       1.0  0.9682176843030135  0.44596053944302133  0.10231168536913766  1.0000
  C   C52       1.0  0.531782756902942  0.8976882626281081  0.5540399597449265  1.0000
  C   C53       1.0  0.1455754843423733  0.3780780512085613  0.8145155268611431  1.0000
  C   C54       1.0  0.3544249586514852  0.18548442909307988  0.621922877389494  1.0000
  C   C55       1.0  0.8544266310366879  0.6219227284652148  0.1854839714284821  1.0000
  C   C56       1.0  0.6455747448451206  0.8145163482946102  0.3780768534396799  1.0000
  C   C57       1.0  0.010451019853526625  0.37284563159570167  0.7459523434149489  1.0000
  C   C58       1.0  0.4895487612312407  0.2540475676988194  0.6271538604755165  1.0000
  C   C59       1.0  0.9895500508176693  0.6271543349849293  0.25404733491712517  1.0000
  C   C60       1.0  0.5104509422653649  0.7459532096888707  0.3728458703536574  1.0000
  N   N1        1.0  0.9066678676780384  0.265732765528547  0.4937858515997888  1.0000
  N   N2        1.0  0.5933319636294527  0.5062146320980148  0.7342661156631677  1.0000
  N   N3        1.0  0.09333095136602758  0.7342663944301222  0.5062125209273773  1.0000
  N   N4        1.0  0.4066687840859943  0.4937869621899365  0.2657326340649959  1.0000
  O   O1        1.0  0.9020124269687885  0.3122615217045279  0.7809479441012782  1.0000
  O   O2        1.0  0.5979865633982584  0.2190521614285287  0.6877393166322178  1.0000
  O   O3        1.0  0.09798848295805838  0.6877392530190889  0.2190524715166902  1.0000
  O   O4        1.0  0.40201330182073036  0.7809478002019431  0.3122612790281991  1.0000
  O   O5        1.0  0.0057589496804339975  0.43400600455237986  0.657329017456149  1.0000
  O   O6        1.0  0.4942435245810869  0.3426693254104904  0.5659934900021355  1.0000
  O   O7        1.0  0.9942446936175673  0.5659931561713378  0.34266969105048156  1.0000
  O   O8        1.0  0.5057589127756827  0.6573298341701843  0.43400533477426956  1.0000
  O   O9        1.0  0.7500000681377159  0.5139355991913136  0.48606455281792893  1.0000
  O   O10       1.0  0.25000100253348023  0.4860643673893107  0.5139351255141449  1.0000
