data_image0
_chemical_formula_structural       Ag8H12C24S4Cl4O16
_chemical_formula_sum              "Ag8 H12 C24 S4 Cl4 O16"
_cell_length_a       6.090937163385196
_cell_length_b       11.823426196280433
_cell_length_c       11.756027040974729
_cell_angle_alpha    90.00070445550959
_cell_angle_beta     89.99881101552114
_cell_angle_gamma    91.46331393693174

_space_group_name_H-M_alt    "P 1"
_space_group_IT_number       1

loop_
  _space_group_symop_operation_xyz
  'x, y, z'

loop_
  _atom_site_type_symbol
  _atom_site_label
  _atom_site_symmetry_multiplicity
  _atom_site_fract_x
  _atom_site_fract_y
  _atom_site_fract_z
  _atom_site_occupancy
  Ag  Ag1       1.0  0.7868180626574811  0.5282210421818972  0.8596097637046753  1.0000
  Ag  Ag2       1.0  0.7131872784219196  0.4717781314174232  0.3596100531918367  1.0000
  Ag  Ag3       1.0  0.21322043195541335  0.47178440760495727  0.140382755813711  1.0000
  Ag  Ag4       1.0  0.2868199441724427  0.5282246020527877  0.6403841677130089  1.0000
  Ag  Ag5       1.0  0.8878539592487157  0.35437616193486565  0.6500628915695614  1.0000
  Ag  Ag6       1.0  0.6121673815913693  0.6456274597621671  0.1500544527146417  1.0000
  Ag  Ag7       1.0  0.11215816574493685  0.6456257537699414  0.3499457899743986  1.0000
  Ag  Ag8       1.0  0.3878152087125315  0.3543751329489878  0.8499431708165374  1.0000
  H   H1        1.0  0.41950283972055047  0.8130203173164218  0.2706498997068607  1.0000
  H   H2        1.0  0.0804984979826102  0.18697389605686252  0.7706429643142342  1.0000
  H   H3        1.0  0.5804913405544809  0.1869857250911977  0.7293460225361771  1.0000
  H   H4        1.0  0.91951015315999  0.813021232796231  0.2293546590453204  1.0000
  H   H5        1.0  0.2001892695921867  0.9378076830067953  0.39495053498958305  1.0000
  H   H6        1.0  0.29978354865845347  0.062186105403590396  0.894951828790127  1.0000
  H   H7        1.0  0.7997913226149436  0.0621822103024954  0.6050504909800837  1.0000
  H   H8        1.0  0.700222031563129  0.9378166187388286  0.1050525996525877  1.0000
  H   H9        1.0  0.5275420355375999  0.8054445865266114  0.6890491915851058  1.0000
  H   H10       1.0  0.9724545957176501  0.19455934242412806  0.18904942973136943  1.0000
  H   H11       1.0  0.4724702081182386  0.1945615591805562  0.3109577887302706  1.0000
  H   H12       1.0  0.0275459393798982  0.8054391235650726  0.8109575505906931  1.0000
  C   C1        1.0  0.6218075560143035  0.7355284700817107  0.527954757907203  1.0000
  C   C2        1.0  0.8781796396943874  0.26446932264170186  0.0279474285895134  1.0000
  C   C3        1.0  0.37819795299495934  0.2644717160631202  0.4720513717746683  1.0000
  C   C4        1.0  0.1218157080983104  0.735519809136903  0.9720544479326068  1.0000
  C   C5        1.0  0.5925726395258195  0.7329914227821771  0.4078335170818193  1.0000
  C   C6        1.0  0.9074358571277086  0.2670210115380982  0.9078355506509297  1.0000
  C   C7        1.0  0.4074215405616427  0.2670146196732901  0.5921709114363125  1.0000
  C   C8        1.0  0.09256489170059008  0.732985068419943  0.0921620728161159  1.0000
  C   C9        1.0  0.4365805551805407  0.8083680634735868  0.3630492019594342  1.0000
  C   C10       1.0  0.0633935515327764  0.19162113597860747  0.8630407872941035  1.0000
  C   C11       1.0  0.5634100797122557  0.1916286541660668  0.6369518240060117  1.0000
  C   C12       1.0  0.9366085310377982  0.8083739553288464  0.13695598546895132  1.0000
  C   C13       1.0  0.31696475398621965  0.8802754290185886  0.4322776992073258  1.0000
  C   C14       1.0  0.18300836882656307  0.1197297867030755  0.9322723323477717  1.0000
  C   C15       1.0  0.6830177176179717  0.11972293369976937  0.5677233268074531  1.0000
  C   C16       1.0  0.8169841454070266  0.8802754003600056  0.0677312455453176  1.0000
  C   C17       1.0  0.34910003706797704  0.8783307178844095  0.5497866205483177  1.0000
  C   C18       1.0  0.1508651080784134  0.12166244001277697  0.04978473497453  1.0000
  C   C19       1.0  0.6508775318368195  0.12166846267591318  0.45021355486750286  1.0000
  C   C20       1.0  0.8491271689058022  0.8783342870264401  0.9502188428656878  1.0000
  C   C21       1.0  0.5031102868121379  0.8078716339095847  0.5976153723412169  1.0000
  C   C22       1.0  0.9968789529102434  0.19213373871036044  0.0976144964482799  1.0000
  C   C23       1.0  0.496880490336487  0.19213015976830405  0.4023899067934948  1.0000
  C   C24       1.0  0.003126413843183696  0.807861371396228  0.9023873800643258  1.0000
  S   S1        1.0  0.7973080648247401  0.6399558915874549  0.5966448868369625  1.0000
  S   S2        1.0  0.7026992814750558  0.36004957331264353  0.09663704487073942  1.0000
  S   S3        1.0  0.20269599208015174  0.360051053129041  0.4033501847373344  1.0000
  S   S4        1.0  0.2973127251940113  0.6399481123036778  0.9033580266066394  1.0000
  Cl  Cl1       1.0  0.1912702288695343  0.9610566638123429  0.6383884101774271  1.0000
  Cl  Cl2       1.0  0.3087289443790979  0.03894362872656389  0.1383848173336446  1.0000
  Cl  Cl3       1.0  0.8087123138344339  0.03894423693231629  0.3616160183632573  1.0000
  Cl  Cl4       1.0  0.6912748277515275  0.9610531639804448  0.8616136566872541  1.0000
  O   O1        1.0  0.7958785198507812  0.6685251825391701  0.7179037286817973  1.0000
  O   O2        1.0  0.7041085095705242  0.3314747940793054  0.2179023135118356  1.0000
  O   O3        1.0  0.20411218632936107  0.33147407307892957  0.2820921935344529  1.0000
  O   O4        1.0  0.29589381026816836  0.6685287572472232  0.7820936086765756  1.0000
  O   O5        1.0  0.6984853700117171  0.5247421933245917  0.5756000970776114  1.0000
  O   O6        1.0  0.8015326385354767  0.4752588611467913  0.0755970385298497  1.0000
  O   O7        1.0  0.3015529821952896  0.47525818046229756  0.4243949742915802  1.0000
  O   O8        1.0  0.198471109982755  0.5247370855291179  0.9243963317207005  1.0000
  O   O9        1.0  0.019550196452904293  0.6523111584332638  0.5457947509747143  1.0000
  O   O10       1.0  0.4804580817079652  0.3476915045572894  0.0457858095814672  1.0000
  O   O11       1.0  0.9804474102983248  0.3476999788021545  0.4542088269321241  1.0000
  O   O12       1.0  0.5195505932158395  0.6523044702838378  0.954209261900843  1.0000
  O   O13       1.0  0.7049626527267064  0.6663590367890889  0.3392362534907107  1.0000
  O   O14       1.0  0.7950324239120974  0.33365168595514655  0.8392385058340964  1.0000
  O   O15       1.0  0.29503976201173987  0.33364789854698523  0.6607596687188462  1.0000
  O   O16       1.0  0.20495340303099138  0.6663492335742941  0.160768474573608  1.0000
