data_image0
_chemical_formula_structural       U2Ag4H12C28N4O20
_chemical_formula_sum              "U2 Ag4 H12 C28 N4 O20"
_cell_length_a       8.584669635456375
_cell_length_b       9.440173624612447
_cell_length_c       12.149827972313403
_cell_angle_alpha    71.29560267633836
_cell_angle_beta     67.9690436064392
_cell_angle_gamma    65.7452309718191

_space_group_name_H-M_alt    "P 1"
_space_group_IT_number       1

loop_
  _space_group_symop_operation_xyz
  'x, y, z'

loop_
  _atom_site_type_symbol
  _atom_site_label
  _atom_site_symmetry_multiplicity
  _atom_site_fract_x
  _atom_site_fract_y
  _atom_site_fract_z
  _atom_site_occupancy
  U   U1        1.0  0.62043993943432  0.2755864878867058  0.8247016670657602  1.0000
  U   U2        1.0  0.37956535730148744  0.7244207093580215  0.17529871515024098  1.0000
  Ag  Ag1       1.0  0.959066333123388  0.12073778076533873  0.2641601133180701  1.0000
  Ag  Ag2       1.0  0.04093027931460817  0.87926589660205  0.7358392555007852  1.0000
  Ag  Ag3       1.0  0.8890314106543118  0.40062219285252354  0.08212714760775695  1.0000
  Ag  Ag4       1.0  0.11097289293560662  0.5993908974700873  0.9178761746948749  1.0000
  H   H1        1.0  0.8213789942539617  0.6701720235340007  0.27189838614483364  1.0000
  H   H2        1.0  0.17861392162765816  0.3298281066557394  0.7281019780312903  1.0000
  H   H3        1.0  0.5221278270921843  0.7754119913082819  0.4205536022552749  1.0000
  H   H4        1.0  0.47786438502581063  0.22458343133011746  0.579443972664123  1.0000
  H   H5        1.0  0.31017522280382087  0.21346253762297354  0.33158276429484346  1.0000
  H   H6        1.0  0.6898241486098796  0.7865269130430407  0.6684201718426691  1.0000
  H   H7        1.0  0.0346726157220019  0.40961233813842324  0.3417260156124513  1.0000
  H   H8        1.0  0.9653195227775698  0.5903866329660942  0.6582715389674831  1.0000
  H   H9        1.0  0.5908544651224118  0.028983971915977215  0.39041390587651387  1.0000
  H   H10       1.0  0.4091423438935776  0.9710054476310719  0.6095938162455283  1.0000
  H   H11       1.0  0.8524756905817482  0.8974881570836004  0.231073875299245  1.0000
  H   H12       1.0  0.14752507347821364  0.10251429552472763  0.768929655845035  1.0000
  C   C1        1.0  0.7873854596915916  0.6065089240062492  0.36496334624605714  1.0000
  C   C2        1.0  0.21260459575313462  0.3934888564645931  0.6350358597162965  1.0000
  C   C3        1.0  0.6222688327274212  0.6647037077015839  0.4462544449128457  1.0000
  C   C4        1.0  0.37772048958496646  0.3352893460311607  0.5537444533763959  1.0000
  C   C5        1.0  0.8545218567991099  0.9356176240173613  0.9954579327564516  1.0000
  C   C6        1.0  0.14548717095321004  0.0643895463565514  0.004544783219884599  1.0000
  C   C7        1.0  0.9712325045949299  0.21920346636388646  0.569259497437571  1.0000
  C   C8        1.0  0.028762543289381815  0.7807978864374763  0.4307350793834601  1.0000
  C   C9        1.0  0.4327646852300191  0.1650616526841233  0.2640950689633002  1.0000
  C   C10       1.0  0.567236181817073  0.8349372706448578  0.7359060009368433  1.0000
  C   C11       1.0  0.8566932284667174  0.37961816745168875  0.5214715163522925  1.0000
  C   C12       1.0  0.14329895898070086  0.6203808356307687  0.47852190225497543  1.0000
  C   C13       1.0  0.9071127821833188  0.46192001989619774  0.4034165801500507  1.0000
  C   C14       1.0  0.09287899953964279  0.5380765942348591  0.596579993398798  1.0000
  C   C15       1.0  0.5827814938430791  0.5747326564404606  0.5627411735903749  1.0000
  C   C16       1.0  0.41720662069222664  0.42526042969971206  0.4372539137321283  1.0000
  C   C17       1.0  0.4074144125805006  0.6235013414063103  0.6547410085711789  1.0000
  C   C18       1.0  0.5925810559092711  0.37649881350680664  0.3452553968149416  1.0000
  C   C19       1.0  0.2868197809415278  0.31753315924819253  0.09306579351741814  1.0000
  C   C20       1.0  0.7131844063061905  0.6824669414938002  0.9069349543834447  1.0000
  C   C21       1.0  0.585654156157524  0.05901902616949433  0.2971699703964177  1.0000
  C   C22       1.0  0.4143492047602919  0.9409798835093355  0.7028321038809295  1.0000
  C   C23       1.0  0.7329272714066446  0.9871188358086233  0.20932949551026775  1.0000
  C   C24       1.0  0.26707935567252145  0.012884812540512804  0.7906705820392615  1.0000
  C   C25       1.0  0.43929275307103666  0.20556675857868364  0.14175847641304531  1.0000
  C   C26       1.0  0.5607064711058173  0.7944297890195529  0.8582444190455404  1.0000
  C   C27       1.0  0.7227698619610977  0.026878370385482197  0.09080998953066198  1.0000
  C   C28       1.0  0.2772376259081141  0.9731228949783459  0.9091920907599799  1.0000
  N   N1        1.0  0.6979140667198891  0.4349148399512615  0.6001426502205903  1.0000
  N   N2        1.0  0.3020831084689704  0.5650841358308868  0.39985277714108486  1.0000
  N   N3        1.0  0.5832680364592163  0.14111497553646052  0.05625490518291806  1.0000
  N   N4        1.0  0.416740228792051  0.8588874489125831  0.9437499847039064  1.0000
  O   O1        1.0  0.13110335623810707  0.35366752446747535  0.16181844911156415  1.0000
  O   O2        1.0  0.8689037552753618  0.6463313711317085  0.8381843045370515  1.0000
  O   O3        1.0  0.8273886162349269  0.9948881194721013  0.8898009129911202  1.0000
  O   O4        1.0  0.17262587860170703  0.0051178640867988  0.110200677137513  1.0000
  O   O5        1.0  0.3951709558355247  0.5352573781040989  0.7608059210981821  1.0000
  O   O6        1.0  0.6048189817410691  0.4647475184857299  0.23919076260165173  1.0000
  O   O7        1.0  0.9726251595755002  0.8091399889240024  0.023183096481503292  1.0000
  O   O8        1.0  0.027372704889288012  0.19086008838307583  0.9768225852271539  1.0000
  O   O9        1.0  0.8959326975008608  0.1617532648697448  0.6807559790345152  1.0000
  O   O10       1.0  0.10406834462584398  0.8382586864133972  0.3192427021002046  1.0000
  O   O11       1.0  0.3297483520808129  0.3667675966126539  0.977010916713766  1.0000
  O   O12       1.0  0.6702575124972937  0.6332313058116059  0.02299133474625144  1.0000
  O   O13       1.0  0.5151323678074817  0.1745814914586249  0.7864887049377742  1.0000
  O   O14       1.0  0.48489208445884185  0.8254043190088685  0.2135185049494837  1.0000
  O   O15       1.0  0.7220029292449368  0.3835671800109425  0.8587052558004373  1.0000
  O   O16       1.0  0.27799338871936646  0.6164506912208906  0.14129403166057133  1.0000
  O   O17       1.0  0.2868625413612734  0.7449003557230328  0.621626477891553  1.0000
  O   O18       1.0  0.7131280278864764  0.2550926911846361  0.37837292258628713  1.0000
  O   O19       1.0  0.12015216565131229  0.15029145207815023  0.5072322507546048  1.0000
  O   O20       1.0  0.8798450733663971  0.8497039688422987  0.492764024141067  1.0000
