data_image0
_chemical_formula_structural       Hg2H32C56Br4N4
_chemical_formula_sum              "Hg2 H32 C56 Br4 N4"
_cell_length_a       5.082595926169601
_cell_length_b       14.99222978651424
_cell_length_c       16.633467425833476
_cell_angle_alpha    104.16758006109636
_cell_angle_beta     90.04922748291911
_cell_angle_gamma    99.70059971402708

_space_group_name_H-M_alt    "P 1"
_space_group_IT_number       1

loop_
  _space_group_symop_operation_xyz
  'x, y, z'

loop_
  _atom_site_type_symbol
  _atom_site_label
  _atom_site_symmetry_multiplicity
  _atom_site_fract_x
  _atom_site_fract_y
  _atom_site_fract_z
  _atom_site_occupancy
  Hg  Hg1       1.0  0.915265387162684  0.9999662259949246  0.2499104766562467  1.0000
  Hg  Hg2       1.0  0.08473605208359201  3.4505663627699406e-05  0.7500908183871713  1.0000
  H   H1        1.0  0.5864753528264188  0.0079359364239338  0.4195506424652108  1.0000
  H   H2        1.0  0.5778961617345928  0.9919430020971234  0.08032350262548955  1.0000
  H   H3        1.0  0.41352307915086345  0.9920627057096069  0.5804519997897087  1.0000
  H   H4        1.0  0.42210456588009754  0.008056316504180898  0.9196726743543234  1.0000
  H   H5        1.0  0.27338358591217127  0.09724952210972759  0.5107561206008311  1.0000
  H   H6        1.0  0.17526517824664722  0.9028161308807654  0.9891301149634086  1.0000
  H   H7        1.0  0.7266184322974213  0.9027484208476863  0.48924636954283307  1.0000
  H   H8        1.0  0.8247346329433044  0.0971852897384125  0.010868324217994992  1.0000
  H   H9        1.0  0.3805552150232003  0.2928386318427982  0.355974791011647  1.0000
  H   H10       1.0  0.08837144715239033  0.7071333904291495  0.1438448937935277  1.0000
  H   H11       1.0  0.6194471534958692  0.7071600116896305  0.6440284532637361  1.0000
  H   H12       1.0  0.9116428342933248  0.2928694273057886  0.8561544533727596  1.0000
  H   H13       1.0  0.6900528553809407  0.19589074852641625  0.2726047835728308  1.0000
  H   H14       1.0  0.49473755800863745  0.8039649001480244  0.227269957024177  1.0000
  H   H15       1.0  0.30994557843177256  0.8041078955916631  0.7273984603154555  1.0000
  H   H16       1.0  0.5052663132141788  0.19604071370575582  0.7727299989742134  1.0000
  H   H17       1.0  0.6682604133719039  0.2385830482070048  0.646935432831384  1.0000
  H   H18       1.0  0.4283143279947979  0.7616183650424945  0.8531403674937151  1.0000
  H   H19       1.0  0.3317403179136633  0.7614162743633699  0.35306194741516334  1.0000
  H   H20       1.0  0.5716812128628136  0.23838237146359387  0.14686213023578887  1.0000
  H   H21       1.0  0.33852770960642425  0.3228655113952995  0.7309398181836355  1.0000
  H   H22       1.0  0.015078098003868905  0.6773248895841489  0.768815112037913  1.0000
  H   H23       1.0  0.6614730271854583  0.6771338171286844  0.2690593669629989  1.0000
  H   H24       1.0  0.984926005543663  0.3226772389625481  0.23118648819573903  1.0000
  H   H25       1.0  0.2784445734523118  0.47908066697461027  0.7141022014108172  1.0000
  H   H26       1.0  0.7996568405167892  0.520939641731644  0.785474747180636  1.0000
  H   H27       1.0  0.7215558203718331  0.5209179689124993  0.2858986361375598  1.0000
  H   H28       1.0  0.20034493802634054  0.47906177859471205  0.21452369219431225  1.0000
  H   H29       1.0  0.5489632107987746  0.551023773235336  0.6147631809209883  1.0000
  H   H30       1.0  0.9987720784755825  0.4491022029447507  0.8849614099153766  1.0000
  H   H31       1.0  0.45103359495762163  0.44897555984336174  0.38523720710527687  1.0000
  H   H32       1.0  0.0012292207606777435  0.5508943190172744  0.11503355563123557  1.0000
  C   C1        1.0  0.5368465677660836  0.0722330894409566  0.40881583290265394  1.0000
  C   C2        1.0  0.4640603578773576  0.9277269160048858  0.09109910109084032  1.0000
  C   C3        1.0  0.46314989869345163  0.9277655549699374  0.5911874107920807  1.0000
  C   C4        1.0  0.5359503318297385  0.0722765949525623  0.9088985932866007  1.0000
  C   C5        1.0  0.3643004911818153  0.12132637223807312  0.4588235134412811  1.0000
  C   C6        1.0  0.2422825918443864  0.8787329387884811  0.041089746899636674  1.0000
  C   C7        1.0  0.6356940024182336  0.8786722665120337  0.5411779251598217  1.0000
  C   C8        1.0  0.7577165205620416  0.12126708266519869  0.9589077856517034  1.0000
  C   C9        1.0  0.30338721390261003  0.2030739219884055  0.44114054336470315  1.0000
  C   C10       1.0  0.10025131999574911  0.7969638381487344  0.05872402171805648  1.0000
  C   C11       1.0  0.696608904082886  0.7969240238320053  0.5588625478316869  1.0000
  C   C12       1.0  0.89974884150368  0.20303828304545846  0.9412751715950445  1.0000
  C   C13       1.0  0.42430810840298255  0.2310833178762266  0.3729779411793074  1.0000
  C   C14       1.0  0.19349082817952742  0.768930940477084  0.12690651426996874  1.0000
  C   C15       1.0  0.5756965722724346  0.7689160199848003  0.627024252521231  1.0000
  C   C16       1.0  0.8065211374389704  0.2310711789601854  0.8730926802044221  1.0000
  C   C17       1.0  0.5946456993822692  0.17750661833987638  0.3264783157092878  1.0000
  C   C18       1.0  0.41737449869873433  0.8224195795834675  0.17342588518847174  1.0000
  C   C19       1.0  0.4053586383254169  0.8224920268842765  0.673525530393  1.0000
  C   C20       1.0  0.5826286737405653  0.1775846351048145  0.8265731641798622  1.0000
  C   C21       1.0  0.12615332491022  0.25405799596093465  0.4901594399437526  1.0000
  C   C22       1.0  0.872259844459066  0.7459794397076466  0.009623568830498579  1.0000
  C   C23       1.0  0.8738404680708668  0.7459392416391425  0.5098404903939268  1.0000
  C   C24       1.0  0.1277428578505493  0.25401988653898394  0.9903750148763206  1.0000
  C   C25       1.0  0.9742985872212343  0.29716535812440276  0.5342364897150629  1.0000
  C   C26       1.0  0.6769103220957292  0.7029381572231161  0.9656861181378457  1.0000
  C   C27       1.0  0.025696942623753195  0.702835366474467  0.4657623982142523  1.0000
  C   C28       1.0  0.323085790383459  0.2970597826436859  0.034315168158457296  1.0000
  C   C29       1.0  0.796782913626359  0.3470684183473622  0.5842116204831169  1.0000
  C   C30       1.0  0.4494493949149074  0.6530578930214118  0.9157375154856308  1.0000
  C   C31       1.0  0.2032083293673566  0.6529316042775973  0.4157859112940371  1.0000
  C   C32       1.0  0.5505497340104596  0.34694214629308817  0.08426543176597787  1.0000
  C   C33       1.0  0.6433220207371448  0.3076927703718652  0.6414270261881538  1.0000
  C   C34       1.0  0.3347235669660549  0.6924750714541758  0.8585616086872958  1.0000
  C   C35       1.0  0.3566754764610209  0.69230795393419  0.3585718619347133  1.0000
  C   C36       1.0  0.6652766037105595  0.30752705966269633  0.14144059279262675  1.0000
  C   C37       1.0  0.4601274351399098  0.35519582899525665  0.6882438063412335  1.0000
  C   C38       1.0  0.10436561369891008  0.6449527873193263  0.8115548524651783  1.0000
  C   C39       1.0  0.5398686699975244  0.6448021029334042  0.31175507342161496  1.0000
  C   C40       1.0  0.8956361758568363  0.35504864491424126  0.18844719670995144  1.0000
  C   C41       1.0  0.4251125093477058  0.4426560383541868  0.6784385229166074  1.0000
  C   C42       1.0  0.9824936144182033  0.5574425188171404  0.8212407049201571  1.0000
  C   C43       1.0  0.5748835994606054  0.5573418975435516  0.32156156011296827  1.0000
  C   C44       1.0  0.017502262065392012  0.4425589023876809  0.17875773387414984  1.0000
  C   C45       1.0  0.5765651704544297  0.48329868541282633  0.6229993445327506  1.0000
  C   C46       1.0  0.09376569819809787  0.5168227774572927  0.8767399041892998  1.0000
  C   C47       1.0  0.42342734845069435  0.5166999456919541  0.37699968734134603  1.0000
  C   C48       1.0  0.906236305328001  0.4831751496238327  0.12325777288745597  1.0000
  C   C49       1.0  0.7670804473746387  0.43758731494272507  0.5759582907514582  1.0000
  C   C50       1.0  0.32975199492363316  0.5625198543725957  0.9239190213194701  1.0000
  C   C51       1.0  0.23291346359121698  0.5624141085394498  0.4240407494826569  1.0000
  C   C52       1.0  0.6702503607473815  0.43747877526809015  0.07608001152235735  1.0000
  C   C53       1.0  0.9278084433962376  0.480728224606132  0.5223051941269146  1.0000
  C   C54       1.0  0.447407032755784  0.5193228824412017  0.977609539273821  1.0000
  C   C55       1.0  0.07219067268106734  0.5192718008166183  0.4776935416911526  1.0000
  C   C56       1.0  0.552596237504531  0.4806736431970791  0.02238662973307021  1.0000
  Br  Br1       1.0  0.9719984331918639  0.887535597203616  0.3385527669195694  1.0000
  Br  Br2       1.0  0.08423942843185019  0.11278448237356288  0.161697484364339  1.0000
  Br  Br3       1.0  0.028000339917710407  0.11246373558226001  0.6614476213002403  1.0000
  Br  Br4       1.0  0.915763629693558  0.8872155504016915  0.8383036583742791  1.0000
  N   N1        1.0  0.6498273483833258  0.0994656238445017  0.3437309417327369  1.0000
  N   N2        1.0  0.5502934861025253  0.9004366698520627  0.15616259751076458  1.0000
  N   N3        1.0  0.35017270247308824  0.9005323194057339  0.6562715482173826  1.0000
  N   N4        1.0  0.4497165103273558  0.09956544789349661  0.8438359951367145  1.0000
