data_image0
_chemical_formula_structural       Cd2H48C56N4O14
_chemical_formula_sum              "Cd2 H48 C56 N4 O14"
_cell_length_a       10.110132941706427
_cell_length_b       12.321093860363826
_cell_length_c       12.838202322048788
_cell_angle_alpha    93.05604172197117
_cell_angle_beta     94.27146203717396
_cell_angle_gamma    94.7364640991587

_space_group_name_H-M_alt    "P 1"
_space_group_IT_number       1

loop_
  _space_group_symop_operation_xyz
  'x, y, z'

loop_
  _atom_site_type_symbol
  _atom_site_label
  _atom_site_symmetry_multiplicity
  _atom_site_fract_x
  _atom_site_fract_y
  _atom_site_fract_z
  _atom_site_occupancy
  Cd  Cd1       1.0  0.9662185113046675  0.16526006568241064  0.125800590465154  1.0000
  Cd  Cd2       1.0  0.03378643643007709  0.834739733110048  0.8741986925147599  1.0000
  H   H1        1.0  0.1587704650749728  0.9831346108391161  0.5096923771170552  1.0000
  H   H2        1.0  0.8412227445142906  0.016866722159356605  0.4903125515388068  1.0000
  H   H3        1.0  0.2094273335858716  0.005961301775727204  0.7023268707734899  1.0000
  H   H4        1.0  0.7905760439781915  0.9940425178419757  0.297678789255805  1.0000
  H   H5        1.0  0.5826716318860364  0.18624669800307464  0.6565767585191721  1.0000
  H   H6        1.0  0.4173308386076684  0.813748216936183  0.34341975846832895  1.0000
  H   H7        1.0  0.5269697142918446  0.16728323434156786  0.46398012219281526  1.0000
  H   H8        1.0  0.4730348245611182  0.8327124853244567  0.5360188979519478  1.0000
  H   H9        1.0  0.21944359159682855  0.11866961762202516  0.8351466293013559  1.0000
  H   H10       1.0  0.780567313148282  0.881330173111131  0.164856890974896  1.0000
  H   H11       1.0  0.490358224597614  0.1609530929758876  0.1119829281171292  1.0000
  H   H12       1.0  0.5096453982955252  0.8390531741176729  0.8880228896132606  1.0000
  H   H13       1.0  0.6424794169609954  0.1058121983384694  0.8128197720210792  1.0000
  H   H14       1.0  0.3575287563194607  0.8941900281275323  0.18718373385456738  1.0000
  H   H15       1.0  0.7893667111594241  0.36675893194211534  0.1184840484533538  1.0000
  H   H16       1.0  0.21063253653196773  0.6332432151314081  0.8815243914472858  1.0000
  H   H17       1.0  0.8066241412116995  0.5704287105442772  0.1491341320361457  1.0000
  H   H18       1.0  0.19337320851899883  0.4295742003624099  0.850879696027171  1.0000
  H   H19       1.0  0.2328204849358215  0.5661773838843658  0.14869946139629056  1.0000
  H   H20       1.0  0.7671766002974394  0.43382325620027024  0.851292407645502  1.0000
  H   H21       1.0  0.19770874594183852  0.3631262157654759  0.1175677732518352  1.0000
  H   H22       1.0  0.8022865176303996  0.6368760544501199  0.88242330757096  1.0000
  H   H23       1.0  0.14244404343338601  0.7375155155782878  0.17333013506809894  1.0000
  H   H24       1.0  0.857553878042161  0.26248342737039815  0.826670251011322  1.0000
  H   H25       1.0  0.9775520234010672  0.7482366016091645  0.1233254197894027  1.0000
  H   H26       1.0  0.022450352998824  0.2517672961120354  0.8766700608310316  1.0000
  H   H27       1.0  0.02864918720304389  0.821997596189867  0.3107657037098619  1.0000
  H   H28       1.0  0.9713461656759892  0.1780054204513064  0.689233994484418  1.0000
  H   H29       1.0  0.8902994308542773  0.7239285351784305  0.2934427326649001  1.0000
  H   H30       1.0  0.1096949283910078  0.2760744901665433  0.7065553509249797  1.0000
  H   H31       1.0  0.17222854898622592  0.6646547946298683  0.36014374172955843  1.0000
  H   H32       1.0  0.8277675474053865  0.33534580999511127  0.639851963037934  1.0000
  H   H33       1.0  0.0226378161493841  0.5803383462036535  0.3603087510995806  1.0000
  H   H34       1.0  0.9773562146213024  0.4196614284582978  0.6396875649850031  1.0000
  H   H35       1.0  0.2647029553421802  0.7386905667776845  0.5218720446948382  1.0000
  H   H36       1.0  0.7352966098704599  0.2613149319238914  0.47812570481371347  1.0000
  H   H37       1.0  0.23951454453325038  0.8037402863809149  0.7068793717932564  1.0000
  H   H38       1.0  0.7604816350038845  0.19626112145122226  0.29311794277843717  1.0000
  H   H39       1.0  0.8290642616498687  0.7506708754784625  0.6642998577928623  1.0000
  H   H40       1.0  0.17093572270825771  0.24932892266950546  0.3356968024951215  1.0000
  H   H41       1.0  0.8364161651615305  0.683549536103733  0.47854819930189046  1.0000
  H   H42       1.0  0.1635786929518446  0.31644862344011665  0.5214465117786915  1.0000
  H   H43       1.0  0.08345502838258767  0.9886454268263946  0.2132207005618056  1.0000
  H   H44       1.0  0.9165428944621326  0.0113535035041679  0.7867812427547846  1.0000
  H   H45       1.0  0.9839423706440159  0.9398079391551731  0.11540157384130371  1.0000
  H   H46       1.0  0.016055714384243903  0.0601926354440891  0.8845989173721803  1.0000
  H   H47       1.0  0.3299642081034122  0.13631657751004414  0.23176949223776688  1.0000
  H   H48       1.0  0.6700371924568671  0.8636774798352036  0.7682315865269941  1.0000
  C   C1        1.0  0.3021931549358925  0.06306029888425971  0.36055953709697514  1.0000
  C   C2        1.0  0.697799490428821  0.9369255625843705  0.6394413356781925  1.0000
  C   C3        1.0  0.33921852880202863  0.0744640371974938  0.47501512731434303  1.0000
  C   C4        1.0  0.6607808844907694  0.9255300375553476  0.524982722241603  1.0000
  C   C5        1.0  0.2508655217972589  0.028312947475903603  0.5428841848234214  1.0000
  C   C6        1.0  0.7491382742277111  0.9716851778972638  0.457119607366721  1.0000
  C   C7        1.0  0.280074261313068  0.0408772806372326  0.6505189578464935  1.0000
  C   C8        1.0  0.7199296158036718  0.9591216668702813  0.3494841082920956  1.0000
  C   C9        1.0  0.3998759752426793  0.09784859231351818  0.6935852678885155  1.0000
  C   C10       1.0  0.6001297214813235  0.9021487439902246  0.306416250613303  1.0000
  C   C11       1.0  0.48910354702248077  0.1421712552960344  0.6247853298767367  1.0000
  C   C12       1.0  0.5108939642021114  0.8578236211443556  0.37521323613035656  1.0000
  C   C13       1.0  0.4584135903549935  0.13202015530190184  0.517069734342833  1.0000
  C   C14       1.0  0.5415835944487528  0.8679714515282767  0.48292940001472556  1.0000
  C   C15       1.0  0.4273680302379291  0.11286709092869532  0.8084416153475759  1.0000
  C   C16       1.0  0.5726438654025828  0.8871327163369288  0.19156040505873762  1.0000
  C   C17       1.0  0.32076780390441684  0.1231669780797091  0.8711667887692158  1.0000
  C   C18       1.0  0.6792401247315568  0.8768327946013771  0.1288373380239207  1.0000
  C   C19       1.0  0.34137000472110673  0.13986299070528224  0.9799520110902336  1.0000
  C   C20       1.0  0.658634281277422  0.8601400359286656  0.020051317883506708  1.0000
  C   C21       1.0  0.47087936024394156  0.1469515134070889  0.027616953446745602  1.0000
  C   C22       1.0  0.5291269934292516  0.8530523242626841  0.9723881000656646  1.0000
  C   C23       1.0  0.5781746085350861  0.13464313318065985  0.9666401087731272  1.0000
  C   C24       1.0  0.4218286872526136  0.8653598706117548  0.03336549868913611  1.0000
  C   C25       1.0  0.556711000545569  0.11761738752331749  0.8577018146252086  1.0000
  C   C26       1.0  0.4432951071139756  0.8823840089796635  0.1423023025675221  1.0000
  C   C27       1.0  0.22443633164025562  0.15145273911953444  0.042806411280359696  1.0000
  C   C28       1.0  0.7755657238154612  0.8485478385189464  0.9571958666392248  1.0000
  C   C29       1.0  0.7162640185368758  0.13926919585613007  0.018888252727450094  1.0000
  C   C30       1.0  0.2837412590416406  0.8607338410012134  0.9811143549949293  1.0000
  C   C31       1.0  0.8855446481089475  0.4149895552582521  0.1250444181783834  1.0000
  C   C32       1.0  0.1144497983893729  0.5850142354394876  0.8749599469272198  1.0000
  C   C33       1.0  0.896276577841448  0.5276764002802777  0.142747383454271  1.0000
  C   C34       1.0  0.1037232504943901  0.47232169681741004  0.8572577365041099  1.0000
  C   C35       1.0  0.02236470537031469  0.5858028083168847  0.1531832860205924  1.0000
  C   C36       1.0  0.9776364361742649  0.4141986127778665  0.8468150940058621  1.0000
  C   C37       1.0  0.13237269697673784  0.5252794364628315  0.142398150640183  1.0000
  C   C38       1.0  0.8676228167166683  0.4747252370651793  0.8575985382138142  1.0000
  C   C39       1.0  0.11366986181462121  0.41257935484073727  0.12430318849916937  1.0000
  C   C40       1.0  0.8863271443806227  0.5874204441823564  0.8756917424499447  1.0000
  C   C41       1.0  0.038630964889542006  0.7061994458380668  0.18018514476182193  1.0000
  C   C42       1.0  0.9613663711494671  0.2938035912499117  0.8198131109297577  1.0000
  C   C43       1.0  0.9992546117591631  0.7350151386512989  0.291333592944703  1.0000
  C   C44       1.0  0.0007395035262191916  0.26498542659967933  0.7086658901812583  1.0000
  C   C45       1.0  0.06571994887660539  0.6656509278155126  0.37281761811851055  1.0000
  C   C46       1.0  0.9342744083149271  0.33435211645664953  0.6271781296156007  1.0000
  C   C47       1.0  0.05281640302329288  0.705015049627974  0.4838650982844043  1.0000
  C   C48       1.0  0.9471816772128749  0.29498556913473817  0.5161299425989654  1.0000
  C   C49       1.0  0.1658856509249276  0.739954125980063  0.5504308084081657  1.0000
  C   C50       1.0  0.8341095349784668  0.2600472905558675  0.4495648915591203  1.0000
  C   C51       1.0  0.1529488430732187  0.7768688420296996  0.6531194446337735  1.0000
  C   C52       1.0  0.8470484084510943  0.22313340446924457  0.3468756440164284  1.0000
  C   C53       1.0  0.9238693742110088  0.747350891396465  0.6293767160710146  1.0000
  C   C54       1.0  0.0761256501934255  0.25264887456170015  0.3706212146179766  1.0000
  C   C55       1.0  0.9289394621500193  0.7092810664654436  0.5259040441286018  1.0000
  C   C56       1.0  0.07105820920436662  0.2907154731708346  0.474090733919617  1.0000
  N   N1        1.0  0.033647157403329686  0.7812793051482173  0.6922631195372091  1.0000
  N   N2        1.0  0.9663508410564817  0.21872049778921374  0.3077318687791291  1.0000
  N   N3        1.0  0.9924959580538727  0.3578380894742352  0.11633983609750231  1.0000
  N   N4        1.0  0.007502208066163986  0.6421633072593735  0.8836599290644216  1.0000
  O   O1        1.0  0.992913319930878  0.9901544482972824  0.1784136881910214  1.0000
  O   O2        1.0  0.0070846035984218  0.009844475724214903  0.8215890337441605  1.0000
  O   O3        1.0  0.2092483599009043  0.9979761687219194  0.3214329856711942  1.0000
  O   O4        1.0  0.7907412152608588  0.002018657476575903  0.6785674572537913  1.0000
  O   O5        1.0  0.3752983651732791  0.13076930226790753  0.3057700779204565  1.0000
  O   O6        1.0  0.6247002283021957  0.8692166331592546  0.6942249101094191  1.0000
  O   O7        1.0  0.1085629005239852  0.14428608697738812  0.9944895959483161  1.0000
  O   O8        1.0  0.8914413793132782  0.855716996438133  0.005506725458140212  1.0000
  O   O9        1.0  0.24023411884209622  0.1723262423685483  0.1416128594395119  1.0000
  O   O10       1.0  0.7597597552217223  0.827671837552188  0.8583911376968769  1.0000
  O   O11       1.0  0.810981001872648  0.11347913433959894  0.9658464608949089  1.0000
  O   O12       1.0  0.18902411352232207  0.8865222582490445  0.03415759893058379  1.0000
  O   O13       1.0  0.7328936497642999  0.1709196745667327  0.11635109179132998  1.0000
  O   O14       1.0  0.2671165898216615  0.8290833755532317  0.88365258138581  1.0000
