data_image0
_chemical_formula_structural       Gd2H36C36N8O16
_chemical_formula_sum              "Gd2 H36 C36 N8 O16"
_cell_length_a       9.915545560724683
_cell_length_b       10.318159169752747
_cell_length_c       11.004041871807662
_cell_angle_alpha    77.74432997771557
_cell_angle_beta     76.65637231009904
_cell_angle_gamma    65.8773062675271

_space_group_name_H-M_alt    "P 1"
_space_group_IT_number       1

loop_
  _space_group_symop_operation_xyz
  'x, y, z'

loop_
  _atom_site_type_symbol
  _atom_site_label
  _atom_site_symmetry_multiplicity
  _atom_site_fract_x
  _atom_site_fract_y
  _atom_site_fract_z
  _atom_site_occupancy
  Gd  Gd1       1.0  0.05595427075833456  0.7729762547875583  0.1762783409179534  1.0000
  Gd  Gd2       1.0  0.9440446016865138  0.22702421264230568  0.8237206342960379  1.0000
  H   H1        1.0  0.33724381779165913  0.15078978926777611  0.8405594772501034  1.0000
  H   H2        1.0  0.6627556690080779  0.849211743625496  0.159438243589655  1.0000
  H   H3        1.0  0.393706025098112  0.8728264883539438  0.19113283337531337  1.0000
  H   H4        1.0  0.606293883818786  0.1271739791440325  0.8088659255541587  1.0000
  H   H5        1.0  0.5658049487284346  0.5898088957362547  0.2752104895631221  1.0000
  H   H6        1.0  0.43419392371641413  0.410191571693602  0.7247884856508692  1.0000
  H   H7        1.0  0.24512818453277405  0.4955894940178142  0.5802727390546493  1.0000
  H   H8        1.0  0.7548717259217385  0.5044109675010731  0.4197251120026025  1.0000
  H   H9        1.0  0.7038888238110843  0.08332290616124992  0.49641097019628694  1.0000
  H   H10       1.0  0.2961100486337641  0.9166775612686068  0.5035880050176971  1.0000
  H   H11       1.0  0.5525833641301431  0.7979797774647397  0.3842327071408747  1.0000
  H   H12       1.0  0.44741465946754744  0.2020228386929688  0.6157669155103421  1.0000
  H   H13       1.0  0.5349994792701054  0.8604858530057841  0.733808383817845  1.0000
  H   H14       1.0  0.4650008517639606  0.13951354909689684  0.26619141320134093  1.0000
  H   H15       1.0  0.5803906977758189  0.6941535137859276  0.6807458596706796  1.0000
  H   H16       1.0  0.4196096347958544  0.305845882337664  0.31925302947629336  1.0000
  H   H17       1.0  0.6718215209793286  0.5684668488174865  0.8706665543417815  1.0000
  H   H18       1.0  0.3281773514655201  0.43153361861237716  0.12933242087220265  1.0000
  H   H19       1.0  0.6368335957494864  0.7350315589182087  0.9187827758115931  1.0000
  H   H20       1.0  0.36316716201456967  0.26496675985191587  0.08121533568065328  1.0000
  H   H21       1.0  0.9813228990700793  0.2567973673916272  0.45009693458435157  1.0000
  H   H22       1.0  0.018678226255729992  0.7432052788658583  0.549906578574408  1.0000
  H   H23       1.0  0.15731985908843168  0.18655778795930902  0.349600759788693  1.0000
  H   H24       1.0  0.8426806503448818  0.8134437988138432  0.6504049156165126  1.0000
  H   H25       1.0  0.004685467605554475  0.14950994987658822  0.227719574937865  1.0000
  H   H26       1.0  0.9953167379844601  0.8504873454199497  0.7722857134651092  1.0000
  H   H27       1.0  0.8414477227067962  0.29425305699415116  0.2835719510193187  1.0000
  H   H28       1.0  0.15855552089287517  0.7057442323914176  0.7164322132269234  1.0000
  H   H29       1.0  0.4476549531693762  0.6333787530250846  0.0638820609486075  1.0000
  H   H30       1.0  0.5523458015194578  0.3666195777032115  0.936117866288072  1.0000
  H   H31       1.0  0.2845530601215953  0.8542240914383118  0.7472702598814326  1.0000
  H   H32       1.0  0.7154468457200877  0.1457763880178362  0.25273031479247265  1.0000
  H   H33       1.0  0.07914921826568382  0.46345545184151876  0.36330559709733734  1.0000
  H   H34       1.0  0.9208508767385054  0.5365471704315041  0.6366945008570613  1.0000
  H   H35       1.0  0.966489553729595  0.380189772797614  0.062269290530643694  1.0000
  H   H36       1.0  0.0335099691742542  0.6198064389620299  0.9377349611989488  1.0000
  C   C1        1.0  0.35132474344942477  0.013455449114502503  0.018098275079594807  1.0000
  C   C2        1.0  0.6486747418127051  0.9865460897578586  0.9819003536323834  1.0000
  C   C3        1.0  0.40996982717304326  0.0848322923684535  0.9093039701846096  1.0000
  C   C4        1.0  0.5900286231546373  0.9151692404567059  0.09069396693966074  1.0000
  C   C5        1.0  0.4416833146545611  0.928772074657893  0.10867654111551417  1.0000
  C   C6        1.0  0.5583161721451688  0.0712294582353863  0.8913211797242441  1.0000
  C   C7        1.0  0.1936557595780855  0.023590060073175302  0.034741800000844605  1.0000
  C   C8        1.0  0.8063431082539408  0.9764104252939418  0.9652598988298068  1.0000
  C   C9        1.0  0.393806674597201  0.5493647412992644  0.41929551850462593  1.0000
  C   C10       1.0  0.6061932358573044  0.4506357202196228  0.580702332552626  1.0000
  C   C11       1.0  0.5381353518163438  0.5497716132171957  0.3737740277913986  1.0000
  C   C12       1.0  0.46186437101326316  0.450226699505727  0.626223392113147  1.0000
  C   C13       1.0  0.3561731486022594  0.4987224610043912  0.5461000453764626  1.0000
  C   C14       1.0  0.6438257253801964  0.5012780004463835  0.45389802196530854  1.0000
  C   C15       1.0  0.2798479050805369  0.6065402725639119  0.33339815925846494  1.0000
  C   C16       1.0  0.7201509673643116  0.3934601948659448  0.6666008159555262  1.0000
  C   C17       1.0  0.643284972017149  0.9336316730654558  0.4330494828753828  1.0000
  C   C18       1.0  0.3567153605545244  0.06636772305813572  0.566949406271583  1.0000
  C   C19       1.0  0.6139515973615843  0.04730372760481321  0.4988809017420054  1.0000
  C   C20       1.0  0.3860483115553138  0.9526967398931631  0.5011178571874666  1.0000
  C   C21       1.0  0.5284367329169796  0.8867052947883779  0.4350003424636881  1.0000
  C   C22       1.0  0.4715642109343605  0.11329517875680041  0.5649991080534847  1.0000
  C   C23       1.0  0.7933622107558448  0.8683839818890108  0.3547077132807105  1.0000
  C   C24       1.0  0.20663873309549532  0.13161649165616038  0.6452917372364624  1.0000
  C   C25       1.0  0.32965120681760124  0.7280059199750755  0.9163134333937395  1.0000
  C   C26       1.0  0.6703495478712326  0.27199241075322084  0.08368649384294707  1.0000
  C   C27       1.0  0.5235473583399113  0.7562914850623558  0.7601028051985993  1.0000
  C   C28       1.0  0.4764529726941547  0.2437079170403181  0.23989699182058638  1.0000
  C   C29       1.0  0.5869621946236238  0.6757073444097657  0.8833927967482682  1.0000
  C   C30       1.0  0.4130385600652104  0.32429098631853054  0.11660713048841136  1.0000
  C   C31       1.0  0.04194290520945286  0.26757761642116423  0.35428399909842784  1.0000
  C   C32       1.0  0.958056572364633  0.7324239523466222  0.6457191689746438  1.0000
  C   C33       1.0  0.9635614246452915  0.2575363381224919  0.2530009808354876  1.0000
  C   C34       1.0  0.03643890177594487  0.7424630819174427  0.7470015398003511  1.0000
  C   C35       1.0  0.03109498810819391  0.4543688681438096  0.19214110581219762  1.0000
  C   C36       1.0  0.9689080286872526  0.5456316055375937  0.807857912135937  1.0000
  N   N1        1.0  0.4549082894608033  0.666497538842144  0.9693439057290478  1.0000
  N   N2        1.0  0.5450914287559812  0.33350079181803954  0.03065623779215092  1.0000
  N   N3        1.0  0.3658651656666548  0.7736609153179544  0.7916652168299266  1.0000
  N   N4        1.0  0.6341341288953615  0.22633848671661386  0.20833479647377826  1.0000
  N   N5        1.0  0.04330049500519811  0.4118073775384801  0.31588594939498194  1.0000
  N   N6        1.0  0.9566979491720532  0.588194179203022  0.6841156192181685  1.0000
  N   N7        1.0  0.00014995860942688827  0.3583672933211233  0.14803947501859233  1.0000
  N   N8        1.0  0.9998499441570419  0.6416331980931959  0.8519629153997529  1.0000
  O   O1        1.0  0.1446421088074102  0.9551100730482603  0.13319600601995066  1.0000
  O   O2        1.0  0.8553563384450553  0.044891471735070416  0.86680374684876  1.0000
  O   O3        1.0  0.11823488544995088  0.09889346848187591  0.9485784764526458  1.0000
  O   O4        1.0  0.8817644075744582  0.9011059395317744  0.051422444723279254  1.0000
  O   O5        1.0  0.1438187966318764  0.6201050067202375  0.3761244605317273  1.0000
  O   O6        1.0  0.856180687092639  0.37989653813120583  0.623875076052471  1.0000
  O   O7        1.0  0.31817433210593277  0.6462277711516649  0.21686607968366908  1.0000
  O   O8        1.0  0.6818245418765227  0.3537726902991096  0.7831319876581022  1.0000
  O   O9        1.0  0.8298359515637725  0.7485836048068465  0.31655571570146185  1.0000
  O   O10       1.0  0.17016541440473532  0.2514158033430363  0.6834447729054318  1.0000
  O   O11       1.0  0.8798760405714601  0.9390678160739725  0.323029432310392  1.0000
  O   O12       1.0  0.12012490174227246  0.060932663450294904  0.676970926079001  1.0000
  O   O13       1.0  0.1993451789331501  0.739766496500799  0.9710337375585852  1.0000
  O   O14       1.0  0.8006551490256938  0.26023291756004613  0.028967875205040603  1.0000
  O   O15       1.0  0.04909499395090221  0.5652598768736752  0.12679215238333796  1.0000
  O   O16       1.0  0.9509044928488278  0.43474165601959674  0.8732055684564203  1.0000
