data_image0
_chemical_formula_structural       Cu4H16C28N12
_chemical_formula_sum              "Cu4 H16 C28 N12"
_cell_length_a       5.949517963161057
_cell_length_b       8.259165336122821
_cell_length_c       13.705982002768575
_cell_angle_alpha    90.00148979751238
_cell_angle_beta     90.00068302752217
_cell_angle_gamma    90.00110525106847

_space_group_name_H-M_alt    "P 1"
_space_group_IT_number       1

loop_
  _space_group_symop_operation_xyz
  'x, y, z'

loop_
  _atom_site_type_symbol
  _atom_site_label
  _atom_site_symmetry_multiplicity
  _atom_site_fract_x
  _atom_site_fract_y
  _atom_site_fract_z
  _atom_site_occupancy
  Cu  Cu1       1.0  0.23974695251504843  0.38369900343535346  0.7545131074447581  1.0000
  Cu  Cu2       1.0  0.7397334281972263  0.11629763859648533  0.24548576360764676  1.0000
  Cu  Cu3       1.0  0.7602611169714847  0.8836829850272  0.7454842792367558  1.0000
  Cu  Cu4       1.0  0.2602595812380954  0.6162986939215784  0.2545234879792773  1.0000
  H   H1        1.0  0.6777629581471132  0.25906583079054724  0.6823354393637544  1.0000
  H   H2        1.0  0.17780318179685384  0.240912009695542  0.3176664389851567  1.0000
  H   H3        1.0  0.3221669624346291  0.7590718433781165  0.8176755900137846  1.0000
  H   H4        1.0  0.8222074679463276  0.740960116964587  0.18232844055283687  1.0000
  H   H5        1.0  0.954039386786775  0.31756753818210376  0.551837141790095  1.0000
  H   H6        1.0  0.4540538690503054  0.18239983767360712  0.4481760134238612  1.0000
  H   H7        1.0  0.0459412470088623  0.8176146514412111  0.948186349804544  1.0000
  H   H8        1.0  0.5459749810438481  0.6824350387776834  0.0518158888060682  1.0000
  H   H9        1.0  0.4752463140459326  0.6607578083575449  0.4317608423740466  1.0000
  H   H10       1.0  0.975199970207491  0.8392248798256576  0.5682298351023077  1.0000
  H   H11       1.0  0.5248271893630089  0.16078455800390407  0.0682285793406763  1.0000
  H   H12       1.0  0.0248099648928388  0.33923529039990546  0.9317735189952288  1.0000
  H   H13       1.0  0.2228207290478466  0.5925521173127566  0.5729762756632721  1.0000
  H   H14       1.0  0.7228031446462708  0.9074473358500658  0.42700673877332207  1.0000
  H   H15       1.0  0.7771960313994482  0.09253011010268612  0.9270142696758014  1.0000
  H   H16       1.0  0.27719966266078444  0.4074899236058017  0.07298527734191398  1.0000
  C   C1        1.0  0.0797525956985368  0.18719531892824653  0.756508836788356  1.0000
  C   C2        1.0  0.5797405166187275  0.31278029816537173  0.24349464157297965  1.0000
  C   C3        1.0  0.9202135639377998  0.6871578501703299  0.7434946574236818  1.0000
  C   C4        1.0  0.42022212740113224  0.8128000548250612  0.25651652792623736  1.0000
  C   C5        1.0  0.6383493945654167  0.34712761466606434  0.6257965149160682  1.0000
  C   C6        1.0  0.1383733831110376  0.15285345089463226  0.3742032312509238  1.0000
  C   C7        1.0  0.3616137438709544  0.8471356050416433  0.8742091345041273  1.0000
  C   C8        1.0  0.8616427072347008  0.6528931303184324  0.12579265056607614  1.0000
  C   C9        1.0  0.7926240087000167  0.3794761228005613  0.5524344944790655  1.0000
  C   C10       1.0  0.29263468915170415  0.12049442853882653  0.44756721886621154  1.0000
  C   C11       1.0  0.20736543098990265  0.8795127658850391  0.9475730501902574  1.0000
  C   C12       1.0  0.7073887159519784  0.6205252729861782  0.052422390018790586  1.0000
  C   C13       1.0  0.7368528326911203  0.49546764771014307  0.4813583219836629  1.0000
  C   C14       1.0  0.2368422049916745  0.004503538180088601  0.5186420122688701  1.0000
  C   C15       1.0  0.2631647027930129  0.9955091926065411  0.018649472252818097  1.0000
  C   C16       1.0  0.7631665507926539  0.5045245795088108  0.9813495358401311  1.0000
  C   C17       1.0  0.5267498973815706  0.5732057891147023  0.4868952653469519  1.0000
  C   C18       1.0  0.026729601874109197  0.9267746881560514  0.5130989747081357  1.0000
  C   C19       1.0  0.47328200130958464  0.0732292944012087  0.0131010024079572  1.0000
  C   C20       1.0  0.9732748754299505  0.42680002932858946  0.9868975334319643  1.0000
  C   C21       1.0  0.3852275573436188  0.5333554620370934  0.5636688751025005  1.0000
  C   C22       1.0  0.8852159088636355  0.9666347719059164  0.4363212020859279  1.0000
  C   C23       1.0  0.6147838497485978  0.0333467645134036  0.9363252503753043  1.0000
  C   C24       1.0  0.1147855286503159  0.4666740131269337  0.0636745299226078  1.0000
  C   C25       1.0  0.8948270306792309  0.5355857202744474  0.4077964385230217  1.0000
  C   C26       1.0  0.39481462967481923  0.9643840300219823  0.5922096761256057  1.0000
  C   C27       1.0  0.1051867948908694  0.03564200595881321  0.09221245553121798  1.0000
  C   C28       1.0  0.6051860706105785  0.46439562340329854  0.9077873386662673  1.0000
  N   N1        1.0  0.9612657006759591  0.07310352704548963  0.7536816616532105  1.0000
  N   N2        1.0  0.4612068711634477  0.42688087356317084  0.246316161571869  1.0000
  N   N3        1.0  0.038743682250235195  0.5731043119141292  0.7463027849303784  1.0000
  N   N4        1.0  0.5387696969727642  0.9268847648804767  0.2536899787057578  1.0000
  N   N5        1.0  0.43812959939031515  0.42258472451901957  0.6321294386110736  1.0000
  N   N6        1.0  0.9381375484238461  0.07740549122674881  0.3678640401851964  1.0000
  N   N7        1.0  0.5618428011158514  0.9225787312982379  0.8678699313198449  1.0000
  N   N8        1.0  0.061867598922226805  0.5774444860528123  0.13213228427932217  1.0000
  N   N9        1.0  0.03472590671666611  0.5694465114633119  0.35149048339666666  1.0000
  N   N10       1.0  0.5347061457178911  0.9305292053798412  0.6485154189048359  1.0000
  N   N11       1.0  0.9652655264872365  0.06948297095515701  0.14851230029858437  1.0000
  N   N12       1.0  0.46527156510585127  0.43054869162585874  0.851487706278611  1.0000
