data_image0
_chemical_formula_structural       Co3H43C72N6O13
_chemical_formula_sum              "Co3 H43 C72 N6 O13"
_cell_length_a       13.38392310317825
_cell_length_b       13.383018875938282
_cell_length_c       13.353445571084825
_cell_angle_alpha    96.75053639054008
_cell_angle_beta     96.47257948362854
_cell_angle_gamma    96.76342525440452

_space_group_name_H-M_alt    "P 1"
_space_group_IT_number       1

loop_
  _space_group_symop_operation_xyz
  'x, y, z'

loop_
  _atom_site_type_symbol
  _atom_site_label
  _atom_site_symmetry_multiplicity
  _atom_site_fract_x
  _atom_site_fract_y
  _atom_site_fract_z
  _atom_site_occupancy
  Co  Co1       1.0  0.6822557727304286  0.4828464472366463  0.607506999984409  1.0000
  Co  Co2       1.0  0.48659007900087664  0.6054694080703912  0.6820491328956281  1.0000
  Co  Co3       1.0  0.6007442903417157  0.685133118968764  0.4857102075878431  1.0000
  H   H1        1.0  0.5283648952658951  0.5230879413154454  0.5238969262400631  1.0000
  H   H2        1.0  0.6397485386441488  0.2880231923420808  0.30534325022206593  1.0000
  H   H3        1.0  0.2889724999592715  0.3045045681973093  0.6428690292693275  1.0000
  H   H4        1.0  0.3047746721655002  0.6412936510030249  0.28866164412573175  1.0000
  H   H5        1.0  0.8190277999932293  0.3168231607428069  0.059037804471223906  1.0000
  H   H6        1.0  0.31327732870389013  0.055751246916130995  0.8181583280007558  1.0000
  H   H7        1.0  0.057928006570428216  0.8182774178792583  0.31633496211900797  1.0000
  H   H8        1.0  0.8573340603608132  0.5036826900719832  0.11474896148493494  1.0000
  H   H9        1.0  0.5000672677053117  0.11002960078370448  0.858495330408829  1.0000
  H   H10       1.0  0.11163702135212361  0.856485884088336  0.5036196972464637  1.0000
  H   H11       1.0  0.780579877949272  0.5816442843317233  0.2620719439084525  1.0000
  H   H12       1.0  0.5802048537692102  0.257955848471795  0.7850662954692212  1.0000
  H   H13       1.0  0.258263501018881  0.7810517099905212  0.582453797880163  1.0000
  H   H14       1.0  0.6875317947316475  0.13280460083556278  0.2905160072684723  1.0000
  H   H15       1.0  0.13285026282041204  0.2889971139922451  0.6853941203683861  1.0000
  H   H16       1.0  0.29012432953553  0.6858948570352938  0.1326983894537292  1.0000
  H   H17       1.0  0.7759925767815687  0.9972074742468847  0.35016808124392185  1.0000
  H   H18       1.0  0.998558845543194  0.35162878591361846  0.7708575591138074  1.0000
  H   H19       1.0  0.35231080343980636  0.771970685026389  0.9981868341984779  1.0000
  H   H20       1.0  0.7487968317491961  0.8647816884768245  0.466999015401818  1.0000
  H   H21       1.0  0.8687598075456365  0.4698246086336013  0.7418026264636525  1.0000
  H   H22       1.0  0.46992022925072524  0.7436818090822539  0.8667788611650807  1.0000
  H   H23       1.0  0.4985700281204828  0.7139411055813555  0.27806094266062337  1.0000
  H   H24       1.0  0.7162359296769337  0.2791149499169805  0.4930808250438973  1.0000
  H   H25       1.0  0.2786845232458576  0.49623136067819457  0.7127369576144675  1.0000
  H   H26       1.0  0.5139328638684973  0.8388821524253628  0.15193058640880963  1.0000
  H   H27       1.0  0.8389351049044649  0.15130556005684778  0.5102549405387365  1.0000
  H   H28       1.0  0.1514422307524441  0.5127020881265237  0.8369439899161152  1.0000
  H   H29       1.0  0.6437749105255434  0.89691032148302  0.034649363588684416  1.0000
  H   H30       1.0  0.8953123001656352  0.03507233372321391  0.641358305737903  1.0000
  H   H31       1.0  0.0359294072901193  0.6423386514241541  0.8961624418396283  1.0000
  H   H32       1.0  0.6043110864718173  0.8740453398986145  0.8750809734209499  1.0000
  H   H33       1.0  0.8705139086481922  0.8757881627564076  0.6061469939626818  1.0000
  H   H34       1.0  0.8768818741673103  0.6067060365756162  0.8723522044981779  1.0000
  H   H35       1.0  0.6531653613351766  0.9862092490190973  0.5951745130097522  1.0000
  H   H36       1.0  0.9813529392421286  0.5958071306297654  0.6524035086818429  1.0000
  H   H37       1.0  0.5972864133000328  0.654854408480091  0.9849993595119458  1.0000
  H   H38       1.0  0.7336759576225945  0.1540411594320972  0.6916411018678802  1.0000
  H   H39       1.0  0.1496571195022298  0.691374270581882  0.7325655654926778  1.0000
  H   H40       1.0  0.6930465843352637  0.732858262551744  0.15398308362387078  1.0000
  H   H41       1.0  0.7473154354707605  0.18076375232632805  0.8804687921172133  1.0000
  H   H42       1.0  0.17741095954241362  0.8799093792709269  0.7463422155786433  1.0000
  H   H43       1.0  0.881286484028962  0.7458384797057106  0.18091921328116461  1.0000
  C   C1        1.0  0.6628253889439932  0.48578119744920667  0.38247398734209537  1.0000
  C   C2        1.0  0.4870025840866746  0.380283494187296  0.6686710658985718  1.0000
  C   C3        1.0  0.3802453341088566  0.6651853899064546  0.4862410855138465  1.0000
  C   C4        1.0  0.7065702682666952  0.43890875719004185  0.29249243891882776  1.0000
  C   C5        1.0  0.43871661679614965  0.29006770327011816  0.7106110699568975  1.0000
  C   C6        1.0  0.2901548171519153  0.7075695143797772  0.4395878176940116  1.0000
  C   C7        1.0  0.6883212088230265  0.333927868758451  0.26303716571417374  1.0000
  C   C8        1.0  0.3337207964096791  0.2613686873567431  0.6911048610385535  1.0000
  C   C9        1.0  0.26178379336551677  0.6892374618738231  0.3343146702182907  1.0000
  C   C10       1.0  0.7273639253420187  0.2896770363856334  0.17800931403296977  1.0000
  C   C11       1.0  0.28822655940020786  0.17602159687375968  0.7284005021185751  1.0000
  C   C12       1.0  0.17711498245944313  0.7275228305454103  0.28961412547658943  1.0000
  C   C13       1.0  0.7883253618175773  0.351885229206573  0.12469379531537331  1.0000
  C   C14       1.0  0.34924770446099274  0.12169581677240159  0.7888670776413208  1.0000
  C   C15       1.0  0.12323815203103551  0.7879665766560819  0.35172198262875304  1.0000
  C   C16       1.0  0.8088788418008053  0.4560812737152347  0.15555924044114286  1.0000
  C   C17       1.0  0.4533937017533844  0.15180109258703567  0.8106797470410924  1.0000
  C   C18       1.0  0.15301466013865916  0.8085594221696796  0.45617723053433684  1.0000
  C   C19       1.0  0.7668011489433084  0.5000636696819284  0.2382008049721875  1.0000
  C   C20       1.0  0.4986114572123484  0.2347891706081739  0.7703688628546745  1.0000
  C   C21       1.0  0.23524889096827203  0.7670849788675583  0.5006710000874081  1.0000
  C   C22       1.0  0.7040274214171306  0.17957190575807397  0.14240451890410102  1.0000
  C   C23       1.0  0.17808834006561372  0.1411074114035813  0.7039696422568228  1.0000
  C   C24       1.0  0.14234703446467023  0.7038594382690915  0.17924906012493844  1.0000
  C   C25       1.0  0.684786079734053  0.10844355403466464  0.2093621347225536  1.0000
  C   C26       1.0  0.10784765043320022  0.208191174877939  0.683124504102608  1.0000
  C   C27       1.0  0.20931981378006273  0.6835656505074893  0.10817646337951461  1.0000
  C   C28       1.0  0.66198765925828  0.005474200697832965  0.1707473303421594  1.0000
  C   C29       1.0  0.004837933778581799  0.1702293325624566  0.6594296920344648  1.0000
  C   C30       1.0  0.17119301029126896  0.6602966612484947  0.005005057708125098  1.0000
  C   C31       1.0  0.6465107786056166  0.9293867465716731  0.2410315951971782  1.0000
  C   C32       1.0  0.929864660821579  0.24110206108726825  0.6424519224475206  1.0000
  C   C33       1.0  0.24168191612159262  0.643991135018666  0.928964236039242  1.0000
  C   C34       1.0  0.7124752488345932  0.9364099224339526  0.3317510618273404  1.0000
  C   C35       1.0  0.9379763886412108  0.33293023201336785  0.7072644288435869  1.0000
  C   C36       1.0  0.33342617276339587  0.70875141752375  0.936978714864324  1.0000
  C   C37       1.0  0.6985652081327559  0.8635343571431164  0.39657290970873765  1.0000
  C   C38       1.0  0.8664015074981819  0.39858285795038745  0.6922832324743241  1.0000
  C   C39       1.0  0.3987825802953182  0.694162030479255  0.8645305096206216  1.0000
  C   C40       1.0  0.5588977067724628  0.7780128406077438  0.28993707764202276  1.0000
  C   C41       1.0  0.7800675804001715  0.2908971764197403  0.5535174708403404  1.0000
  C   C42       1.0  0.2908117455181198  0.5561923313471054  0.7772799593931341  1.0000
  C   C43       1.0  0.5680607470954442  0.8477084760190368  0.22079742245779246  1.0000
  C   C44       1.0  0.8485501961869489  0.2209070126578538  0.5637347697499139  1.0000
  C   C45       1.0  0.22106412292535543  0.5660438429606457  0.8465967837696058  1.0000
  C   C46       1.0  0.6582906437905649  0.9769526403450328  0.06591440291052211  1.0000
  C   C47       1.0  0.9754134207735348  0.06584242414125183  0.6565169203088389  1.0000
  C   C48       1.0  0.0668047684923465  0.6571686824539499  0.9763271865736559  1.0000
  C   C49       1.0  0.6797293268563892  0.05248243988428667  0.003758204497017926  1.0000
  C   C50       1.0  0.0500834776484353  0.003454009027031198  0.6794555034424122  1.0000
  C   C51       1.0  0.004623142380921801  0.6795756021013019  0.05183603369483339  1.0000
  C   C52       1.0  0.6769735806761048  0.030345692840619193  0.8917389157326242  1.0000
  C   C53       1.0  0.027071821331844596  0.8917896346931753  0.6772694174897964  1.0000
  C   C54       1.0  0.8930363613340688  0.6773976274922332  0.029607813393283784  1.0000
  C   C55       1.0  0.6337401421853458  0.9366282377443012  0.8368207577030236  1.0000
  C   C56       1.0  0.9329987472361553  0.8373000261105189  0.6347352291786805  1.0000
  C   C57       1.0  0.8385708741451553  0.6354174348379971  0.9353280362610763  1.0000
  C   C58       1.0  0.6256629309848307  0.920767467188753  0.7305574843178207  1.0000
  C   C59       1.0  0.9165519715275535  0.7312215921579863  0.6262801678336345  1.0000
  C   C60       1.0  0.7326323337792858  0.6279691474047269  0.9192879993871232  1.0000
  C   C61       1.0  0.6617666569531763  0.9993301492207821  0.6779845744968753  1.0000
  C   C62       1.0  0.994905418244919  0.6784778430848419  0.6616041527576756  1.0000
  C   C63       1.0  0.679889128953228  0.6631731059623646  0.9982722243105685  1.0000
  C   C64       1.0  0.7064347991141915  0.09230193259614336  0.7320510865484238  1.0000
  C   C65       1.0  0.08812361804030637  0.7320417412180262  0.7059300314371769  1.0000
  C   C66       1.0  0.733536811871453  0.7064206316745327  0.09187474660991778  1.0000
  C   C67       1.0  0.7143589293050994  0.10775858103340138  0.837700446076042  1.0000
  C   C68       1.0  0.10415298935629382  0.8374927817413536  0.7140458195016707  1.0000
  C   C69       1.0  0.8388774973596683  0.7139344379198035  0.10746143957806001  1.0000
  C   C70       1.0  0.579125372533362  0.8199544769640709  0.6733656497068666  1.0000
  C   C71       1.0  0.8155282090395276  0.6738728064664058  0.5795616738997325  1.0000
  C   C72       1.0  0.6759015734011273  0.5828974945633691  0.8178318728487995  1.0000
  N   N1        1.0  0.6231440307271612  0.7855039026692693  0.37623007458289953  1.0000
  N   N2        1.0  0.7884155815447045  0.3780460885068634  0.6169418912060181  1.0000
  N   N3        1.0  0.3781067040903494  0.6192598339225696  0.7858151416193024  1.0000
  N   N4        1.0  0.7025368097827355  0.15104107557250757  0.0423893384448775  1.0000
  N   N5        1.0  0.14865613893012863  0.04153698574013729  0.7030183834697966  1.0000
  N   N6        1.0  0.0427968626912474  0.7028178611537114  0.15050822294151803  1.0000
  O   O1        1.0  0.5746483926109321  0.5723445293931846  0.5726545151258904  1.0000
  O   O2        1.0  0.6473957146298305  0.4300815608208167  0.45236133896518294  1.0000
  O   O3        1.0  0.4322831528859511  0.45020411023068624  0.6527566948827757  1.0000
  O   O4        1.0  0.45037861823568903  0.6517219994963027  0.43003260849771163  1.0000
  O   O5        1.0  0.6453616660766104  0.5772099930738149  0.38168217075310923  1.0000
  O   O6        1.0  0.5793193310120942  0.37941773015290897  0.6528848084285599  1.0000
  O   O7        1.0  0.38064981256911784  0.6469319520461099  0.5777260811254764  1.0000
  O   O8        1.0  0.5478981694681836  0.7518958471664802  0.7257815707277119  1.0000
  O   O9        1.0  0.7477789540738513  0.7270743629083611  0.5497315623580761  1.0000
  O   O10       1.0  0.7289002380105601  0.5510263366759529  0.7499498392076874  1.0000
  O   O11       1.0  0.5747927608599355  0.8088495972618046  0.5768077165988218  1.0000
  O   O12       1.0  0.8050978159009362  0.5776298478805231  0.5732770260415309  1.0000
  O   O13       1.0  0.5800494704661361  0.579854930885034  0.805815050063906  1.0000
