data_image0
_chemical_formula_structural       Cu6H12C16S6N10
_chemical_formula_sum              "Cu6 H12 C16 S6 N10"
_cell_length_a       3.7041970827121236
_cell_length_b       8.495092872074363
_cell_length_c       20.813128004348588
_cell_angle_alpha    90.00037614892474
_cell_angle_beta     90.86054797746073
_cell_angle_gamma    89.9996817174323

_space_group_name_H-M_alt    "P 1"
_space_group_IT_number       1

loop_
  _space_group_symop_operation_xyz
  'x, y, z'

loop_
  _atom_site_type_symbol
  _atom_site_label
  _atom_site_symmetry_multiplicity
  _atom_site_fract_x
  _atom_site_fract_y
  _atom_site_fract_z
  _atom_site_occupancy
  Cu  Cu1       1.0  0.5702088041865494  0.6809073871583851  0.4005388856476486  1.0000
  Cu  Cu2       1.0  0.5702085454760351  0.3190943234986819  0.9005375096305528  1.0000
  Cu  Cu3       1.0  0.06740129845988461  0.27012523062870036  0.43054392108213335  1.0000
  Cu  Cu4       1.0  0.0673852914474509  0.7298758750297977  0.930543607020894  1.0000
  Cu  Cu5       1.0  0.07811759943207622  0.43938075510878605  0.1620221851041137  1.0000
  Cu  Cu6       1.0  0.0781144806867928  0.560615971438921  0.6620228850295078  1.0000
  H   H1        1.0  0.0630657371114438  0.4245380470940745  0.30228647408881665  1.0000
  H   H2        1.0  0.06306240647694489  0.57545745919915  0.8022862519992771  1.0000
  H   H3        1.0  0.8647732570207723  0.08879935489972722  0.11610471098958189  1.0000
  H   H4        1.0  0.8647739648264476  0.9112005372379317  0.6161049031463434  1.0000
  H   H5        1.0  0.31901715669254577  0.14237921644065213  0.11722590137628688  1.0000
  H   H6        1.0  0.31902114373050955  0.8576161789293836  0.6172240350509952  1.0000
  H   H7        1.0  0.1925007196238226  0.9420482335279066  0.134906648488176  1.0000
  H   H8        1.0  0.19250100630275577  0.05794658907129962  0.6349074652278404  1.0000
  H   H9        1.0  0.09317566891267862  0.8700606461868007  0.2467567311364718  1.0000
  H   H10       1.0  0.09319393794893222  0.12993977017539754  0.7467563253882119  1.0000
  H   H11       1.0  0.06184693659334069  0.9567257654732729  0.36155039924091165  1.0000
  H   H12       1.0  0.06185540049686719  0.04327305869816201  0.8615483072422875  1.0000
  C   C1        1.0  0.0727630247969913  0.5656765372880275  0.5156016776287302  1.0000
  C   C2        1.0  0.072752804263402  0.4343248924554146  0.0156038260589497  1.0000
  C   C3        1.0  0.5742126231127573  0.006161894644030501  0.4647252192435118  1.0000
  C   C4        1.0  0.5742123849882788  0.9938408463109314  0.9647270699807889  1.0000
  C   C5        1.0  0.5749153726521712  0.6338484442639756  0.2547000073199754  1.0000
  C   C6        1.0  0.5749117147340854  0.36616148514816177  0.7546949066463994  1.0000
  C   C7        1.0  0.07028580860536242  0.3000896212850321  0.2898236440713333  1.0000
  C   C8        1.0  0.0702863619698562  0.6999068420200416  0.7898232769305052  1.0000
  C   C9        1.0  0.09794168632370062  0.10846066789356712  0.21049989611102396  1.0000
  C   C10       1.0  0.0979479646378749  0.8915344402518461  0.7104981231559648  1.0000
  C   C11       1.0  0.1227897698047542  0.0664734832068845  0.1412383342093548  1.0000
  C   C12       1.0  0.12279290857178181  0.9335216171079782  0.6412385892786361  1.0000
  C   C13       1.0  0.08661838185147272  0.9946244283840145  0.2587881827390603  1.0000
  C   C14       1.0  0.08661925221518631  0.005383262373868501  0.7587874198842073  1.0000
  C   C15       1.0  0.0696071758178505  0.041746624952615705  0.3224493637264274  1.0000
  C   C16       1.0  0.0696126834958974  0.9582503688445175  0.8224487270215802  1.0000
  S   S1        1.0  0.0735572273770515  0.5375867429272888  0.4371144230623187  1.0000
  S   S2        1.0  0.0735472747241488  0.46241563093112614  0.937117254713506  1.0000
  S   S3        1.0  0.573456722436802  0.18847324544243088  0.491577051005919  1.0000
  S   S4        1.0  0.573439764814232  0.811532286937542  0.9915779124374139  1.0000
  S   S5        1.0  0.5809474679103843  0.6086108814533732  0.1766164770295262  1.0000
  S   S6        1.0  0.5809625045113549  0.3913918814835712  0.6766143555582929  1.0000
  N   N1        1.0  0.0704987566198128  0.5846891464560146  0.5716191020971806  1.0000
  N   N2        1.0  0.07050496451388001  0.41530966543084  0.0716212262187668  1.0000
  N   N3        1.0  0.5738487278180031  0.8768902887439581  0.44395774379889025  1.0000
  N   N4        1.0  0.5738346638321801  0.12311447082188919  0.9439567883401806  1.0000
  N   N5        1.0  0.5688239807763865  0.6539793524335736  0.3109069297234868  1.0000
  N   N6        1.0  0.5688368806058153  0.3460197317822208  0.810905165301179  1.0000
  N   N7        1.0  0.0643667585847965  0.1963913344660781  0.3386246337362664  1.0000
  N   N8        1.0  0.06436336276658491  0.8036094661278884  0.8386245347243317  1.0000
  N   N9        1.0  0.08547162408185471  0.2640694757184363  0.22707549271544278  1.0000
  N   N10       1.0  0.08547445993038139  0.7359294638765946  0.7270757049701686  1.0000
