data_image0
_chemical_formula_structural       Tm4H24C24S4N4O32
_chemical_formula_sum              "Tm4 H24 C24 S4 N4 O32"
_cell_length_a       7.498305676845224
_cell_length_b       9.280600852978623
_cell_length_c       14.663776628008044
_cell_angle_alpha    89.99988469622073
_cell_angle_beta     89.9999908758516
_cell_angle_gamma    101.165769001113

_space_group_name_H-M_alt    "P 1"
_space_group_IT_number       1

loop_
  _space_group_symop_operation_xyz
  'x, y, z'

loop_
  _atom_site_type_symbol
  _atom_site_label
  _atom_site_symmetry_multiplicity
  _atom_site_fract_x
  _atom_site_fract_y
  _atom_site_fract_z
  _atom_site_occupancy
  Tm  Tm1       1.0  0.13695032913470578  0.2772628636074046  0.04372798048638059  1.0000
  Tm  Tm2       1.0  0.3630466864163964  0.7227379734928476  0.5437284855405975  1.0000
  Tm  Tm3       1.0  0.8630469823590587  0.7227370809038335  0.9562715754944475  1.0000
  Tm  Tm4       1.0  0.6369490370734924  0.2772608637025514  0.4562717523935546  1.0000
  H   H1        1.0  0.1513147943687869  0.0464698102027725  0.4486756480978825  1.0000
  H   H2        1.0  0.34868760820241107  0.9535318979698817  0.9486785885560491  1.0000
  H   H3        1.0  0.8486891959113334  0.9535301795346101  0.5513252717877746  1.0000
  H   H4        1.0  0.651313962808139  0.0464691719428316  0.05132369523413868  1.0000
  H   H5        1.0  0.10414224677839458  0.12272895203553702  0.28862815527195795  1.0000
  H   H6        1.0  0.39586351380370394  0.8772755089302393  0.7886305071582881  1.0000
  H   H7        1.0  0.8958683477613576  0.8772765652284633  0.71137344656249  1.0000
  H   H8        1.0  0.604136469203361  0.12272445366779292  0.21137177663266724  1.0000
  H   H9        1.0  0.9184368679193253  0.6648290115689335  0.22138111961753273  1.0000
  H   H10       1.0  0.5815582605873574  0.33517629438001967  0.7213835029051406  1.0000
  H   H11       1.0  0.0815539425074263  0.3351774682856217  0.7786163905017032  1.0000
  H   H12       1.0  0.4184430581775159  0.6648236772648418  0.2786180989331938  1.0000
  H   H13       1.0  0.9628454495451138  0.6059064102336009  0.3873227174950954  1.0000
  H   H14       1.0  0.5371500692738065  0.3940950519700692  0.8873263931438868  1.0000
  H   H15       1.0  0.037153702199368914  0.39409573986476704  0.6126747926265776  1.0000
  H   H16       1.0  0.46284724221879253  0.6059048925377297  0.11267520869461828  1.0000
  H   H17       1.0  0.2891633252259637  0.36201356699745457  0.22274728712835665  1.0000
  H   H18       1.0  0.2108364105079444  0.6379877845071391  0.7227479115651148  1.0000
  H   H19       1.0  0.710834490759922  0.6379885740517893  0.7772522688510505  1.0000
  H   H20       1.0  0.7891622367420863  0.362012169046345  0.27725369027333346  1.0000
  H   H21       1.0  0.465738509387883  0.3492326636733197  0.1621830817352787  1.0000
  H   H22       1.0  0.03425995946129491  0.6507688824338872  0.6621837033809185  1.0000
  H   H23       1.0  0.5342603901097573  0.6507683881537503  0.8378157922922255  1.0000
  H   H24       1.0  0.965737352032079  0.3492310620762069  0.3378165345524663  1.0000
  C   C1        1.0  0.09513144984368437  0.9681720550599878  0.39611561652500876  1.0000
  C   C2        1.0  0.40486967674105756  0.03182982080256381  0.8961176789753649  1.0000
  C   C3        1.0  0.9048768744803297  0.031823577779555  0.6038880311734898  1.0000
  C   C4        1.0  0.5951321465147856  0.9681723473768572  0.10388596871922567  1.0000
  C   C5        1.0  0.0699490736154758  0.007201674194050202  0.3069188796258899  1.0000
  C   C6        1.0  0.43005666616599564  0.9928027252667706  0.806922445893775  1.0000
  C   C7        1.0  0.9300545898926342  0.992802699577098  0.6930799943993192  1.0000
  C   C8        1.0  0.5699546851103958  0.0072060867996484  0.19308188374879612  1.0000
  C   C9        1.0  0.00900422472724931  0.8991603806465919  0.24168818859583743  1.0000
  C   C10       1.0  0.4909918089682535  0.10083649600151291  0.7416887928154093  1.0000
  C   C11       1.0  0.9909917510094742  0.10083955482010512  0.7583106854324909  1.0000
  C   C12       1.0  0.5090064083179158  0.8991557787180895  0.2583107631702645  1.0000
  C   C13       1.0  0.9659593881312459  0.7524106728190034  0.2700151908336607  1.0000
  C   C14       1.0  0.5340388610771994  0.24759668422843353  0.7700163252159979  1.0000
  C   C15       1.0  0.03403943683812118  0.24759586130394948  0.7299857290480386  1.0000
  C   C16       1.0  0.46596664267929805  0.7524098951229589  0.22998459466541724  1.0000
  C   C17       1.0  0.9900416436138499  0.7168673926933237  0.3601420627487712  1.0000
  C   C18       1.0  0.5099600058838618  0.2831374918999217  0.8601431537680637  1.0000
  C   C19       1.0  0.009954836617325184  0.2831347393182568  0.6398527195627819  1.0000
  C   C20       1.0  0.4900455724009091  0.7168636051555879  0.13985572025915616  1.0000
  C   C21       1.0  0.9976486067713709  0.9411122227833676  0.14357901929328418  1.0000
  C   C22       1.0  0.5023675810313435  0.058903355843568796  0.6435776682482623  1.0000
  C   C23       1.0  0.0023674339887663  0.058905393527602705  0.8564246283909466  1.0000
  C   C24       1.0  0.49764795524054517  0.9411120639408567  0.35641915991178746  1.0000
  S   S1        1.0  0.8182596791878965  0.40157605625506687  0.09374773178641498  1.0000
  S   S2        1.0  0.6817429267975398  0.5984209560388436  0.59374568094578  1.0000
  S   S3        1.0  0.18174171410525722  0.5984184330939114  0.9062518241977242  1.0000
  S   S4        1.0  0.31826005450103156  0.40157464063055676  0.4062504652747946  1.0000
  N   N1        1.0  0.05982628589749337  0.8242450839759955  0.42070760062698287  1.0000
  N   N2        1.0  0.4401728979435049  0.17575998590689323  0.9207122051612087  1.0000
  N   N3        1.0  0.9401681018361286  0.17575374417715753  0.5792905914495419  1.0000
  N   N4        1.0  0.5598331103035648  0.8242487899779221  0.07929144252902627  1.0000
  O   O1        1.0  0.046848917316936  0.07628130099848109  0.12363522089547267  1.0000
  O   O2        1.0  0.453147221958595  0.9236984274282918  0.6236416010773522  1.0000
  O   O3        1.0  0.9531475342471792  0.9237032858392451  0.8763636531425971  1.0000
  O   O4        1.0  0.5468461281217715  0.07627846246926852  0.3763640924913218  1.0000
  O   O5        1.0  0.9409919579087926  0.8399437380530372  0.08697361359929799  1.0000
  O   O6        1.0  0.5589940935291081  0.16003344675102943  0.5869803130344309  1.0000
  O   O7        1.0  0.05899413437101938  0.1600363923945949  0.9130218506792004  1.0000
  O   O8        1.0  0.4409912420063121  0.839943388871255  0.41302606248713386  1.0000
  O   O9        1.0  0.09809653603578986  0.7881805309578953  0.5046416611419743  1.0000
  O   O10       1.0  0.40190269098539494  0.2118182591212303  0.004643946922442398  1.0000
  O   O11       1.0  0.9018997664737185  0.21181502047733153  0.4953578948416818  1.0000
  O   O12       1.0  0.5980983755338086  0.7881806142557722  0.995356972964046  1.0000
  O   O13       1.0  0.007711596432265846  0.4434946131561192  0.13053293903089977  1.0000
  O   O14       1.0  0.4922863293885272  0.5565103251330328  0.6305356914844606  1.0000
  O   O15       1.0  0.9922859673087245  0.5565064296275539  0.8694645710915406  1.0000
  O   O16       1.0  0.5077106553308965  0.4434940034050854  0.3694659103512662  1.0000
  O   O17       1.0  0.8251865614268326  0.2785407030702345  0.028705220509394294  1.0000
  O   O18       1.0  0.6748075249606416  0.7214597594189558  0.5287023317777579  1.0000
  O   O19       1.0  0.17481100231299243  0.7214603397100062  0.9712943354707304  1.0000
  O   O20       1.0  0.3251889552701428  0.278542372591474  0.4712931324863518  1.0000
  O   O21       1.0  0.7631168283776758  0.5265648335518024  0.04519876976723938  1.0000
  O   O22       1.0  0.7368835912623269  0.47344000272085657  0.545205057097071  1.0000
  O   O23       1.0  0.2368839113722316  0.47343842386699464  0.954795330590876  1.0000
  O   O24       1.0  0.2631133934571039  0.5265643258172618  0.4547965447386558  1.0000
  O   O25       1.0  0.68977108700178  0.35637953196124533  0.17009030857526136  1.0000
  O   O26       1.0  0.8102283593517753  0.6436270718642376  0.670090236313406  1.0000
  O   O27       1.0  0.3102291482544429  0.6436215289149557  0.8299065195945088  1.0000
  O   O28       1.0  0.1897726326407039  0.35637728381323813  0.32991000161703693  1.0000
  O   O29       1.0  0.33383454040027527  0.35298225871586203  0.15964553890638195  1.0000
  O   O30       1.0  0.1661652670919906  0.6470193049695823  0.6596461552636795  1.0000
  O   O31       1.0  0.6661643590973654  0.647018793111215  0.840353335121115  1.0000
  O   O32       1.0  0.8338317921553224  0.3529795412715088  0.3403540826704159  1.0000
