data_image0
_chemical_formula_structural       Ba2H40C36S4N16O18
_chemical_formula_sum              "Ba2 H40 C36 S4 N16 O18"
_cell_length_a       9.475491181871055
_cell_length_b       10.001674596255771
_cell_length_c       14.417916405432903
_cell_angle_alpha    110.27269525291523
_cell_angle_beta     94.10974211257539
_cell_angle_gamma    90.01147169569539

_space_group_name_H-M_alt    "P 1"
_space_group_IT_number       1

loop_
  _space_group_symop_operation_xyz
  'x, y, z'

loop_
  _atom_site_type_symbol
  _atom_site_label
  _atom_site_symmetry_multiplicity
  _atom_site_fract_x
  _atom_site_fract_y
  _atom_site_fract_z
  _atom_site_occupancy
  Ba  Ba1       1.0  0.7499528288490607  0.9587799712303848  0.9999910053601653  1.0000
  Ba  Ba2       1.0  0.2500429035610097  0.04122859296957421  6.934884879698439e-06  1.0000
  H   H1        1.0  0.3587099855891934  0.9669518694366774  0.2319190881836733  1.0000
  H   H2        1.0  0.14138121715612334  0.7345903448419266  0.7682030882636538  1.0000
  H   H3        1.0  0.6412848204055948  0.033064184646775616  0.7680854401212328  1.0000
  H   H4        1.0  0.8586069520835337  0.2653937998446097  0.2318024592278576  1.0000
  H   H5        1.0  0.9201809828444638  0.6828376837373611  0.8527995353661169  1.0000
  H   H6        1.0  0.5796393365665153  0.8299775403743156  0.14712530389792997  1.0000
  H   H7        1.0  0.07978598591470389  0.31715721772208383  0.1471830590809162  1.0000
  H   H8        1.0  0.4203329757423547  0.17001838106887854  0.8528571525695696  1.0000
  H   H9        1.0  0.7949311993055659  0.5890416197217763  0.8640527045858946  1.0000
  H   H10       1.0  0.7049845903739466  0.725111609472563  0.136047835752521  1.0000
  H   H11       1.0  0.2050407816107196  0.41094899099206134  0.13593401534551933  1.0000
  H   H12       1.0  0.29499224782348676  0.2748906640922115  0.8639336256324839  1.0000
  H   H13       1.0  0.7212886447021987  0.3368522227680444  0.05201129057179093  1.0000
  H   H14       1.0  0.7789435160690914  0.2843334538615353  0.9470232620588915  1.0000
  H   H15       1.0  0.2787552374365204  0.663178507176376  0.9480433098340129  1.0000
  H   H16       1.0  0.22109431104905752  0.7157292903184144  0.053029602090155906  1.0000
  H   H17       1.0  0.3354691874515652  0.1421306171513024  0.386497421877074  1.0000
  H   H18       1.0  0.1646371888745009  0.7558463902847736  0.6137331306592343  1.0000
  H   H19       1.0  0.6645384382869821  0.8578853143528281  0.6135029709344408  1.0000
  H   H20       1.0  0.835360775279689  0.24414192283565234  0.38626912792973656  1.0000
  H   H21       1.0  0.45077821947819524  0.272481741013344  0.5542662056390455  1.0000
  H   H22       1.0  0.0493950268365353  0.7187269770050975  0.4459646278923728  1.0000
  H   H23       1.0  0.5492348234010292  0.7275362716066526  0.4457329192108049  1.0000
  H   H24       1.0  0.9506116577021969  0.2812687296291544  0.5540399039955304  1.0000
  H   H25       1.0  0.8284931176629797  0.0327145971618847  0.4726320698089452  1.0000
  H   H26       1.0  0.6718200612906955  0.5597076465960172  0.5272655174705108  1.0000
  H   H27       1.0  0.1714974607701478  0.9672727033103501  0.5273674343544174  1.0000
  H   H28       1.0  0.3281781208381459  0.44027742230277067  0.4727234937041587  1.0000
  H   H29       1.0  0.7124573097225735  0.9010369194022375  0.308998127312357  1.0000
  H   H30       1.0  0.7878130560300461  0.5911360198861574  0.6908230169570472  1.0000
  H   H31       1.0  0.2875299682649626  0.09895149629002022  0.6910076930583243  1.0000
  H   H32       1.0  0.21217961661961474  0.4088448380293741  0.3091674424734521  1.0000
  H   H33       1.0  0.0901871684659881  0.9839612385252111  0.734592494815395  1.0000
  H   H34       1.0  0.40995147657303477  0.2494805803286582  0.2654620422092648  1.0000
  H   H35       1.0  0.9098155432824484  0.016038752652484296  0.2654086645673388  1.0000
  H   H36       1.0  0.5900416797813222  0.7505194945467651  0.7345399658175751  1.0000
  H   H37       1.0  0.0404587650599879  0.16327093199259932  0.790576829385543  1.0000
  H   H38       1.0  0.459509559759084  0.3729754358434151  0.20954194813553073  1.0000
  H   H39       1.0  0.9595355216005643  0.8367280527390619  0.20942082259237796  1.0000
  H   H40       1.0  0.5404792178886595  0.6270204091746479  0.790458795009549  1.0000
  C   C1        1.0  0.5162378768993534  0.0120133507872637  0.3365036140416747  1.0000
  C   C2        1.0  0.9839752613132192  0.6751088044176188  0.6635335062581902  1.0000
  C   C3        1.0  0.4837681559077183  0.9879908789843344  0.6634987504669779  1.0000
  C   C4        1.0  0.0160203827213508  0.32487098389685093  0.3364631149855128  1.0000
  C   C5        1.0  0.4438617596874934  0.11943443320623005  0.4056317560891499  1.0000
  C   C6        1.0  0.05626755363842049  0.7138591945730042  0.5945120226890381  1.0000
  C   C7        1.0  0.5561425262448836  0.8805761909687105  0.5943664819084873  1.0000
  C   C8        1.0  0.9437294639538293  0.28613232588664067  0.4054909455378706  1.0000
  C   C9        1.0  0.5077912018561364  0.19227423792762724  0.4995972243700919  1.0000
  C   C10       1.0  0.9923601557323349  0.6928850554488336  0.5005423606769241  1.0000
  C   C11       1.0  0.49221751715992207  0.8077395372318464  0.5003985559279087  1.0000
  C   C12       1.0  0.007640292605444201  0.30711068839839584  0.4994576533357318  1.0000
  C   C13       1.0  0.6457028452611765  0.16123921753796816  0.5255463090724675  1.0000
  C   C14       1.0  0.8545270235907765  0.6356612015112548  0.4745021629834341  1.0000
  C   C15       1.0  0.35430119928523135  0.8387628694266881  0.4744477975383248  1.0000
  C   C16       1.0  0.14547453630566307  0.364332383456933  0.5254925452923445  1.0000
  C   C17       1.0  0.7198881105495188  0.05747287236672349  0.4557946060632361  1.0000
  C   C18       1.0  0.7804044306038448  0.6013227436163293  0.5441656578580378  1.0000
  C   C19       1.0  0.2801122820120483  0.9425207365443385  0.5442042017968731  1.0000
  C   C20       1.0  0.21959785321610067  0.3986601655376347  0.4558251590809093  1.0000
  C   C21       1.0  0.6553438049884122  0.9831951939059  0.36237078588387567  1.0000
  C   C22       1.0  0.8449761068075076  0.620205303120308  0.6375519417400071  1.0000
  C   C23       1.0  0.34465644085758373  0.0167973640105998  0.637631924851803  1.0000
  C   C24       1.0  0.1550217992385825  0.3797755187156254  0.3624408961398089  1.0000
  C   C25       1.0  0.9992599121884991  0.053602595543047485  0.7536396775583043  1.0000
  C   C26       1.0  0.5008662177819616  0.30016883556387336  0.24640091781989068  1.0000
  C   C27       1.0  0.0007397541176744115  0.9463963328339207  0.24635480708203528  1.0000
  C   C28       1.0  0.49912712278302235  0.699834427776672  0.7535990867072897  1.0000
  C   C29       1.0  0.9143577152655525  0.009452455206968602  0.8248888568999603  1.0000
  C   C30       1.0  0.5856709085894706  0.18498698962400792  0.17504825336948932  1.0000
  C   C31       1.0  0.085638685758191  0.9905443695122571  0.17510562876701397  1.0000
  C   C32       1.0  0.4143223026083334  0.8150130776482528  0.8249516749872682  1.0000
  C   C33       1.0  0.8086488303483605  0.19206512564098696  0.6795270257248446  1.0000
  C   C34       1.0  0.6914102419500451  0.5127929480551573  0.32061008127561763  1.0000
  C   C35       1.0  0.19135623528372747  0.8079369576558976  0.32046852708851503  1.0000
  C   C36       1.0  0.30859124482179817  0.48720064705058524  0.6793873998936064  1.0000
  S   S1        1.0  0.9056186628707509  0.039555027023311595  0.6377711244737938  1.0000
  S   S2        1.0  0.5944806763323527  0.4018330929666832  0.3622916017631397  1.0000
  S   S3        1.0  0.09438627386053608  0.9604449314749532  0.3622259950804576  1.0000
  S   S4        1.0  0.4055168010868968  0.5981647917512661  0.6377038933476412  1.0000
  N   N1        1.0  0.7059851117431534  0.23260170653934864  0.6237763240536367  1.0000
  N   N2        1.0  0.7941846921506723  0.6089962643929213  0.37630492702907503  1.0000
  N   N3        1.0  0.2940242763529639  0.7674014004090568  0.3762176445776149  1.0000
  N   N4        1.0  0.2058189089843694  0.3909951707003857  0.6236893878292022  1.0000
  N   N5        1.0  0.6550085871676855  0.3592785300229623  0.6825167651347855  1.0000
  N   N6        1.0  0.8450686007713344  0.6770305947539442  0.3175496002335265  1.0000
  N   N7        1.0  0.34499764766479046  0.6407278144097006  0.3174812597395302  1.0000
  N   N8        1.0  0.1549338686583752  0.3229587166741297  0.6824441419397117  1.0000
  N   N9        1.0  0.724236763589097  0.3907526205912646  0.7687475328978195  1.0000
  N   N10       1.0  0.7756747917814337  0.6224071801343315  0.23136643999896486  1.0000
  N   N11       1.0  0.2757704918626729  0.6092526489039614  0.23125029526774202  1.0000
  N   N12       1.0  0.22432869826757695  0.3775810563563127  0.7686271054655265  1.0000
  N   N13       1.0  0.8198147391746389  0.2909039315238431  0.7707267069446644  1.0000
  N   N14       1.0  0.6801026506009578  0.5205880655273419  0.22944223797630772  1.0000
  N   N15       1.0  0.18019260814926238  0.709102396569115  0.22926929801540302  1.0000
  N   N16       1.0  0.31989978226645377  0.4794012509695094  0.770552890643657  1.0000
  O   O1        1.0  0.7829529246599092  0.9766229054246554  0.8062269502462059  1.0000
  O   O2        1.0  0.717087221906283  0.1707609975311044  0.19361300329982362  1.0000
  O   O3        1.0  0.21704395866939313  0.0233899224454674  0.1937741552831582  1.0000
  O   O4        1.0  0.2828929728845111  0.8292136454503096  0.806398829623113  1.0000
  O   O5        1.0  0.9850270900342012  0.0082010985880032  0.90229835509178  1.0000
  O   O6        1.0  0.5149740694532668  0.10652161590020633  0.09760459721937312  1.0000
  O   O7        1.0  0.014975230814421514  0.9917828767668484  0.09769271831175533  1.0000
  O   O8        1.0  0.48502436698056056  0.8934954198835715  0.9023844226803349  1.0000
  O   O9        1.0  0.4562238737626102  0.9329867661618608  0.24572623667779678  1.0000
  O   O10       1.0  0.0439452746168101  0.6866157439509167  0.7542928027302267  1.0000
  O   O11       1.0  0.5437727330175618  0.0670207433757568  0.7542770526453921  1.0000
  O   O12       1.0  0.9560431149293934  0.3133705128622993  0.24570771190357732  1.0000
  O   O13       1.0  0.8391425705256949  0.6849199677979456  0.8922547271824114  1.0000
  O   O14       1.0  0.6606668897227053  0.7925899138748492  0.10769028660306652  1.0000
  O   O15       1.0  0.16083048771884728  0.315073845453945  0.10773628801544531  1.0000
  O   O16       1.0  0.3393044572766896  0.20740814617228415  0.8922919298144122  1.0000
  O   O17       1.0  0.7500794791561204  0.25203216790536237  0.9995409837339508  1.0000
  O   O18       1.0  0.2500254852669599  0.7480215230096406  0.0005233581995299447  1.0000
