data_image0
_chemical_formula_structural       Cd4H16C24Br4N4O8
_chemical_formula_sum              "Cd4 H16 C24 Br4 N4 O8"
_cell_length_a       3.90124050171743
_cell_length_b       12.922134057031647
_cell_length_c       15.053420022545435
_cell_angle_alpha    89.99975808240322
_cell_angle_beta     96.76183557187355
_cell_angle_gamma    89.99994109866577

_space_group_name_H-M_alt    "P 1"
_space_group_IT_number       1

loop_
  _space_group_symop_operation_xyz
  'x, y, z'

loop_
  _atom_site_type_symbol
  _atom_site_label
  _atom_site_symmetry_multiplicity
  _atom_site_fract_x
  _atom_site_fract_y
  _atom_site_fract_z
  _atom_site_occupancy
  Cd  Cd1       1.0  0.6202072789421536  0.5773183183322388  0.7498615836149864  1.0000
  Cd  Cd2       1.0  0.8797839947274327  0.07731803722243315  0.7501371091137016  1.0000
  Cd  Cd3       1.0  0.37978398471890534  0.42268181887914125  0.25013709501390474  1.0000
  Cd  Cd4       1.0  0.12019694502377123  0.9226805522581218  0.24986191987857603  1.0000
  H   H1        1.0  0.8332967123223868  0.9226662059303978  0.0474785737357521  1.0000
  H   H2        1.0  0.6666967836178515  0.42266811156685696  0.4525161908314885  1.0000
  H   H3        1.0  0.16671003246953114  0.07733238355461222  0.9525165898570049  1.0000
  H   H4        1.0  0.333289321763452  0.5773374427012925  0.5474849881328223  1.0000
  H   H5        1.0  0.9031660598543781  0.8273539816454871  0.9055478416289944  1.0000
  H   H6        1.0  0.5968318946742884  0.3273607643267482  0.5944508086897142  1.0000
  H   H7        1.0  0.09685359536644711  0.17264228623158573  0.09445037176564598  1.0000
  H   H8        1.0  0.40315421070866364  0.6726440160754169  0.40555037027605306  1.0000
  H   H9        1.0  0.4741197526055387  0.5935294200836267  0.0655603183985747  1.0000
  H   H10       1.0  0.025880645317748495  0.0935306952063186  0.43443982195253017  1.0000
  H   H11       1.0  0.525881839187214  0.40646916938811745  0.9344406672046545  1.0000
  H   H12       1.0  0.9741157829377087  0.9064678942684381  0.5655603423314729  1.0000
  H   H13       1.0  0.38791137204861303  0.6989164956314795  0.20134504437520917  1.0000
  H   H14       1.0  0.11208857745162963  0.19891762865725585  0.29865469884619955  1.0000
  H   H15       1.0  0.6120824760271474  0.30107822451242333  0.7986557057559267  1.0000
  H   H16       1.0  0.8879181768213156  0.8010825085450721  0.7013464437403626  1.0000
  C   C1        1.0  0.97456537076733  0.8496124534846103  0.048346096229906294  1.0000
  C   C2        1.0  0.5254490922742434  0.34961441830132156  0.4516535575684059  1.0000
  C   C3        1.0  0.0254439626397343  0.15038768372027533  0.9516537961838478  1.0000
  C   C4        1.0  0.4745421755954808  0.6503888143674815  0.5483477783865425  1.0000
  C   C5        1.0  0.0122614819284976  0.7964736488214188  0.9699671037943247  1.0000
  C   C6        1.0  0.4877317657926382  0.2964728564486522  0.5300261837678945  1.0000
  C   C7        1.0  0.9877478451606264  0.2035241667952833  0.0300288026259778  1.0000
  C   C8        1.0  0.5122543374843362  0.7035311500907826  0.4699736665333916  1.0000
  C   C9        1.0  0.19954262696005293  0.7039161327971686  0.9750026643407494  1.0000
  C   C10       1.0  0.30046393342899347  0.2039247243068729  0.5249993364494117  1.0000
  C   C11       1.0  0.8004667117259531  0.2960793612036667  0.0250005497465935  1.0000
  C   C12       1.0  0.6995273323364016  0.796076960633222  0.47500067084250464  1.0000
  C   C13       1.0  0.3310561187464812  0.6660863645737294  0.05911787261904779  1.0000
  C   C14       1.0  0.16893880270031053  0.1660844570330866  0.44087851567072517  1.0000
  C   C15       1.0  0.6689532136051212  0.33391454649877533  0.9408813554602771  1.0000
  C   C16       1.0  0.8310602067968915  0.8339141324409813  0.559121727106408  1.0000
  C   C17       1.0  0.28131633798905403  0.723712893691584  0.13463025581686588  1.0000
  C   C18       1.0  0.2186912518325457  0.22371520610517595  0.3653709581074125  1.0000
  C   C19       1.0  0.7186904204991437  0.2762872435042354  0.8653735441015726  1.0000
  C   C20       1.0  0.7813155003344222  0.7762841572344217  0.6346288558146682  1.0000
  C   C21       1.0  0.27844526560543414  0.6518931833492305  0.8906145195647355  1.0000
  C   C22       1.0  0.22153569320530414  0.15189287957177564  0.6093802490192245  1.0000
  C   C23       1.0  0.7215563240780511  0.3481061799917598  0.10938513737109189  1.0000
  C   C24       1.0  0.778450407967334  0.8481095792389439  0.3906182726190436  1.0000
  Br  Br1       1.0  0.0900229151959167  0.44302803281512854  0.699457508071454  1.0000
  Br  Br2       1.0  0.40998262884121334  0.9430279529009342  0.8005442560229952  1.0000
  Br  Br3       1.0  0.9099812578369395  0.556971330521904  0.3005435560234416  1.0000
  Br  Br4       1.0  0.5900138015251669  0.05696908883860629  0.1994572369298666  1.0000
  N   N1        1.0  0.11090736564802477  0.8147095196602694  0.129220258931845  1.0000
  N   N2        1.0  0.38909208589157634  0.3147063222395162  0.37077572629019767  1.0000
  N   N3        1.0  0.8890916417382615  0.18529061754902185  0.8707786551764299  1.0000
  N   N4        1.0  0.6109146683797206  0.6852945888287963  0.6292254162949076  1.0000
  O   O1        1.0  0.5233623288770489  0.5858382410939242  0.8970419703954278  1.0000
  O   O2        1.0  0.9766443938732935  0.08584251277898862  0.6029558325118956  1.0000
  O   O3        1.0  0.47666507532983354  0.41416189610284704  0.10295980013614778  1.0000
  O   O4        1.0  0.023333964616405502  0.9141653630940784  0.3970431179697584  1.0000
  O   O5        1.0  0.11595903723470262  0.6800195570409431  0.815968983781218  1.0000
  O   O6        1.0  0.38404761747113275  0.1800219197802946  0.6840284567393268  1.0000
  O   O7        1.0  0.8840606222013676  0.3199767108296144  0.18403188694529857  1.0000
  O   O8        1.0  0.6159539701030781  0.8199782174299275  0.3159698715291057  1.0000
