data_image0
_chemical_formula_structural       Zn2H21C45N9O13
_chemical_formula_sum              "Zn2 H21 C45 N9 O13"
_cell_length_a       10.880242814312908
_cell_length_b       12.62592839039792
_cell_length_c       13.62366315299541
_cell_angle_alpha    74.4585949515117
_cell_angle_beta     85.00405983952763
_cell_angle_gamma    70.54235746362512

_space_group_name_H-M_alt    "P 1"
_space_group_IT_number       1

loop_
  _space_group_symop_operation_xyz
  'x, y, z'

loop_
  _atom_site_type_symbol
  _atom_site_label
  _atom_site_symmetry_multiplicity
  _atom_site_fract_x
  _atom_site_fract_y
  _atom_site_fract_z
  _atom_site_occupancy
  Zn  Zn1       1.0  0.42830543194589416  0.631346125250019  0.4969945969251199  1.0000
  Zn  Zn2       1.0  0.5299351565125932  0.36993944845426807  0.5111197173786692  1.0000
  H   H1        1.0  0.798091869446431  0.6787565515742456  0.40209918868638544  1.0000
  H   H2        1.0  0.2569760620706703  0.10468174415032652  0.687383417525041  1.0000
  H   H3        1.0  0.7008739404339579  0.2605436012036506  0.37708983579288  1.0000
  H   H4        1.0  0.634236545084086  0.9442364525170747  0.369939869771656  1.0000
  H   H5        1.0  0.8254502446716855  0.5795144771026628  0.60666326548683  1.0000
  H   H6        1.0  0.03490318309748371  0.5722547994885688  0.6283226727294179  1.0000
  H   H7        1.0  0.9467722338027827  0.3798626949750883  0.3839271657808326  1.0000
  H   H8        1.0  0.1342637811387135  0.432366320781952  0.3668480988396824  1.0000
  H   H9        1.0  0.7658070182664146  0.6541251289602812  0.9015858750699622  1.0000
  H   H10       1.0  0.09374464458610283  0.042802497223014796  0.6438192876077268  1.0000
  H   H11       1.0  0.6189427531589049  0.7073746478934879  0.48146544122164414  1.0000
  H   H12       1.0  0.1851292143750101  0.3322850574162858  0.4856360950780996  1.0000
  H   H13       1.0  0.3473518724292291  0.24351001081071635  0.6991094252561965  1.0000
  H   H14       1.0  0.14240944345932152  0.6777668714516167  0.3393514285389472  1.0000
  H   H15       1.0  0.8752752909146083  0.42614104543362435  0.6482379257790926  1.0000
  H   H16       1.0  0.5333700081337086  0.24649956438236836  0.8094378241474587  1.0000
  H   H17       1.0  0.4661783003524108  0.2516947333374304  0.15787906128526433  1.0000
  H   H18       1.0  0.7158968550119836  0.7292381392528641  0.0391879038272052  1.0000
  H   H19       1.0  0.8916650039913846  0.5872668304285897  0.32676298245121427  1.0000
  H   H20       1.0  0.4471971634019738  0.39461186381784336  0.2553746281248976  1.0000
  H   H21       1.0  0.21282109981991945  0.7811190172300325  0.5879601638204478  1.0000
  C   C1        1.0  0.49154082873858584  0.5627543660013429  0.30839783747860144  1.0000
  C   C2        1.0  0.5784465691699198  0.5217069637926174  0.035254045275529215  1.0000
  C   C3        1.0  0.5317052935239773  0.5041445584372468  0.13835916892603  1.0000
  C   C4        1.0  0.7315817179833959  0.4857258409326021  0.482351924033523  1.0000
  C   C5        1.0  0.5554808679762858  0.4556973252762119  0.9701177858849591  1.0000
  C   C6        1.0  0.5277847340078664  0.35094962157618426  0.018695044271005715  1.0000
  C   C7        1.0  0.49312093966029386  0.3294344045438606  0.1235985203265599  1.0000
  C   C8        1.0  0.48395139203351806  0.4077649555001912  0.1780397253920825  1.0000
  C   C9        1.0  0.5463724094872973  0.49280563467610256  0.8610227398961358  1.0000
  C   C10       1.0  0.534432318776041  0.3050647711742158  0.8549942563321693  1.0000
  C   C11       1.0  0.5376221776875879  0.5779000977571301  0.19991382861788762  1.0000
  C   C12       1.0  0.10037144443518305  0.5113271532565091  0.4924131751049999  1.0000
  C   C13       1.0  0.2526365852382426  0.9289696943873694  0.6089718104638706  1.0000
  C   C14       1.0  0.6562663688040616  0.19311843448408436  0.408230423808206  1.0000
  C   C15       1.0  0.6808619869985932  0.0984724382064641  0.3649785127344032  1.0000
  C   C16       1.0  0.515395381220401  0.4507606415060935  0.6920423868558886  1.0000
  C   C17       1.0  0.6189982301137037  0.01572948454504801  0.4048253563784812  1.0000
  C   C18       1.0  0.5323093985126376  0.0286875248492322  0.48728634802722587  1.0000
  C   C19       1.0  0.5129895093922627  0.1268661163224394  0.5270310004131461  1.0000
  C   C20       1.0  0.4537600234670052  0.9542756698857389  0.525791450617838  1.0000
  C   C21       1.0  0.34321734864102643  0.9922154479141341  0.586744475897632  1.0000
  C   C22       1.0  0.3322175620765151  0.0851665170687994  0.630528135549021  1.0000
  C   C23       1.0  0.03638787998485785  0.4975850873454986  0.6003499787263636  1.0000
  C   C24       1.0  0.4221756196301456  0.14333947350885268  0.6097198678212906  1.0000
  C   C25       1.0  0.48270447991154675  0.8426447911567367  0.5083200296363303  1.0000
  C   C26       1.0  0.2812629473102958  0.8297442465660513  0.5751076279532512  1.0000
  C   C27       1.0  0.2378450884866795  0.5174937238667852  0.49966483707882503  1.0000
  C   C28       1.0  0.8830723882451822  0.6018085610314756  0.40344297150096514  1.0000
  C   C29       1.0  0.009032854100837531  0.6254498903876283  0.422429450940939  1.0000
  C   C30       1.0  0.893676223813259  0.4993956122345224  0.591494697275607  1.0000
  C   C31       1.0  0.9738716969237373  0.38787758746207146  0.4569196346758774  1.0000
  C   C32       1.0  0.8688132173808184  0.49401240619927494  0.4832999282933558  1.0000
  C   C33       1.0  0.11556346406202068  0.3949567035949925  0.6725461430277307  1.0000
  C   C34       1.0  0.10735909025525803  0.4099757476360538  0.4474680451170201  1.0000
  C   C35       1.0  0.5064151076469372  0.1649353431042613  0.008912483506108494  1.0000
  C   C36       1.0  0.5367615453239766  0.6091277869123317  0.806980834480676  1.0000
  C   C37       1.0  0.6112175708697193  0.7415578802624908  0.21402721186494486  1.0000
  C   C38       1.0  0.762987002125783  0.09338631260781942  0.2776691389457895  1.0000
  C   C39       1.0  0.9743147662612515  0.7228499469807304  0.47157999895107844  1.0000
  C   C40       1.0  0.9829258316314409  0.2781811787506428  0.5308821251420568  1.0000
  C   C41       1.0  0.5245674881868893  0.2737387596443597  0.960332242254559  1.0000
  C   C42       1.0  0.535222103794723  0.4172828406855374  0.805310860730728  1.0000
  C   C43       1.0  0.59713235953911  0.6637151713982234  0.159531133048418  1.0000
  C   C44       1.0  0.6596437451679407  0.6696206906629171  0.06434958876970853  1.0000
  C   C45       1.0  0.654915276294311  0.5971465157028107  0.005029430136609381  1.0000
  N   N1        1.0  0.3956528234802337  0.7858932293684476  0.5282281338569632  1.0000
  N   N2        1.0  0.5749697118010247  0.20701378818310456  0.4862820262195626  1.0000
  N   N3        1.0  0.18250968018934796  0.31432869764802257  0.7299429628349615  1.0000
  N   N4        1.0  0.4914188185649451  0.07546545964076051  0.047020414085125105  1.0000
  N   N5        1.0  0.5256281364040803  0.7049165423544892  0.7627269848244894  1.0000
  N   N6        1.0  0.6353351873994487  0.8072263530909818  0.24917687534914282  1.0000
  N   N7        1.0  0.8277111373115745  0.0934105253808681  0.20461847711641923  1.0000
  N   N8        1.0  0.941001304289557  0.8001177797399706  0.5099195714602943  1.0000
  N   N9        1.0  0.0007473686959187044  0.1890284563282449  0.5903037524969149  1.0000
  O   O1        1.0  0.45495406251246356  0.6528924939959921  0.3425833010876786  1.0000
  O   O2        1.0  0.143541373858561  0.9583940697355473  0.6656348457105211  1.0000
  O   O3        1.0  0.601219890560458  0.7925512308139203  0.47502120543143184  1.0000
  O   O4        1.0  0.43039227441506955  0.217417379167884  0.6618627545109989  1.0000
  O   O5        1.0  0.06817469389385884  0.6557060719043905  0.3263410096706494  1.0000
  O   O6        1.0  0.49521090875249746  0.46140979593906917  0.3601112365010906  1.0000
  O   O7        1.0  0.6383943083543285  0.5723169932028114  0.49996933264983323  1.0000
  O   O8        1.0  0.7201539616812129  0.3947145378915097  0.4689512849046197  1.0000
  O   O9        1.0  0.43581531934902534  0.549159898140779  0.6513588054113201  1.0000
  O   O10       1.0  0.5781554477523089  0.37176878628825694  0.6478294309074359  1.0000
  O   O11       1.0  0.24831286881657633  0.6184178196589799  0.4819069142062418  1.0000
  O   O12       1.0  0.32768370483848486  0.4215301137523539  0.5242805675986305  1.0000
  O   O13       1.0  0.7301522326135057  0.5900855596618015  0.9205306319879726  1.0000
