data_image0
_chemical_formula_structural       Zn2H12C24N8O4
_chemical_formula_sum              "Zn2 H12 C24 N8 O4"
_cell_length_a       4.81953579687273
_cell_length_b       10.52038568915259
_cell_length_c       10.732307096009961
_cell_angle_alpha    90.00010102451333
_cell_angle_beta     89.99986738221901
_cell_angle_gamma    98.70649699797498

_space_group_name_H-M_alt    "P 1"
_space_group_IT_number       1

loop_
  _space_group_symop_operation_xyz
  'x, y, z'

loop_
  _atom_site_type_symbol
  _atom_site_label
  _atom_site_symmetry_multiplicity
  _atom_site_fract_x
  _atom_site_fract_y
  _atom_site_fract_z
  _atom_site_occupancy
  Zn  Zn1       1.0  0.7740594352054656  0.20147197764315186  0.6441194308816804  1.0000
  Zn  Zn2       1.0  0.7740558886694942  0.701471396926408  0.35588081067498223  1.0000
  H   H1        1.0  0.1782465993807421  0.261060381472234  0.45020156147820256  1.0000
  H   H2        1.0  0.1782477950263016  0.7610581981181641  0.5497994020367899  1.0000
  H   H3        1.0  0.3732823960967052  0.1740332576956547  0.2637764179403703  1.0000
  H   H4        1.0  0.3732868794243629  0.6740313728947599  0.7362232614384895  1.0000
  H   H5        1.0  0.7026144091725398  0.48832091386812243  0.2193527040970055  1.0000
  H   H6        1.0  0.7026189798783092  0.9883200566252838  0.7806471729453436  1.0000
  H   H7        1.0  0.774769215978594  0.49545653727829386  0.9929272569790374  1.0000
  H   H8        1.0  0.7747672953110865  0.9954554383238162  0.0070716255330439  1.0000
  H   H9        1.0  0.9741664316559097  0.40953304140195  0.8045733562808054  1.0000
  H   H10       1.0  0.9741615547102142  0.9095322115038941  0.19542517122588524  1.0000
  H   H11       1.0  0.4130223315758669  0.16538886027070276  0.030482655558131514  1.0000
  H   H12       1.0  0.41302394359517075  0.6653882728519065  0.9695178994100079  1.0000
  C   C1        1.0  0.9255934029524437  0.3816010583827847  0.3473184582747423  1.0000
  C   C2        1.0  0.9255961973647188  0.8815990386725334  0.652681003499261  1.0000
  C   C3        1.0  0.11645727016581017  0.291419192023227  0.3584245217013873  1.0000
  C   C4        1.0  0.11645862691705837  0.7914190681363066  0.6415746947078916  1.0000
  C   C5        1.0  0.7978127514040663  0.4310926079211512  0.4569399179388612  1.0000
  C   C6        1.0  0.7978166456774288  0.9310923484542923  0.5430597617625923  1.0000
  C   C7        1.0  0.22778124057452934  0.243202585479267  0.2534917187385446  1.0000
  C   C8        1.0  0.22778389209087632  0.7432016667258097  0.7465063672803113  1.0000
  C   C9        1.0  0.855910465231318  0.42278734980430244  0.23007160537596155  1.0000
  C   C10       1.0  0.855913007575971  0.9227864658487944  0.769928931405801  1.0000
  C   C11       1.0  0.15965361669041297  0.2839994957193142  0.1326296122020878  1.0000
  C   C12       1.0  0.15965125374916056  0.7839977734046285  0.8673695465388748  1.0000
  C   C13       1.0  0.9114742449056122  0.4221923594263757  0.0009037020041376004  1.0000
  C   C14       1.0  0.9114712679596193  0.9221908328227431  0.9990967759793751  1.0000
  C   C15       1.0  0.9734731063800763  0.37768481115400476  0.12116202410142311  1.0000
  C   C16       1.0  0.9734730627525534  0.8776840782216553  0.8788383129232501  1.0000
  C   C17       1.0  0.31233104831839137  0.22385760606994157  0.7928342196599022  1.0000
  C   C18       1.0  0.31232582220228267  0.7238558320588666  0.2071665404961323  1.0000
  C   C19       1.0  0.1984036135780798  0.2778227915514506  0.9067129153075089  1.0000
  C   C20       1.0  0.19840099659835175  0.7778208591337259  0.09328712429032043  1.0000
  C   C21       1.0  0.021154251163352518  0.3735333753902594  0.8960639348708457  1.0000
  C   C22       1.0  0.021149800671970847  0.8735324095619462  0.10393552175894881  1.0000
  C   C23       1.0  0.27108433127689574  0.2364228181993795  0.023163767623955802  1.0000
  C   C24       1.0  0.27108590918289366  0.7364222416540328  0.9768361252478432  1.0000
  N   N1        1.0  0.7114279929561388  0.5470830942377063  0.4639506707078738  1.0000
  N   N2        1.0  0.7114317487818338  0.04708255283495791  0.5360493706474686  1.0000
  N   N3        1.0  0.7367507976410791  0.37089882241498623  0.5664988203352338  1.0000
  N   N4        1.0  0.7367510459416664  0.8708983785983759  0.4335026829495023  1.0000
  N   N5        1.0  0.6120634194601776  0.4517148204862309  0.6397283164734517  1.0000
  N   N6        1.0  0.6120663818693756  0.9517152402129907  0.360272523587085  1.0000
  N   N7        1.0  0.5969744254530055  0.5564973882880083  0.5782113524513691  1.0000
  N   N8        1.0  0.5969769299907454  0.05649762789366969  0.42179068763108774  1.0000
  O   O1        1.0  0.5562551434466911  0.19019791474801204  0.8010829892582764  1.0000
  O   O2        1.0  0.556252917443139  0.6901990239367422  0.1989174594081292  1.0000
  O   O3        1.0  0.1765924929009586  0.2139799035845869  0.6902514922162057  1.0000
  O   O4        1.0  0.1765894558433985  0.7139802158834598  0.30974846034692405  1.0000
