data_image0
_chemical_formula_structural       Ag8H40C28I8N8
_chemical_formula_sum              "Ag8 H40 C28 I8 N8"
_cell_length_a       4.391346198681377
_cell_length_b       16.648011303962466
_cell_length_c       17.189538427104882
_cell_angle_alpha    89.99994652872694
_cell_angle_beta     98.64142794827525
_cell_angle_gamma    90.00250558374458

_space_group_name_H-M_alt    "P 1"
_space_group_IT_number       1

loop_
  _space_group_symop_operation_xyz
  'x, y, z'

loop_
  _atom_site_type_symbol
  _atom_site_label
  _atom_site_symmetry_multiplicity
  _atom_site_fract_x
  _atom_site_fract_y
  _atom_site_fract_z
  _atom_site_occupancy
  Ag  Ag1       1.0  0.11455976062082839  0.28313474243879  0.0681145010562716  1.0000
  Ag  Ag2       1.0  0.11457115188078153  0.21687064809557902  0.5681160234629062  1.0000
  Ag  Ag3       1.0  0.8854544794168291  0.7168649594677062  0.9318898534183548  1.0000
  Ag  Ag4       1.0  0.885417154452078  0.7831386644218484  0.43188109091757104  1.0000
  Ag  Ag5       1.0  0.7210564695212155  0.43065203334181484  0.010411019175848002  1.0000
  Ag  Ag6       1.0  0.7210531048750608  0.06935209880134607  0.5104195676176104  1.0000
  Ag  Ag7       1.0  0.27896248613291863  0.5693506719530672  0.9895946516933805  1.0000
  Ag  Ag8       1.0  0.2789425488292494  0.9306500056876242  0.48958243979039656  1.0000
  H   H1        1.0  0.23152384782468968  0.0434357910810377  0.2730724208554065  1.0000
  H   H2        1.0  0.23156893079288213  0.45657490348617796  0.7730803703941336  1.0000
  H   H3        1.0  0.7684674747081318  0.9565579039680328  0.7269323559999066  1.0000
  H   H4        1.0  0.7684545215917067  0.5434434193165883  0.22692428213065344  1.0000
  H   H5        1.0  0.893932427525563  0.15953876486596388  0.33929852991655457  1.0000
  H   H6        1.0  0.8939580290796626  0.34045975030008435  0.8393052188827498  1.0000
  H   H7        1.0  0.10604222642373172  0.8404567321070215  0.6606998885116866  1.0000
  H   H8        1.0  0.1060477151789598  0.6595423542415161  0.16070642562437606  1.0000
  H   H9        1.0  0.4535394824083879  0.13799324590937087  0.0863222216598558  1.0000
  H   H10       1.0  0.45358206548714  0.3620100695649242  0.5863248136857068  1.0000
  H   H11       1.0  0.5464705925192276  0.8620112613486696  0.9136866533824559  1.0000
  H   H12       1.0  0.5464808056681109  0.6379842265712623  0.4136840237213093  1.0000
  H   H13       1.0  0.6355323271517505  0.0769455232375265  0.16534005015847703  1.0000
  H   H14       1.0  0.6355835371755562  0.4230676220590651  0.6653505116240268  1.0000
  H   H15       1.0  0.36445652762731134  0.92304697045364  0.8346629011125017  1.0000
  H   H16       1.0  0.36443328154124527  0.5769446939797971  0.3346568358560944  1.0000
  H   H17       1.0  0.018427458340426  0.03199007483898699  0.061408053682249907  1.0000
  H   H18       1.0  0.018443750163335423  0.4680051926984061  0.5614069296989117  1.0000
  H   H19       1.0  0.9815490051970244  0.9680264456800103  0.9385851860606707  1.0000
  H   H20       1.0  0.9815737192791755  0.531978291082957  0.4385829813775786  1.0000
  H   H21       1.0  0.5934542570967024  0.9359962522156449  0.1347452161708418  1.0000
  H   H22       1.0  0.5935281804950207  0.5640133604556538  0.6347550990506079  1.0000
  H   H23       1.0  0.40647845383535497  0.06400404989569349  0.8652466080443589  1.0000
  H   H24       1.0  0.4064084212737242  0.4359899450449305  0.36522928614991207  1.0000
  H   H25       1.0  0.24491519657730268  0.8957972660348117  0.0722255166417582  1.0000
  H   H26       1.0  0.24495121434719638  0.6042077601461953  0.5722248792716585  1.0000
  H   H27       1.0  0.7550195430802021  0.1042144488647807  0.9277634636359198  1.0000
  H   H28       1.0  0.7550248612780306  0.39577272003243974  0.4277642745085474  1.0000
  H   H29       1.0  0.8698279995719959  0.34458723953325415  0.20593229291080925  1.0000
  H   H30       1.0  0.8698292735194642  0.15541176772132553  0.7059352081323598  1.0000
  H   H31       1.0  0.1301798271411414  0.6554112609878826  0.7940770913089708  1.0000
  H   H32       1.0  0.130208213733944  0.8445915383528726  0.2940722261182884  1.0000
  H   H33       1.0  0.9244838362931703  0.32349007645745315  0.3095496581069881  1.0000
  H   H34       1.0  0.9244814568195922  0.17650643086550838  0.8095495543442655  1.0000
  H   H35       1.0  0.07551176197357991  0.676506621980458  0.6904517655913056  1.0000
  H   H36       1.0  0.07556003083914932  0.8234950732190568  0.1904516082655974  1.0000
  H   H37       1.0  0.5782345517520823  0.2928249745687097  0.2478605310147586  1.0000
  H   H38       1.0  0.5782488159196293  0.20716577087033972  0.7478609784977976  1.0000
  H   H39       1.0  0.421798165100526  0.7071777308065491  0.7521450031543467  1.0000
  H   H40       1.0  0.4218159181508624  0.792829726624383  0.2521432638600771  1.0000
  C   C1        1.0  0.11862361875936497  0.21199286829540398  0.1719001582029733  1.0000
  C   C2        1.0  0.1186530500865572  0.28799922050296084  0.6718941470867179  1.0000
  C   C3        1.0  0.8813750528031576  0.7880134409126355  0.8281095117376367  1.0000
  C   C4        1.0  0.881355648549821  0.7119854645690892  0.3281001355490076  1.0000
  C   C5        1.0  0.1585779731015649  0.10293617924313027  0.2527615070894386  1.0000
  C   C6        1.0  0.1586084944777824  0.3970616770065688  0.7527689607246302  1.0000
  C   C7        1.0  0.84140386376572  0.897058116425036  0.7472400533019795  1.0000
  C   C8        1.0  0.841412489298804  0.6029452330084054  0.24723386618606472  1.0000
  C   C9        1.0  0.994965633144545  0.15994244024098947  0.2855424866758867  1.0000
  C   C10       1.0  0.9949748275867875  0.34004711186333475  0.7855463169940509  1.0000
  C   C11       1.0  0.005023497365108732  0.8400596642074303  0.7144633830928697  1.0000
  C   C12       1.0  0.005038751823036607  0.6599429792863132  0.21445103312513683  1.0000
  C   C13       1.0  0.41230446614222427  0.09397810929687006  0.1314691833883757  1.0000
  C   C14       1.0  0.4123369807353896  0.406014455074711  0.6314819424763912  1.0000
  C   C15       1.0  0.5876883346598446  0.906019790472868  0.8685269125688748  1.0000
  C   C16       1.0  0.5876899768851586  0.5939984617048565  0.368511185151533  1.0000
  C   C17       1.0  0.24696668535848693  0.021392522788381996  0.0949962843401906  1.0000
  C   C18       1.0  0.247015345134912  0.4786023645519676  0.5950031949501239  1.0000
  C   C19       1.0  0.752989272940077  0.9786131855076898  0.9049986196562827  1.0000
  C   C20       1.0  0.7529540434954426  0.5213919310502461  0.4049880701492513  1.0000
  C   C21       1.0  0.3658548651433904  0.9474665866775422  0.1011414208127874  1.0000
  C   C22       1.0  0.36588947603895855  0.5525386117566808  0.6011442078882538  1.0000
  C   C23       1.0  0.6340845341402783  0.052536118163565994  0.8988482921305234  1.0000
  C   C24       1.0  0.6340861070801297  0.447470100022741  0.39883969272866443  1.0000
  C   C25       1.0  0.8273089905823027  0.3012016001169542  0.2509737032105619  1.0000
  C   C26       1.0  0.8273196061232043  0.19879625206923623  0.7509746110762664  1.0000
  C   C27       1.0  0.17269867117487792  0.6987969004043534  0.7490339299273643  1.0000
  C   C28       1.0  0.1727151931336692  0.8012022486132079  0.24902866280373806  1.0000
  I   I1        1.0  0.2690535046663669  0.4604252548290332  0.11919762079892851  1.0000
  I   I2        1.0  0.2690328191830034  0.03956505307623099  0.6191968677279293  1.0000
  I   I3        1.0  0.7309791017131032  0.5395714438228794  0.8808067459647546  1.0000
  I   I4        1.0  0.730946550282269  0.9604322459404527  0.38080286709141126  1.0000
  I   I5        1.0  0.5367098585887574  0.275880507013099  0.9575887194693493  1.0000
  I   I6        1.0  0.5367139230606454  0.22411428751912865  0.4575876725119628  1.0000
  I   I7        1.0  0.46332072037175454  0.724120396331557  0.04241849127738111  1.0000
  I   I8        1.0  0.46327432733215085  0.7758836122237865  0.5424088581413002  1.0000
  N   N1        1.0  0.9743922262894172  0.2257303905378051  0.2356532813198697  1.0000
  N   N2        1.0  0.9744214420967194  0.27426379166707443  0.7356449298475312  1.0000
  N   N3        1.0  0.02557601483785993  0.7742699117732811  0.7643501668710401  1.0000
  N   N4        1.0  0.02560573415861  0.7257335076312684  0.264350532510683  1.0000
  N   N5        1.0  0.2334942998249545  0.13611840183980914  0.1840735147719457  1.0000
  N   N6        1.0  0.23349125223600709  0.3638804173052462  0.6840757951229152  1.0000
  N   N7        1.0  0.7665131420914478  0.8638813000264205  0.8159317835936762  1.0000
  N   N8        1.0  0.766530933425983  0.6361132779326509  0.3159154323691808  1.0000
