data_image0
_chemical_formula_structural       H36Ru4C36N8O16
_chemical_formula_sum              "H36 Ru4 C36 N8 O16"
_cell_length_a       8.621818643516262
_cell_length_b       10.251864473674868
_cell_length_c       19.140827530690167
_cell_angle_alpha    103.74565639340818
_cell_angle_beta     89.9980072489824
_cell_angle_gamma    114.82385861757888

_space_group_name_H-M_alt    "P 1"
_space_group_IT_number       1

loop_
  _space_group_symop_operation_xyz
  'x, y, z'

loop_
  _atom_site_type_symbol
  _atom_site_label
  _atom_site_symmetry_multiplicity
  _atom_site_fract_x
  _atom_site_fract_y
  _atom_site_fract_z
  _atom_site_occupancy
  H   H1        1.0  0.718755346188793  0.7028012050444373  0.5824899302259396  1.0000
  H   H2        1.0  0.01545159719503893  0.29670730377638693  0.9174598988037345  1.0000
  H   H3        1.0  0.2812502362565183  0.2971791557230005  0.41751753285850407  1.0000
  H   H4        1.0  0.9845190354154315  0.7032797127636526  0.08255052927078309  1.0000
  H   H5        1.0  0.7442625889106722  0.6513705630749554  0.6641067978584445  1.0000
  H   H6        1.0  0.09252676268626905  0.34831597675420056  0.835900691866577  1.0000
  H   H7        1.0  0.2557391557887883  0.3486253317943948  0.33590584194488565  1.0000
  H   H8        1.0  0.9074614668316557  0.6516876895161943  0.1641145369523258  1.0000
  H   H9        1.0  0.9004776417537812  0.8181802320942069  0.6469221272720773  1.0000
  H   H10       1.0  0.08186419803218571  0.18131060962330986  0.8529817778814249  1.0000
  H   H11       1.0  0.0995248400934301  0.1818101733116961  0.3530856112404379  1.0000
  H   H12       1.0  0.918127035918985  0.818689783865544  0.1470293634698123  1.0000
  H   H13       1.0  0.8840310181455351  0.3857571140804693  0.7052171241378176  1.0000
  H   H14       1.0  0.49806668232180584  0.613984980868949  0.7947027938203276  1.0000
  H   H15       1.0  0.11598571835818913  0.6142478936772233  0.294785741666054  1.0000
  H   H16       1.0  0.5019082239197631  0.385998980990017  0.20529208123261358  1.0000
  H   H17       1.0  0.9404195066381291  0.5410213543942107  0.6001893279183435  1.0000
  H   H18       1.0  0.3989641366268373  0.4586573995425524  0.8996792101643505  1.0000
  H   H19       1.0  0.05959063045362706  0.4589936595732523  0.39981589814467355  1.0000
  H   H20       1.0  0.6010342487076841  0.5413387350341664  0.10032092203039869  1.0000
  H   H21       1.0  0.7923876915582113  0.31542353547488494  0.4298429785483648  1.0000
  H   H22       1.0  0.4768659640885247  0.6841697863584526  0.06999320812257535  1.0000
  H   H23       1.0  0.20762199597579203  0.6845882566832272  0.5701555544510342  1.0000
  H   H24       1.0  0.5231352255619229  0.3158342823975033  0.9300006524736659  1.0000
  H   H25       1.0  0.794247840267353  0.4884825627192271  0.4781870386657943  1.0000
  H   H26       1.0  0.30572013971683987  0.5112499867068009  0.0216692025271783  1.0000
  H   H27       1.0  0.2057664658688267  0.5115291879651239  0.5218135787053839  1.0000
  H   H28       1.0  0.6942735280433683  0.4887506343809491  0.9783299520459748  1.0000
  H   H29       1.0  0.5954714478801507  0.3261488251355971  0.4477875946972674  1.0000
  H   H30       1.0  0.2692829563813319  0.6737024502882392  0.0522395676065841  1.0000
  H   H31       1.0  0.4045439260681221  0.6738650631982279  0.5522180058311434  1.0000
  H   H32       1.0  0.7307141333149119  0.3263003771129789  0.9477609218826614  1.0000
  H   H33       1.0  0.4726744608394854  0.0959570524465931  0.45484285808632313  1.0000
  H   H34       1.0  0.37680058039022424  0.904164475915927  0.0451901587100565  1.0000
  H   H35       1.0  0.5273625634545879  0.9040514180610727  0.5451536707017651  1.0000
  H   H36       1.0  0.6231556435377429  0.09582852204576399  0.9547996346732432  1.0000
  Ru  Ru1       1.0  0.5590101911345543  0.07893838420643111  0.7000912687931589  1.0000
  Ru  Ru2       1.0  0.48017132725755113  0.9210356568530995  0.7998757379491721  1.0000
  Ru  Ru3       1.0  0.44100210759725667  0.9210600620364033  0.2999044649830153  1.0000
  Ru  Ru4       1.0  0.5198200461425273  0.07896501477181768  0.2001208109624102  1.0000
  C   C1        1.0  0.508805996579632  0.22574605770685713  0.753835599419233  1.0000
  C   C2        1.0  0.28320732626266226  0.7743280031655146  0.7462309912241167  1.0000
  C   C3        1.0  0.4912183358848736  0.7742579030146216  0.2461634714503234  1.0000
  C   C4        1.0  0.7167879043244839  0.22568271048782415  0.2537658327218608  1.0000
  C   C5        1.0  0.3397807414620715  0.9931159181705596  0.6545468806236343  1.0000
  C   C6        1.0  0.3468175206209523  0.007020945007738497  0.8454770077985855  1.0000
  C   C7        1.0  0.660233127250038  0.006890313685069299  0.34545039899802527  1.0000
  C   C8        1.0  0.6531726461523492  0.9929819545375481  0.154519833974426  1.0000
  C   C9        1.0  0.6694717585909798  0.8310713529315875  0.6786119287482961  1.0000
  C   C10       1.0  0.8381482065968698  0.1687055946403291  0.8213367359461755  1.0000
  C   C11       1.0  0.3305307161028708  0.16892135942712364  0.321391933291558  1.0000
  C   C12       1.0  0.16184440983101908  0.8312859580061268  0.17866958604628275  1.0000
  C   C13       1.0  0.7623874837305139  0.7436195914823002  0.6406986533063872  1.0000
  C   C14       1.0  0.018385191303146083  0.2560099298161517  0.8592468901366032  1.0000
  C   C15       1.0  0.23761500309701938  0.25637082385703985  0.3593085640475735  1.0000
  C   C16       1.0  0.9816032140647266  0.7439871235322002  0.1407638121849502  1.0000
  C   C17       1.0  0.6464502240712022  0.197972500412277  0.5535126441298317  1.0000
  C   C18       1.0  0.4482926118796726  0.8019317931607048  0.9464395658510868  1.0000
  C   C19       1.0  0.3535810440841516  0.8020337348516476  0.4464841133490652  1.0000
  C   C20       1.0  0.5516718085151952  0.1980567169849294  0.053551204956974616  1.0000
  C   C21       1.0  0.8230096779481287  0.349698889875576  0.6502580502650375  1.0000
  C   C22       1.0  0.4730992458864804  0.6500990190956912  0.8496609476836808  1.0000
  C   C23       1.0  0.1770116700044041  0.6503083833611567  0.3497430234379522  1.0000
  C   C24       1.0  0.5268738603755737  0.34988830451068503  0.15033332434428098  1.0000
  C   C25       1.0  0.8519968764232716  0.4278572939037629  0.5986445652410239  1.0000
  C   C26       1.0  0.4237933387862824  0.5718885624939604  0.9012431825116068  1.0000
  C   C27       1.0  0.14802205329539936  0.5721544252402638  0.4013576153433789  1.0000
  C   C28       1.0  0.5761923724668848  0.428105418916509  0.0987530094991627  1.0000
  C   C29       1.0  0.7298810144152696  0.3674537851249511  0.4696036288957686  1.0000
  C   C30       1.0  0.3622978305066482  0.6323097590546283  0.030303242413943096  1.0000
  C   C31       1.0  0.2701338800933399  0.6325568217989286  0.5303984055203728  1.0000
  C   C32       1.0  0.6376929815956346  0.3676897891116865  0.9696936812911047  1.0000
  C   C33       1.0  0.5249626369562749  0.0717950349541994  0.49951582662365007  1.0000
  C   C34       1.0  0.45312577238762936  0.9282153007391327  0.00047342591467725866  1.0000
  C   C35       1.0  0.4750726664091474  0.9282123125298725  0.5004810770235082  1.0000
  C   C36       1.0  0.5468299991753156  0.0717721485935456  0.9995145931947746  1.0000
  N   N1        1.0  0.6951315083932172  0.20853574340457465  0.6224919915361795  1.0000
  N   N2        1.0  0.4864928122031672  0.7913514514999491  0.8774625637158664  1.0000
  N   N3        1.0  0.304896322885142  0.7914682557455918  0.37750499450230274  1.0000
  N   N4        1.0  0.5134699442195797  0.20863372800359764  0.12252724683833088  1.0000
  N   N5        1.0  0.7391369299427596  0.3330354074836066  0.5385509150018848  1.0000
  N   N6        1.0  0.40576600152056846  0.6667716602447484  0.9613531450961759  1.0000
  N   N7        1.0  0.26088725655370126  0.6669752257604954  0.46144955541367944  1.0000
  N   N8        1.0  0.5942081803411696  0.3332201377641865  0.038640670140679796  1.0000
  O   O1        1.0  0.47927376487591283  0.32161108980395164  0.7890789835214207  1.0000
  O   O2        1.0  0.15773383117818435  0.6785277128458275  0.7111189785921965  1.0000
  O   O3        1.0  0.5207636470390469  0.6784028001981284  0.21092609460177408  1.0000
  O   O4        1.0  0.842245740815649  0.3214841601565297  0.2888759080032344  1.0000
  O   O5        1.0  0.1971272309127697  0.9411344048790367  0.6276404791546283  1.0000
  O   O6        1.0  0.2561694478877854  0.059078192886118985  0.8724290210869725  1.0000
  O   O7        1.0  0.8028848748550957  0.0588729413717815  0.3723569469633574  1.0000
  O   O8        1.0  0.7438248779693099  0.9409214235091881  0.1275642543113236  1.0000
  O   O9        1.0  0.6336279985261514  0.8219825851641929  0.7424099628666099  1.0000
  O   O10       1.0  0.8113598795722937  0.17794469389516374  0.7575657098975341  1.0000
  O   O11       1.0  0.36636286772539967  0.1780124285639673  0.2575905445152813  1.0000
  O   O12       1.0  0.18864549062202227  0.8220491708524164  0.24243621374196778  1.0000
  O   O13       1.0  0.6339727111694202  0.9100646812007511  0.6446237518081261  1.0000
  O   O14       1.0  0.723790277711693  0.08969843575741268  0.8553179150989435  1.0000
  O   O15       1.0  0.3660367091759157  0.08993032556727339  0.3553767545239523  1.0000
  O   O16       1.0  0.2761983533093114  0.9102921040032043  0.1446830491396653  1.0000
