data_image0
_chemical_formula_structural       Cu2H28C34S2N6
_chemical_formula_sum              "Cu2 H28 C34 S2 N6"
_cell_length_a       5.821259529156506
_cell_length_b       10.560680690267912
_cell_length_c       12.752224270298473
_cell_angle_alpha    93.90859942935587
_cell_angle_beta     105.86175243443279
_cell_angle_gamma    95.01174474721556

_space_group_name_H-M_alt    "P 1"
_space_group_IT_number       1

loop_
  _space_group_symop_operation_xyz
  'x, y, z'

loop_
  _atom_site_type_symbol
  _atom_site_label
  _atom_site_symmetry_multiplicity
  _atom_site_fract_x
  _atom_site_fract_y
  _atom_site_fract_z
  _atom_site_occupancy
  Cu  Cu1       1.0  0.38941399334443355  0.6256041944832871  0.41323977130629436  1.0000
  Cu  Cu2       1.0  0.6105695479670317  0.3743916687510236  0.5867606227045813  1.0000
  H   H1        1.0  0.8657941623727224  0.4607429616683375  0.3034709659060226  1.0000
  H   H2        1.0  0.13416461762904666  0.539239501564495  0.6965214579065275  1.0000
  H   H3        1.0  0.7236639814858208  0.3408040059327178  0.19542470691466465  1.0000
  H   H4        1.0  0.276283278077578  0.6591832476526917  0.8045650377223695  1.0000
  H   H5        1.0  0.33815803389594384  0.4396531862446336  0.1612410664293122  1.0000
  H   H6        1.0  0.6618120087441638  0.5603559235025769  0.8387520313872303  1.0000
  H   H7        1.0  0.42998163899075337  0.3997705739599765  0.2979678816075477  1.0000
  H   H8        1.0  0.5699649545375536  0.6002223395447784  0.7020196435703738  1.0000
  H   H9        1.0  0.9342724395461841  0.8744766242286276  0.23540691042741463  1.0000
  H   H10       1.0  0.0657618677646781  0.1255159602344165  0.7645951084564333  1.0000
  H   H11       1.0  0.9622953610369293  0.09848505111890656  0.3138066099342894  1.0000
  H   H12       1.0  0.037751097203056444  0.9015090383680189  0.686186619262365  1.0000
  H   H13       1.0  0.6482670485492505  0.1688165396851105  0.39556020556117494  1.0000
  H   H14       1.0  0.35179047834621  0.8312049704904536  0.6044282109386359  1.0000
  H   H15       1.0  0.3003265282865115  0.014799353658645502  0.39618674988908253  1.0000
  H   H16       1.0  0.6997316776482451  0.9852284091304923  0.6038176699454922  1.0000
  H   H17       1.0  0.26433400726048717  0.7925589462583388  0.3131881494520456  1.0000
  H   H18       1.0  0.7357078913651164  0.20746191312309747  0.6868338138648298  1.0000
  H   H19       1.0  0.05096282683205537  0.6324551067348451  0.046043596325724  1.0000
  H   H20       1.0  0.9490334102803785  0.36754164196497635  0.9539582484711036  1.0000
  H   H21       1.0  0.10179843010528342  0.7620829639222676  0.8964785144738983  1.0000
  H   H22       1.0  0.8982019205777261  0.23791572569396635  0.10352543119574882  1.0000
  H   H23       1.0  0.8129944414708916  0.9182276609042362  0.826380769285123  1.0000
  H   H24       1.0  0.1869960161177531  0.08176720828836888  0.17362036045550872  1.0000
  H   H25       1.0  0.4699434167443926  0.9411030918622315  0.9041081204160689  1.0000
  H   H26       1.0  0.530040596619294  0.05888788562698719  0.09588900635308314  1.0000
  H   H27       1.0  0.42482180283460025  0.8163421864504556  0.05602574956379413  1.0000
  H   H28       1.0  0.5751591937687975  0.18364309932191247  0.9439716145253814  1.0000
  C   C1        1.0  0.9544051834305803  0.6592377817172801  0.49775280129451005  1.0000
  C   C2        1.0  0.04558424883348519  0.34077277657799226  0.5022605664243187  1.0000
  C   C3        1.0  0.7225515793894958  0.4407166607298975  0.22506452832473664  1.0000
  C   C4        1.0  0.2774068669277696  0.559272468520355  0.7749273199863537  1.0000
  C   C5        1.0  0.47881748685053066  0.4610852925471177  0.23989757013519156  1.0000
  C   C6        1.0  0.5211465807504965  0.538912459535723  0.7600967946167856  1.0000
  C   C7        1.0  0.7945951338854014  0.9044580603637724  0.270341519918226  1.0000
  C   C8        1.0  0.2054389966470609  0.09554211890684167  0.7296591905356352  1.0000
  C   C9        1.0  0.8104122540039497  0.0305999150872083  0.3141727988491212  1.0000
  C   C10       1.0  0.18963639518879202  0.969402017029864  0.6858272436455624  1.0000
  C   C11       1.0  0.633760761951457  0.0707313779303576  0.3600070801987698  1.0000
  C   C12       1.0  0.36629231615648916  0.9292846050148142  0.6399861286192277  1.0000
  C   C13       1.0  0.4383696279859136  0.9842688845243687  0.36023073127923777  1.0000
  C   C14       1.0  0.5616817214870764  0.015752225960284208  0.6397726766647979  1.0000
  C   C15       1.0  0.4209530329317417  0.8587255592877199  0.3153671076134117  1.0000
  C   C16       1.0  0.5790801921054651  0.14129294084008848  0.6846388882607783  1.0000
  C   C17       1.0  0.6003606603682954  0.81599044493484  0.2712613951884961  1.0000
  C   C18       1.0  0.3996665896298381  0.18401669752859107  0.7287458676211358  1.0000
  C   C19       1.0  0.5858676061786241  0.6796745561646063  0.2326396266774324  1.0000
  C   C20       1.0  0.4141310200696893  0.3203241690915063  0.7673649125134433  1.0000
  C   C21       1.0  0.7027824979441633  0.6348390819095895  0.14759596338455344  1.0000
  C   C22       1.0  0.29720703961259437  0.36515194327588313  0.8524041365932222  1.0000
  C   C23       1.0  0.7372745337203881  0.7171813643258245  0.0623403777732534  1.0000
  C   C24       1.0  0.2627155515745585  0.2828116215171832  0.9376614255290293  1.0000
  C   C25       1.0  0.9279556640840667  0.7026297574770196  0.01632820502519652  1.0000
  C   C26       1.0  0.0720307384154992  0.29736319656848303  0.9836716161380039  1.0000
  C   C27       1.0  0.9548825493795048  0.7750195078608113  0.9322740117496907  1.0000
  C   C28       1.0  0.04510965118222288  0.22497447420971634  0.0677296342843832  1.0000
  C   C29       1.0  0.792188895593327  0.8618801298915884  0.8922649247989868  1.0000
  C   C30       1.0  0.2077928455974742  0.13810892257997406  0.10773109216688681  1.0000
  C   C31       1.0  0.6003582678013116  0.8755042482183907  0.9364733603953256  1.0000
  C   C32       1.0  0.39961953526339755  0.12448294064470389  0.06352293258389351  1.0000
  C   C33       1.0  0.5744417680955037  0.8046216409494916  0.021666966779420704  1.0000
  C   C34       1.0  0.42553775940390176  0.1953655122737246  0.9783287326785627  1.0000
  S   S1        1.0  0.7351764268309535  0.6808859799619498  0.5520436450168731  1.0000
  S   S2        1.0  0.26482368572581544  0.31911769847662436  0.44796673707604384  1.0000
  N   N1        1.0  0.11671079253849825  0.6437220489751069  0.460894418431181  1.0000
  N   N2        1.0  0.8832900061241701  0.35628537039334407  0.5391138242430529  1.0000
  N   N3        1.0  0.7778534477159126  0.5230455630943351  0.14654653308524251  1.0000
  N   N4        1.0  0.22211338398253128  0.4769407046633702  0.853447715586789  1.0000
  N   N5        1.0  0.4808461115247623  0.5949723344817953  0.27995522920121374  1.0000
  N   N6        1.0  0.5191492227602481  0.4050273908442107  0.7200497641036065  1.0000
