data_image0
_chemical_formula_structural       U2H16C20N8O20
_chemical_formula_sum              "U2 H16 C20 N8 O20"
_cell_length_a       8.563607254072615
_cell_length_b       8.92006971701938
_cell_length_c       13.146746896065512
_cell_angle_alpha    86.9255927174588
_cell_angle_beta     70.9696582050098
_cell_angle_gamma    61.31226337378621

_space_group_name_H-M_alt    "P 1"
_space_group_IT_number       1

loop_
  _space_group_symop_operation_xyz
  'x, y, z'

loop_
  _atom_site_type_symbol
  _atom_site_label
  _atom_site_symmetry_multiplicity
  _atom_site_fract_x
  _atom_site_fract_y
  _atom_site_fract_z
  _atom_site_occupancy
  U   U1        1.0  0.4999962423255652  0.500004136690535  1.0360926168601753e-05  1.0000
  U   U2        1.0  0.500004605295779  0.9999986150113996  0.4999877930245872  1.0000
  H   H1        1.0  0.8569397934629779  0.2913264044048701  0.6693887939293076  1.0000
  H   H2        1.0  0.31749059527683  0.20865643223874739  0.8300980873442185  1.0000
  H   H3        1.0  0.1430439916322969  0.7086856978612347  0.33063451815598194  1.0000
  H   H4        1.0  0.6824766347899786  0.7913870582665014  0.1698885167179113  1.0000
  H   H5        1.0  0.8220690244899559  0.3661839995254751  0.4916539312947279  1.0000
  H   H6        1.0  0.1804219391019188  0.13337618554646716  0.0080677231619148  1.0000
  H   H7        1.0  0.1779358726408448  0.6338099837141371  0.5083697729288588  1.0000
  H   H8        1.0  0.8195130877300301  0.8666901157340658  0.9919291673547477  1.0000
  H   H9        1.0  0.21508581325273476  0.5729477487109308  0.6504336091443504  1.0000
  H   H10       1.0  0.9382536540807395  0.9268051518508924  0.8498138115367055  1.0000
  H   H11       1.0  0.7849156414975981  0.4270411607997672  0.34958792416153966  1.0000
  H   H12       1.0  0.06181361768992129  0.07313220020295572  0.1501466532268267  1.0000
  H   H13       1.0  0.27847525051966215  0.48575268077502903  0.8202508384491979  1.0000
  H   H14       1.0  0.08420906471011587  0.013887884575339599  0.6797976977728979  1.0000
  H   H15       1.0  0.721520653791302  0.5142440429224634  0.17976943616999103  1.0000
  H   H16       1.0  0.9158651519133371  0.9860595469966212  0.3201686192260028  1.0000
  C   C1        1.0  0.7203672807480217  0.3523973797477637  0.6584317157470565  1.0000
  C   C2        1.0  0.2305232433382756  0.14799010721591085  0.8414928013078793  1.0000
  C   C3        1.0  0.27962359489443156  0.6476108404957515  0.34159166374297467  1.0000
  C   C4        1.0  0.7694485204446622  0.8520429363364598  0.1584961073622537  1.0000
  C   C5        1.0  0.6949967577611246  0.39760422625873554  0.5608476645328153  1.0000
  C   C6        1.0  0.15330892126699064  0.10244415505093228  0.9390496245433367  1.0000
  C   C7        1.0  0.3050084601954525  0.6024003199371817  0.4391711509243877  1.0000
  C   C8        1.0  0.8466633659005325  0.8975901878995459  0.0609391387661375  1.0000
  C   C9        1.0  0.513801510669026  0.47706566209667756  0.5520830676830712  1.0000
  C   C10       1.0  0.04288286725884661  0.022908194335101887  0.9478817683901398  1.0000
  C   C11       1.0  0.486193847974107  0.5229388219417146  0.44793714009096425  1.0000
  C   C12       1.0  0.9571219474997578  0.9770915554413406  0.05209996375226917  1.0000
  C   C13       1.0  0.3611787369828292  0.510570350120446  0.6479132887973194  1.0000
  C   C14       1.0  0.01945678277567716  0.9892362451326022  0.8522145834200784  1.0000
  C   C15       1.0  0.6388204216703671  0.48942262535599196  0.3521040825454804  1.0000
  C   C16       1.0  0.9805790572748023  0.010733971104876594  0.14776260703138902  1.0000
  C   C17       1.0  0.39120520406426346  0.46337311026505296  0.7442420051996592  1.0000
  C   C18       1.0  0.09866822876522012  0.0362856863549794  0.7557556165216254  1.0000
  C   C19       1.0  0.6087975504264733  0.5366200031687496  0.2557722952243751  1.0000
  C   C20       1.0  0.9013746717865203  0.9636806818297714  0.24422088613458465  1.0000
  N   N1        1.0  0.8250277972970607  0.572073972057723  0.9007771608604075  1.0000
  N   N2        1.0  0.7970499176170026  0.9279991316464445  0.5999049658702303  1.0000
  N   N3        1.0  0.17495203302327417  0.42793601692826394  0.0992356508256265  1.0000
  N   N4        1.0  0.20295323523636447  0.07199920480636733  0.4000794456723895  1.0000
  N   N5        1.0  0.569321814167843  0.38286058274194795  0.7482378335989139  1.0000
  N   N6        1.0  0.19999208078926503  0.1170348186689267  0.751780894519456  1.0000
  N   N7        1.0  0.4306814620937587  0.617136213051083  0.2517808303826641  1.0000
  N   N8        1.0  0.8000205297903802  0.8829597617027289  0.24820078194873932  1.0000
  O   O1        1.0  0.362839101413968  0.6773998048964883  0.9374605539254971  1.0000
  O   O2        1.0  0.4771297408756397  0.8226184273584636  0.5623638037984051  1.0000
  O   O3        1.0  0.6371520194370603  0.3226009947047572  0.06255534040982272  1.0000
  O   O4        1.0  0.5228842295362738  0.17738028899657365  0.4376121501879169  1.0000
  O   O5        1.0  0.807560967122839  0.460211060654636  0.855062647762324  1.0000
  O   O6        1.0  0.6219181843306318  0.03957484904162807  0.6456875627088721  1.0000
  O   O7        1.0  0.19244491083932766  0.5397566011578334  0.14497136531784346  1.0000
  O   O8        1.0  0.3780873544546284  0.9604368989686802  0.354286114506543  1.0000
  O   O9        1.0  0.6972625012303553  0.6466613208997031  0.9941388944585229  1.0000
  O   O10       1.0  0.8376967689029156  0.8537500101573273  0.5063590424046325  1.0000
  O   O11       1.0  0.30270157431140615  0.353374879292204  0.005866074446174727  1.0000
  O   O12       1.0  0.1623146336878278  0.146237881420511  0.49362762362717655  1.0000
  O   O13       1.0  0.9539841903368257  0.6060977183734122  0.8587856237520342  1.0000
  O   O14       1.0  0.9179276671263423  0.8937957176350292  0.6420055348642962  1.0000
  O   O15       1.0  0.045990092771575154  0.3939153188771272  0.1412169114109147  1.0000
  O   O16       1.0  0.0820653734423331  0.10620095153336709  0.35798721115568805  1.0000
  O   O17       1.0  0.5983827907082855  0.3265021224962367  0.839763757868674  1.0000
  O   O18       1.0  0.26507511149247875  0.17282570365356523  0.6602993043771832  1.0000
  O   O19       1.0  0.40161299180525134  0.6734971200418299  0.1602580048687656  1.0000
  O   O20       1.0  0.7349352236595691  0.8271662659059446  0.3396829312519358  1.0000
