data_image0
_chemical_formula_structural       Sr2H24C16O8
_chemical_formula_sum              "Sr2 H24 C16 O8"
_cell_length_a       5.70074904085184
_cell_length_b       6.45464513578903
_cell_length_c       12.449517974236754
_cell_angle_alpha    93.13147582599564
_cell_angle_beta     103.83605990551784
_cell_angle_gamma    93.12072086938986

_space_group_name_H-M_alt    "P 1"
_space_group_IT_number       1

loop_
  _space_group_symop_operation_xyz
  'x, y, z'

loop_
  _atom_site_type_symbol
  _atom_site_label
  _atom_site_symmetry_multiplicity
  _atom_site_fract_x
  _atom_site_fract_y
  _atom_site_fract_z
  _atom_site_occupancy
  Sr  Sr1       1.0  0.7496142314196561  0.7495334912868261  0.999961835829815  1.0000
  Sr  Sr2       1.0  0.25038136145620626  0.2504640280864976  3.730554039549431e-05  1.0000
  H   H1        1.0  0.41271575714693404  0.1664340883070068  0.6924484331678684  1.0000
  H   H2        1.0  0.5873065375289315  0.8335098561041079  0.3075472393890166  1.0000
  H   H3        1.0  0.6170047233120216  0.3747557933899586  0.7569545526689723  1.0000
  H   H4        1.0  0.3829643125053579  0.6252280121683287  0.243049625773196  1.0000
  H   H5        1.0  0.7567786051748085  0.9975106145575197  0.6297384221400649  1.0000
  H   H6        1.0  0.24324863504899244  0.002494912372192498  0.3702449225753596  1.0000
  H   H7        1.0  0.9519930447050271  0.2151221743249252  0.6900672176897302  1.0000
  H   H8        1.0  0.04800566627882573  0.7848847947938824  0.3099468480069234  1.0000
  H   H9        1.0  0.6916205262472417  0.44526400705053243  0.5633019818595812  1.0000
  H   H10       1.0  0.3083818710517008  0.5547369879289832  0.4367243647537009  1.0000
  H   H11       1.0  0.48455347754313755  0.23276904840562196  0.5072596461520149  1.0000
  H   H12       1.0  0.5154287191118669  0.7672611506991203  0.4927404617266691  1.0000
  H   H13       1.0  0.8064752598509627  0.056604700560122005  0.4372954804100644  1.0000
  H   H14       1.0  0.19353649778008727  0.9434127371410735  0.5627088629358781  1.0000
  H   H15       1.0  0.015485577327446296  0.267211644761403  0.493999457388945  1.0000
  H   H16       1.0  0.9844934323040918  0.732820267089778  0.5060051960419898  1.0000
  H   H17       1.0  0.7525068547894805  0.5057533095584148  0.3708766074116099  1.0000
  H   H18       1.0  0.24747588556957112  0.4942531745832071  0.629108549621904  1.0000
  H   H19       1.0  0.5495334260657146  0.2923886742458137  0.3114316362283276  1.0000
  H   H20       1.0  0.4504685584522505  0.7076255665231557  0.6885636336287106  1.0000
  H   H21       1.0  0.8720422304159782  0.12231753358977931  0.2416137769037903  1.0000
  H   H22       1.0  0.1279404686446739  0.8776799853890153  0.7583864388608461  1.0000
  H   H23       1.0  0.08806845809287012  0.32334693894642197  0.30625630517158703  1.0000
  H   H24       1.0  0.9119356669761699  0.67664575744147  0.6937499343242379  1.0000
  C   C1        1.0  0.6684957290821671  0.09923529448217037  0.8383620204763034  1.0000
  C   C2        1.0  0.33153494100382375  0.9007687950063571  0.16161656587686224  1.0000
  C   C3        1.0  0.6050059822468086  0.2076926812655486  0.7315690590693437  1.0000
  C   C4        1.0  0.39501974732276324  0.7922900060290701  0.2684222114663797  1.0000
  C   C5        1.0  0.7614762339051993  0.1659662933139217  0.6502296980204392  1.0000
  C   C6        1.0  0.2385274928013033  0.8340411462628551  0.3497430896712502  1.0000
  C   C7        1.0  0.6786134839133808  0.2759490160721541  0.5435253302194382  1.0000
  C   C8        1.0  0.3213732229818119  0.7240762620279353  0.4564670754619939  1.0000
  C   C9        1.0  0.8213514893308939  0.22594187089868004  0.457213042134093  1.0000
  C   C10       1.0  0.17862528389143506  0.7740682118399178  0.5427884819978246  1.0000
  C   C11       1.0  0.7415226953474344  0.3368167513496658  0.35063017597599366  1.0000
  C   C12       1.0  0.25847900934937945  0.6631824577235861  0.64938641902868  1.0000
  C   C13       1.0  0.8939353249238735  0.2892696546684945  0.2681707627426206  1.0000
  C   C14       1.0  0.1060639753761805  0.7107233551230081  0.7318454534315394  1.0000
  C   C15       1.0  0.833255249133451  0.40079966910192866  0.1623416680890983  1.0000
  C   C16       1.0  0.1667291925156462  0.5992007850867082  0.837652358389107  1.0000
  O   O1        1.0  0.885356392334437  0.049333556215678684  0.8767350585578627  1.0000
  O   O2        1.0  0.11471393028334378  0.9506566304735172  0.1232704294452631  1.0000
  O   O3        1.0  0.5020913830573903  0.05864807437730238  0.8883367507109483  1.0000
  O   O4        1.0  0.497872827553877  0.9413927985042319  0.11164414641990562  1.0000
  O   O5        1.0  0.0011216241113842938  0.44273156922610457  0.1134854715165332  1.0000
  O   O6        1.0  0.9988818068357334  0.5572070603003993  0.8865363407728708  1.0000
  O   O7        1.0  0.6165953587623889  0.45126383809001425  0.12367022588597369  1.0000
  O   O8        1.0  0.38338773474695387  0.5487278836289278  0.8763475745079106  1.0000
