data_image0
_chemical_formula_structural       Zn8H24C20N32O12
_chemical_formula_sum              "Zn8 H24 C20 N32 O12"
_cell_length_a       9.834734546062215
_cell_length_b       9.772438641069115
_cell_length_c       16.268100318014483
_cell_angle_alpha    89.99984841756218
_cell_angle_beta     90.00002882491883
_cell_angle_gamma    89.99959531675675

_space_group_name_H-M_alt    "P 1"
_space_group_IT_number       1

loop_
  _space_group_symop_operation_xyz
  'x, y, z'

loop_
  _atom_site_type_symbol
  _atom_site_label
  _atom_site_symmetry_multiplicity
  _atom_site_fract_x
  _atom_site_fract_y
  _atom_site_fract_z
  _atom_site_occupancy
  Zn  Zn1       1.0  0.07009961786502572  0.8771821204627485  0.42386933479613725  1.0000
  Zn  Zn2       1.0  0.5700977821203282  0.6228207695239902  0.5761289586328361  1.0000
  Zn  Zn3       1.0  0.9299019288055916  0.12281762910659916  0.9238719324339827  1.0000
  Zn  Zn4       1.0  0.42990151291902373  0.37717948602419676  0.0761279079082371  1.0000
  Zn  Zn5       1.0  0.9299028365930154  0.12281941701849766  0.5761294247386601  1.0000
  Zn  Zn6       1.0  0.42990365553364285  0.3771807679595227  0.4238704156016909  1.0000
  Zn  Zn7       1.0  0.07009950885892381  0.8771808385201681  0.07612682710306733  1.0000
  Zn  Zn8       1.0  0.5700978911373582  0.6228189816071106  0.9238720810282715  1.0000
  H   H1        1.0  0.293454472424699  0.9928773386270034  0.32131951174654455  1.0000
  H   H2        1.0  0.7934524934952308  0.5071219119361813  0.6786788663696015  1.0000
  H   H3        1.0  0.7065470099456165  0.007123885211783001  0.8213209794373739  1.0000
  H   H4        1.0  0.20654483223627557  0.4928768693471141  0.1786800056171316  1.0000
  H   H5        1.0  0.7065479820337331  0.0071241988515353995  0.6786804771880953  1.0000
  H   H6        1.0  0.2065489441660873  0.49287757897391776  0.3213211225664736  1.0000
  H   H7        1.0  0.2934523940998305  0.992877652278985  0.1786783947967692  1.0000
  H   H8        1.0  0.7934515214078959  0.5071215982910217  0.821321827418565  1.0000
  H   H9        1.0  0.41207078046992507  0.12483357309483269  0.33542328532934107  1.0000
  H   H10       1.0  0.9120641845358579  0.3751687856575217  0.6645734747472928  1.0000
  H   H11       1.0  0.5879357947651515  0.8751675886970247  0.8354270146857131  1.0000
  H   H12       1.0  0.08793618276440901  0.6248300576477562  0.16457374431008281  1.0000
  H   H13       1.0  0.5879337075964487  0.8751679643805164  0.6645748595059189  1.0000
  H   H14       1.0  0.0879362363208145  0.6248307052589014  0.3354252847887481  1.0000
  H   H15       1.0  0.41206157568251456  0.12483087894288755  0.1645723595504904  1.0000
  H   H16       1.0  0.9120632212995119  0.37516636340878057  0.8354274740279024  1.0000
  H   H17       1.0  0.16400745958068091  0.3447064401561803  0.5467894756824949  1.0000
  H   H18       1.0  0.6640053196309879  0.15528643148854826  0.45320964914978396  1.0000
  H   H19       1.0  0.8359979179326875  0.6552816649586007  0.046790595094798  1.0000
  H   H20       1.0  0.33598506060833  0.8447070493863863  0.9532071844579663  1.0000
  H   H21       1.0  0.8359919444747349  0.6552920274818916  0.4532074397544008  1.0000
  H   H22       1.0  0.33599713482724525  0.8447151059913413  0.5467897250849347  1.0000
  H   H23       1.0  0.1639994525082002  0.3447188492506826  0.9532100085396138  1.0000
  H   H24       1.0  0.6640072258333022  0.1552873251207529  0.0467952632801456  1.0000
  C   C1        1.0  0.2592949689157109  0.11905749014155734  0.4163927641171697  1.0000
  C   C2        1.0  0.7592801474075586  0.38093572531452924  0.5835965616416416  1.0000
  C   C3        1.0  0.7407197915387088  0.8809381991039871  0.9164008451102745  1.0000
  C   C4        1.0  0.24071915231442637  0.6190644973891608  0.0835975130091953  1.0000
  C   C5        1.0  0.7407156199929689  0.8809389308899682  0.5836016925237857  1.0000
  C   C6        1.0  0.240723323854354  0.6190658121657932  0.4164009684935053  1.0000
  C   C7        1.0  0.259269444441685  0.11906947814600949  0.0835954556174414  1.0000
  C   C8        1.0  0.7592792349307232  0.38093601681649863  0.9164030906254155  1.0000
  C   C9        1.0  0.17789526526085103  0.2573035257254475  0.5065058031674711  1.0000
  C   C10       1.0  0.6778894887285389  0.24269640989381  0.49349332692401754  1.0000
  C   C11       1.0  0.8221131373610292  0.7426980592572007  0.0065043193955958015  1.0000
  C   C12       1.0  0.3221029503625488  0.7573009869590877  0.993492840185162  1.0000
  C   C13       1.0  0.8221061723855814  0.7427000583328507  0.49349234166558625  1.0000
  C   C14       1.0  0.3221119489324025  0.7573030810189891  0.5065054326122223  1.0000
  C   C15       1.0  0.1778821994816866  0.257299385103927  0.9934950548410342  1.0000
  C   C16       1.0  0.6778893360715444  0.24269543412282243  0.006508378151473001  1.0000
  C   C17       1.0  0.0627491847090127  0.84877508532999  0.2500020977112031  1.0000
  C   C18       1.0  0.5627472592595028  0.6512278570738772  0.7499974223306654  1.0000
  C   C19       1.0  0.9372542865500935  0.15122747543096435  0.7499978912228258  1.0000
  C   C20       1.0  0.4372572288142251  0.34877163382804344  0.2500013372061431  1.0000
  N   N1        1.0  0.1443688420623772  0.062099687863586384  0.4458326110311718  1.0000
  N   N2        1.0  0.6443688557257232  0.4378953703967029  0.55416712105378  1.0000
  N   N3        1.0  0.8556337351968681  0.9378958719735165  0.94583388324385  1.0000
  N   N4        1.0  0.35563042555885005  0.5621008885850499  0.054167591948711916  1.0000
  N   N5        1.0  0.855631578798459  0.93789877976274  0.55416799260545  1.0000
  N   N6        1.0  0.3556325819280559  0.5621061670881673  0.4458316384808327  1.0000
  N   N7        1.0  0.14436668565022612  0.06210668879290889  0.0541685644892809  1.0000
  N   N8        1.0  0.64436592809286  0.4378955324783079  0.9458354704884613  1.0000
  N   N9        1.0  0.09318058453466452  0.15233412851021205  0.5039665452628128  1.0000
  N   N10       1.0  0.5931781425439838  0.34766129481258184  0.496030708613823  1.0000
  N   N11       1.0  0.9068206988988481  0.8476582580811679  0.003969229448365801  1.0000
  N   N12       1.0  0.4068224325794887  0.6523340442788667  0.9960310357562322  1.0000
  N   N13       1.0  0.9068208531226958  0.8476663856886264  0.4960322142726099  1.0000
  N   N14       1.0  0.4068222783091074  0.65233921938988  0.503968050921408  1.0000
  N   N15       1.0  0.09317768834969091  0.1523412328398095  0.996030759487134  1.0000
  N   N16       1.0  0.5931769714989414  0.3476582836321711  0.0039707972849286  1.0000
  N   N17       1.0  0.28281628245125034  0.2422998485190533  0.4533976058182034  1.0000
  N   N18       1.0  0.7828134846846808  0.2576972922734059  0.546602178756473  1.0000
  N   N19       1.0  0.7171883331521229  0.757697724616662  0.9533978829410685  1.0000
  N   N20       1.0  0.21718680866458587  0.7422979766876027  0.0466023103616848  1.0000
  N   N21       1.0  0.7171851552027209  0.7577016889644594  0.5466017684163234  1.0000
  N   N22       1.0  0.21718795296871465  0.7423042452141715  0.4533953513782905  1.0000
  N   N23       1.0  0.2828070036732768  0.24230483617059656  0.04660333539126071  1.0000
  N   N24       1.0  0.7828125953991433  0.25769844437028416  0.953398293276372  1.0000
  N   N25       1.0  0.34244941275070323  0.05938132075675641  0.3608288720022514  1.0000
  N   N26       1.0  0.8424525110870177  0.44061948787383204  0.6391764674796434  1.0000
  N   N27       1.0  0.6575470103720988  0.9406187060734582  0.860826376582537  1.0000
  N   N28       1.0  0.15754885711269398  0.5593743506811109  0.13917871170951202  1.0000
  N   N29       1.0  0.6575489744882574  0.9406212400142095  0.639174805130338  1.0000
  N   N30       1.0  0.1575479097626982  0.5593820496133118  0.3608229067546986  1.0000
  N   N31       1.0  0.342454427283613  0.05938283139789749  0.1391785299512875  1.0000
  N   N32       1.0  0.8424495301658227  0.44061695394211137  0.8608255801319585  1.0000
  O   O1        1.0  0.0027253529777198  0.8098718608531784  0.318213523559109  1.0000
  O   O2        1.0  0.502723112628246  0.6901304863248823  0.6817859737253187  1.0000
  O   O3        1.0  0.997273077019017  0.1901334697934018  0.8182178837067013  1.0000
  O   O4        1.0  0.4972731982494453  0.3098672580205246  0.18178321157614621  1.0000
  O   O5        1.0  0.9972771014771313  0.19013069991139986  0.6817864653747208  1.0000
  O   O6        1.0  0.4972752746129387  0.3098710511695089  0.3182134005086326  1.0000
  O   O7        1.0  0.002728360631572  0.8098690909748001  0.1817821052269366  1.0000
  O   O8        1.0  0.5027282394013355  0.6901353027463273  0.8182173920574058  1.0000
  O   O9        1.0  0.17316982235976752  0.9168109335722577  0.24999960570205101  1.0000
  O   O10       1.0  0.6731693896472423  0.5831901980770269  0.7499999562071837  1.0000
  O   O11       1.0  0.8268326320984658  0.0831906039076316  0.7499997685326747  1.0000
  O   O12       1.0  0.3268279807861063  0.41681236270702743  0.2499994180257588  1.0000
