data_image0
_chemical_formula_structural       Gd2P2H24C26N2O22
_chemical_formula_sum              "Gd2 P2 H24 C26 N2 O22"
_cell_length_a       7.301738740370072
_cell_length_b       9.584213514857641
_cell_length_c       12.313970552978706
_cell_angle_alpha    68.73621986619769
_cell_angle_beta     91.91049575035201
_cell_angle_gamma    89.20585478986848

_space_group_name_H-M_alt    "P 1"
_space_group_IT_number       1

loop_
  _space_group_symop_operation_xyz
  'x, y, z'

loop_
  _atom_site_type_symbol
  _atom_site_label
  _atom_site_symmetry_multiplicity
  _atom_site_fract_x
  _atom_site_fract_y
  _atom_site_fract_z
  _atom_site_occupancy
  Gd  Gd1       1.0  0.7464838740145082  0.6999732528316399  0.5929423414974693  1.0000
  Gd  Gd2       1.0  0.2535329546505167  0.30004068055944094  0.40706237440522836  1.0000
  P   P1        1.0  0.714480246455203  0.4803813555766609  0.8954164803313986  1.0000
  P   P2        1.0  0.2855248569478519  0.5196138014113599  0.10458461275578668  1.0000
  H   H1        1.0  0.12306625501698677  0.7296649413543861  0.658719807612478  1.0000
  H   H2        1.0  0.8769514947186606  0.2703399886961789  0.3412818308336512  1.0000
  H   H3        1.0  0.10457658855209927  0.9011609602504649  0.5868130154452943  1.0000
  H   H4        1.0  0.8954477020403571  0.0988454293069978  0.4131833893091467  1.0000
  H   H5        1.0  0.6406290834103814  0.5291300107405519  0.052612931477128144  1.0000
  H   H6        1.0  0.3593691748820759  0.47087481527395875  0.9473796200996105  1.0000
  H   H7        1.0  0.7751398496098644  0.7263132947808301  0.2915390875498717  1.0000
  H   H8        1.0  0.22484358494628506  0.27367830377735197  0.708458769163606  1.0000
  H   H9        1.0  0.5837029649425104  0.7435080417812543  0.04167581394446528  1.0000
  H   H10       1.0  0.4162882992093841  0.2564885797895471  0.9583271635684412  1.0000
  H   H11       1.0  0.5129210542869912  0.7926734573931072  0.8464153275591997  1.0000
  H   H12       1.0  0.4870773010547325  0.2073213289027436  0.15358824617910466  1.0000
  H   H13       1.0  0.5837646029707028  0.04656487812185619  0.696241391468675  1.0000
  H   H14       1.0  0.41623092959355995  0.9534297107784653  0.3037589639087273  1.0000
  H   H15       1.0  0.7307459663303886  0.2329278664981516  0.7595409478620282  1.0000
  H   H16       1.0  0.2692472462690743  0.7670632113330171  0.24046039960180818  1.0000
  H   H17       1.0  0.9669807365145784  0.2171991602548005  0.1385119521390834  1.0000
  H   H18       1.0  0.03302632197314642  0.7827916268213713  0.8614920454723318  1.0000
  H   H19       1.0  0.8928846650092267  0.964838204890618  0.2745370705617988  1.0000
  H   H20       1.0  0.10711729161950247  0.0351477187848772  0.725461785671591  1.0000
  H   H21       1.0  0.9160468229809521  0.3492315411163388  0.8150666695547883  1.0000
  H   H22       1.0  0.08395163788748758  0.6507609447534292  0.184931883711279  1.0000
  H   H23       1.0  0.017212362815065795  0.3850866902728711  0.933661806543121  1.0000
  H   H24       1.0  0.982788081526756  0.6149126864609612  0.06633721233330198  1.0000
  C   C1        1.0  0.5845936341078964  0.8775822545574384  0.8691762600260518  1.0000
  C   C2        1.0  0.4153945591787433  0.12241641336854057  0.1308236611889413  1.0000
  C   C3        1.0  0.6256447182623573  0.017179975158114796  0.7873016479860125  1.0000
  C   C4        1.0  0.37434038703594996  0.9828219035049272  0.21269894176948873  1.0000
  C   C5        1.0  0.7101539299439846  0.12151233388402716  0.8236505586887545  1.0000
  C   C6        1.0  0.2898438750647117  0.8784857471936648  0.17634718513246386  1.0000
  C   C7        1.0  0.7628767997313444  0.08670191809815012  0.9424557298593969  1.0000
  C   C8        1.0  0.23712421669512906  0.9133042508019781  0.05754214544692369  1.0000
  C   C9        1.0  0.852774167272443  0.1886421642862359  0.9854052210196116  1.0000
  C   C10       1.0  0.1472289639228634  0.8113585269955337  0.014596692381772481  1.0000
  C   C11       1.0  0.8970215606050048  0.14127345476511272  0.10399658920108121  1.0000
  C   C12       1.0  0.1029773555557441  0.8587156985392355  0.8960045550425662  1.0000
  C   C13       1.0  0.8558981676312668  0.9975457266461374  0.18207017740605386  1.0000
  C   C14       1.0  0.14409036878387127  0.0024507353127205954  0.8179328206854493  1.0000
  C   C15       1.0  0.7680783415896283  0.8956565700693633  0.14302330230353993  1.0000
  C   C16       1.0  0.23191477396056828  0.10434454748045849  0.856967022998731  1.0000
  C   C17       1.0  0.7208347569200694  0.9415939848736413  0.021937856427321444  1.0000
  C   C18       1.0  0.27916859860283677  0.05840445321152289  0.9780630851762027  1.0000
  C   C19       1.0  0.8931731662732004  0.3430844325045114  0.904096191263747  1.0000
  C   C20       1.0  0.10682818201615157  0.6569071052706976  0.09590347499454303  1.0000
  C   C21       1.0  0.5434827214354597  0.42909118543506247  0.5479045814243833  1.0000
  C   C22       1.0  0.4565243654409769  0.5709108624170227  0.45209697727315046  1.0000
  C   C23       1.0  0.9592763171016685  0.5403835857792386  0.4374913168542207  1.0000
  C   C24       1.0  0.040711302091772  0.4596183674826833  0.562501964708801  1.0000
  C   C25       1.0  0.5748162162617874  0.039962711984614395  0.4568084021510401  1.0000
  C   C26       1.0  0.4251746334810633  0.9600360872156198  0.5431890692807215  1.0000
  N   N1        1.0  0.6302816819322528  0.8448752393769395  0.9815657773136409  1.0000
  N   N2        1.0  0.36971096321109786  0.15512029761794818  0.018433465071531416  1.0000
  O   O1        1.0  0.7467937496885496  0.620620754783765  0.7876079621263656  1.0000
  O   O2        1.0  0.2532114638697606  0.3793833531082029  0.21238486183982266  1.0000
  O   O3        1.0  0.03151539091948759  0.8099299550163367  0.6229276774594723  1.0000
  O   O4        1.0  0.9684998515581069  0.19007607426313197  0.3770858037524434  1.0000
  O   O5        1.0  0.7553360576219674  0.5136525728226928  0.011064076156571893  1.0000
  O   O6        1.0  0.24467063196852482  0.4863504882769405  0.9889282516213882  1.0000
  O   O7        1.0  0.5219362619689462  0.419918839610375  0.896713420785268  1.0000
  O   O8        1.0  0.47806247537599933  0.5800826632846068  0.1032825315039361  1.0000
  O   O9        1.0  0.7220201032307968  0.7568073247743785  0.2091684379571034  1.0000
  O   O10       1.0  0.27797515084840535  0.2431883246029756  0.7908267351750952  1.0000
  O   O11       1.0  0.6522351453170642  0.45192736474930933  0.6218437267730509  1.0000
  O   O12       1.0  0.3478123700806535  0.5480726611088966  0.3781701651668642  1.0000
  O   O13       1.0  0.5002568568881216  0.3037354381008726  0.5439045689508077  1.0000
  O   O14       1.0  0.4997538729382212  0.6962713555623308  0.45609890247455814  1.0000
  O   O15       1.0  0.8693826879411333  0.6624745095594946  0.42127712165387277  1.0000
  O   O16       1.0  0.13058721886616803  0.3375400052103714  0.5787221141678884  1.0000
  O   O17       1.0  0.9855133081315869  0.48175605516658493  0.3631171080337978  1.0000
  O   O18       1.0  0.0144712067300503  0.5182650365817452  0.6368901122444655  1.0000
  O   O19       1.0  0.7277267643206924  0.9673795696377144  0.46991180087711365  1.0000
  O   O20       1.0  0.2722757235094234  0.0326143011400646  0.5300888268897381  1.0000
  O   O21       1.0  0.5349974081760605  0.1673571172795363  0.3819555072215124  1.0000
  O   O22       1.0  0.4649964477885931  0.8326407810556162  0.6180471258768562  1.0000
