data_image0
_chemical_formula_structural       Zn2H20C32Cl8O12
_chemical_formula_sum              "Zn2 H20 C32 Cl8 O12"
_cell_length_a       4.729841704340046
_cell_length_b       10.402517797684899
_cell_length_c       18.798901188332323
_cell_angle_alpha    80.07358937708109
_cell_angle_beta     90.19871410592617
_cell_angle_gamma    83.12013221178802

_space_group_name_H-M_alt    "P 1"
_space_group_IT_number       1

loop_
  _space_group_symop_operation_xyz
  'x, y, z'

loop_
  _atom_site_type_symbol
  _atom_site_label
  _atom_site_symmetry_multiplicity
  _atom_site_fract_x
  _atom_site_fract_y
  _atom_site_fract_z
  _atom_site_occupancy
  Zn  Zn1       1.0  0.6742390952690939  0.535260715599655  0.4123575521335356  1.0000
  Zn  Zn2       1.0  0.3257618707165121  0.4647387552332346  0.5876408309287628  1.0000
  H   H1        1.0  0.011984477099495867  0.873503103575729  0.4904711485030263  1.0000
  H   H2        1.0  0.9880017502340408  0.1264964139814708  0.509533080312899  1.0000
  H   H3        1.0  0.3240520122207898  0.8957699484629343  0.5381787192224652  1.0000
  H   H4        1.0  0.6759402497262954  0.10423051398471019  0.46182116117778105  1.0000
  H   H5        1.0  0.19317363153535175  0.1745113378759342  0.2002050472541229  1.0000
  H   H6        1.0  0.8068344646484391  0.8254930577092098  0.7997928504322335  1.0000
  H   H7        1.0  0.9683093027710543  0.8039352679696279  0.3879115519168935  1.0000
  H   H8        1.0  0.03169189179133979  0.19606318049478227  0.6120832083430658  1.0000
  H   H9        1.0  0.7536764078983322  0.834166509849318  0.2658941301673253  1.0000
  H   H10       1.0  0.24631923480499293  0.16583685075121926  0.7341001449588733  1.0000
  H   H11       1.0  0.9305013245462773  0.41509855101880777  0.2763531191584364  1.0000
  H   H12       1.0  0.06949831727788347  0.5848979623207454  0.7236450236664498  1.0000
  H   H13       1.0  0.8885779299459529  0.58273806791275  0.23738845535339698  1.0000
  H   H14       1.0  0.11142593923062805  0.41725844963217895  0.7626096873907644  1.0000
  H   H15       1.0  0.35135295226169927  0.8853350839593472  0.10173954301626514  1.0000
  H   H16       1.0  0.6486459675075409  0.11466445738545873  0.8982657483704134  1.0000
  H   H17       1.0  0.8384162622644525  0.5625080348955008  0.024589621893945  1.0000
  H   H18       1.0  0.16159029674876996  0.43749444232200563  0.9754132525767364  1.0000
  H   H19       1.0  0.13198803306688225  0.7300689957886491  0.1918604115665091  1.0000
  H   H20       1.0  0.8680143093175655  0.26992561456012254  0.8081437707748979  1.0000
  C   C1        1.0  0.245577330033754  0.8684356855454496  0.4884080458229009  1.0000
  C   C2        1.0  0.7544152020038766  0.1315637992196343  0.5115924630267019  1.0000
  C   C3        1.0  0.36599183343417957  0.7256075878960005  0.48906720885541  1.0000
  C   C4        1.0  0.6340149437773945  0.2743938557815541  0.510930980000005  1.0000
  C   C5        1.0  0.2636525071059452  0.07602954775097001  0.3104270579290472  1.0000
  C   C6        1.0  0.7363431511650376  0.9239738296067799  0.6895688114165355  1.0000
  C   C7        1.0  0.20607627103694165  0.9710767382852341  0.36433126334682714  1.0000
  C   C8        1.0  0.7939159701532643  0.028923701819458407  0.6356664914275643  1.0000
  C   C9        1.0  0.1461576396794371  0.0925043763755369  0.2409638804785886  1.0000
  C   C10       1.0  0.8538285354166962  0.9075029591590962  0.7590347892956334  1.0000
  C   C11       1.0  0.02234650772047077  0.8844880368845907  0.3473879257088087  1.0000
  C   C12       1.0  0.9776404257551119  0.11551630974496871  0.6526073153488741  1.0000
  C   C13       1.0  0.9649551630748474  0.0039096383351591  0.2253627263328896  1.0000
  C   C14       1.0  0.035034953715495434  0.996098662330198  0.7746337206918597  1.0000
  C   C15       1.0  0.9008128200987073  0.9007747884835664  0.2782470687872448  1.0000
  C   C16       1.0  0.09917965970151946  0.09923251425895778  0.7217478810206475  1.0000
  C   C17       1.0  0.2050446352285107  0.5274981844396153  0.3242144435885948  1.0000
  C   C18       1.0  0.7949613528135016  0.47249834079374853  0.6757842305216715  1.0000
  C   C19       1.0  0.049024614563158785  0.4990483768828966  0.2586294255446334  1.0000
  C   C20       1.0  0.9509776707398742  0.5009461720227436  0.7413689113256867  1.0000
  C   C21       1.0  0.35319754732773123  0.555847553131791  0.15916061375357776  1.0000
  C   C22       1.0  0.6468124135438131  0.44414997074672863  0.8408390260459915  1.0000
  C   C23       1.0  0.556567074757325  0.5104586511913425  0.11166078640638233  1.0000
  C   C24       1.0  0.4434402478245686  0.4895408427068304  0.8883391907542166  1.0000
  C   C25       1.0  0.60815615144989  0.7336230240033287  0.05765959379395724  1.0000
  C   C26       1.0  0.3918554192413026  0.2663764964431791  0.9423425089117646  1.0000
  C   C27       1.0  0.41014339941520456  0.780323401699718  0.10465700356356683  1.0000
  C   C28       1.0  0.5898679219423143  0.2196771187723101  0.8953465963186464  1.0000
  C   C29       1.0  0.6828922695651727  0.5987477604421015  0.06111155192605371  1.0000
  C   C30       1.0  0.3171174627295771  0.4012507858048978  0.9388917106758474  1.0000
  C   C31       1.0  0.28518456941566234  0.6913973089536823  0.1554537882478258  1.0000
  C   C32       1.0  0.7148201463571054  0.3085963146437436  0.8445499596896585  1.0000
  Cl  Cl1       1.0  0.4766182696816727  0.18907225678635342  0.3309857803680601  1.0000
  Cl  Cl2       1.0  0.5233985568319426  0.8109233012778957  0.6690135219897545  1.0000
  Cl  Cl3       1.0  0.8155536751006024  0.0229860014833108  0.13954915146520364  1.0000
  Cl  Cl4       1.0  0.18444754506268174  0.9770203487446237  0.8604480208499867  1.0000
  Cl  Cl5       1.0  0.6506321269100396  0.34381931280844913  0.11651594209339323  1.0000
  Cl  Cl6       1.0  0.349367493812032  0.6561850520229839  0.8834798301285718  1.0000
  Cl  Cl7       1.0  0.7660896714398505  0.8416910051978306  0.9941707511839373  1.0000
  Cl  Cl8       1.0  0.23391237975195617  0.15831243432538142  0.005830432105184996  1.0000
  O   O1        1.0  0.5674656193040164  0.6999580675857616  0.44728978028227584  1.0000
  O   O2        1.0  0.43252917724240797  0.30003370743362706  0.5527263842914538  1.0000
  O   O3        1.0  0.33366255934959804  0.9618378652250711  0.4309161799479997  1.0000
  O   O4        1.0  0.6663296766513865  0.038162569293881204  0.5690810434199352  1.0000
  O   O5        1.0  0.47400897106268747  0.5248201774615353  0.3215098242108213  1.0000
  O   O6        1.0  0.5259903954817061  0.4751773079748459  0.6784871587582446  1.0000
  O   O7        1.0  0.23401238186592369  0.46116668893100154  0.204903439233327  1.0000
  O   O8        1.0  0.7659907085195383  0.5388249213412167  0.7950962515786133  1.0000
  O   O9        1.0  0.06914104331274022  0.5512846685967218  0.37981707882016036  1.0000
  O   O10       1.0  0.9308667935041514  0.44871284200763023  0.6201814982068401  1.0000
  O   O11       1.0  0.2494646820727553  0.6444089440077646  0.5343496645002761  1.0000
  O   O12       1.0  0.750496233038433  0.3555906041745517  0.4656598788646421  1.0000
