data_image0
_chemical_formula_structural       CoH24C26S2N2O6
_chemical_formula_sum              "Co1 H24 C26 S2 N2 O6"
_cell_length_a       6.963074288150739
_cell_length_b       8.885710179823885
_cell_length_c       10.172530323023187
_cell_angle_alpha    76.35659170872992
_cell_angle_beta     77.62777503564043
_cell_angle_gamma    81.68187152049582

_space_group_name_H-M_alt    "P 1"
_space_group_IT_number       1

loop_
  _space_group_symop_operation_xyz
  'x, y, z'

loop_
  _atom_site_type_symbol
  _atom_site_label
  _atom_site_symmetry_multiplicity
  _atom_site_fract_x
  _atom_site_fract_y
  _atom_site_fract_z
  _atom_site_occupancy
  Co  Co1       1.0  0.5000016540579965  0.4999984329670396  0.5000003990160593  1.0000
  H   H1        1.0  0.8771273258203395  0.5099995637202281  0.6247032271310998  1.0000
  H   H2        1.0  0.12286978738030294  0.4899996375478609  0.3752989130891038  1.0000
  H   H3        1.0  0.20413565705439402  0.13975978243882278  0.954382913949729  1.0000
  H   H4        1.0  0.7958582630526154  0.8602301645819067  0.045618494980210894  1.0000
  H   H5        1.0  0.6848657780162031  0.4257102671423638  0.8511321113507436  1.0000
  H   H6        1.0  0.3151340543621686  0.5743004363384259  0.14887628536231287  1.0000
  H   H7        1.0  0.9837440808848117  0.24626994894592974  0.7908494359386892  1.0000
  H   H8        1.0  0.016248199966732116  0.7537327593538591  0.2091526564164354  1.0000
  H   H9        1.0  0.6087825211536783  0.48999693897048485  0.08516546486759322  1.0000
  H   H10       1.0  0.39122343039576185  0.5100126194039091  0.9148394013938272  1.0000
  H   H11       1.0  0.2938820065479605  0.964339644672975  0.11393501521397556  1.0000
  H   H12       1.0  0.7061139488016368  0.03565724766575329  0.8860667426310654  1.0000
  H   H13       1.0  0.46259866148651  0.11172041927689949  0.06026214858664499  1.0000
  H   H14       1.0  0.537389886336328  0.8882789196686715  0.9397332220253317  1.0000
  H   H15       1.0  0.351707170559692  0.7393599244880845  0.28880762141680805  1.0000
  H   H16       1.0  0.6482927757604884  0.2606404431967704  0.7111929367876542  1.0000
  H   H17       1.0  0.6645112765499095  0.13934743018197077  0.2438453320325847  1.0000
  H   H18       1.0  0.3354839228905676  0.8606577010071487  0.756148039178413  1.0000
  H   H19       1.0  0.8394300550387898  0.9825416835567251  0.432584073499406  1.0000
  H   H20       1.0  0.16057277762758562  0.0174610937684676  0.5674087537338932  1.0000
  H   H21       1.0  0.7480166371142971  0.7153530180546425  0.544683985309824  1.0000
  H   H22       1.0  0.2519970068424869  0.2846462708620976  0.45530515141931727  1.0000
  H   H23       1.0  0.8628775383656521  0.41012717170096374  0.5154822241249519  1.0000
  H   H24       1.0  0.13712562952058965  0.5898708579627508  0.4845183659895582  1.0000
  C   C1        1.0  0.805809899477801  0.392829683811307  0.29014900096989044  1.0000
  C   C2        1.0  0.1941964142302197  0.6071671980588959  0.709849432791131  1.0000
  C   C3        1.0  0.8624805149179624  0.35352278354738337  0.15138798823824115  1.0000
  C   C4        1.0  0.13752707588693625  0.6464740135479515  0.8486161945979943  1.0000
  C   C5        1.0  0.03510282170766031  0.2530791593581156  0.11624077610997571  1.0000
  C   C6        1.0  0.9648966469263132  0.7469118507746018  0.8837655980898161  1.0000
  C   C7        1.0  0.07369085048090801  0.21552337103545227  0.9855604844392758  1.0000
  C   C8        1.0  0.9262997513318398  0.7844688742594528  0.014443863099508328  1.0000
  C   C9        1.0  0.7794137702042223  0.3754583394386372  0.9261768708043333  1.0000
  C   C10       1.0  0.22058944495387325  0.6245500922659628  0.07382660695393647  1.0000
  C   C11       1.0  0.9477907493489399  0.2756015692048662  0.8921628809636813  1.0000
  C   C12       1.0  0.05220199569341592  0.7243964444294022  0.10784301358079061  1.0000
  C   C13       1.0  0.7387230442008959  0.41280550793668874  0.05519122065504691  1.0000
  C   C14       1.0  0.2612790888504364  0.5871994246109364  0.944814062991604  1.0000
  C   C15       1.0  0.3705194390294154  0.04279488223325249  0.1490903394662197  1.0000
  C   C16       1.0  0.6294748297928693  0.9572043693436637  0.8509092141602466  1.0000
  C   C17       1.0  0.4582636018827559  0.7990393595052011  0.3163621604485343  1.0000
  C   C18       1.0  0.5417289916710291  0.20096103458430287  0.6836393575688503  1.0000
  C   C19       1.0  0.49178294767456543  0.9525831614667836  0.25285396813265487  1.0000
  C   C20       1.0  0.5082142187527268  0.047417283024877604  0.7471420231321417  1.0000
  C   C21       1.0  0.6329804568856761  0.020471371795082394  0.2930548306245199  1.0000
  C   C22       1.0  0.3670196828909127  0.9795290753837094  0.7069397865421365  1.0000
  C   C23       1.0  0.7290346894432034  0.9341240234992368  0.3976386641050381  1.0000
  C   C24       1.0  0.2709743268797099  0.06587763521754646  0.6023486523306971  1.0000
  C   C25       1.0  0.6811871254330414  0.7838260942144828  0.4598992181659795  1.0000
  C   C26       1.0  0.3188200866504475  0.21617665401893754  0.5400940233525375  1.0000
  S   S1        1.0  0.19006292822780327  0.17509024895880287  0.23671320132189774  1.0000
  S   S2        1.0  0.809927846057427  0.8249008458554457  0.7632903639615307  1.0000
  N   N1        1.0  0.5502093179112535  0.7151981246790271  0.41856766049219374  1.0000
  N   N2        1.0  0.4497890821113658  0.28480343851437334  0.581430901411302  1.0000
  O   O1        1.0  0.625203112745517  0.44563323849549613  0.3262209754672938  1.0000
  O   O2        1.0  0.3747943131573592  0.554363648562301  0.6737805904151627  1.0000
  O   O3        1.0  0.9371006699388645  0.3672574747336199  0.36506845456491976  1.0000
  O   O4        1.0  0.06290383952972431  0.6327404966532199  0.6349359042788763  1.0000
  O   O5        1.0  0.7921219951003666  0.4443487867183507  0.6018922622475671  1.0000
  O   O6        1.0  0.20787802696410307  0.5556503907388898  0.3981104842204317  1.0000
