data_image0
_chemical_formula_structural       Cd2H32C32Br4N16
_chemical_formula_sum              "Cd2 H32 C32 Br4 N16"
_cell_length_a       7.7675610246931
_cell_length_b       8.37014748412261
_cell_length_c       16.80574452401112
_cell_angle_alpha    89.99995146005611
_cell_angle_beta     89.99990858656226
_cell_angle_gamma    114.29377565570232

_space_group_name_H-M_alt    "P 1"
_space_group_IT_number       1

loop_
  _space_group_symop_operation_xyz
  'x, y, z'

loop_
  _atom_site_type_symbol
  _atom_site_label
  _atom_site_symmetry_multiplicity
  _atom_site_fract_x
  _atom_site_fract_y
  _atom_site_fract_z
  _atom_site_occupancy
  Cd  Cd1       1.0  4.900921620834315e-08  0.4999987138838833  0.499999988010309  1.0000
  Cd  Cd2       1.0  0.9999932884256991  1.3744421984500985e-05  2.0142512581999997e-06  1.0000
  H   H1        1.0  0.8595872525379986  0.0660805958051967  0.4275409796633766  1.0000
  H   H2        1.0  0.1404156492507838  0.4339191767203873  0.9275404347875591  1.0000
  H   H3        1.0  0.14041208466609584  0.9339123014949775  0.5724569821067504  1.0000
  H   H4        1.0  0.8595853289966939  0.5660802787981395  0.07245514684204579  1.0000
  H   H5        1.0  0.5099376752898053  0.3361961353388452  0.4499595748153736  1.0000
  H   H6        1.0  0.4900711953435533  0.16381141209392067  0.9499600792541185  1.0000
  H   H7        1.0  0.4900671594556484  0.66380330735565  0.5500431472284005  1.0000
  H   H8        1.0  0.5099390220761535  0.8361972018578143  0.05003907257793829  1.0000
  H   H9        1.0  0.2026051993781692  0.08113310024708652  0.4170513513182214  1.0000
  H   H10       1.0  0.7974000969933285  0.41887195346630085  0.9170503320931187  1.0000
  H   H11       1.0  0.7973964790479895  0.9188650401993924  0.582951370726988  1.0000
  H   H12       1.0  0.20260567859867257  0.5811353625056342  0.08295000981010499  1.0000
  H   H13       1.0  0.20434174434043234  0.8735862592082881  0.40000522473670225  1.0000
  H   H14       1.0  0.7956642984104222  0.6264195393638587  0.9000043314148767  1.0000
  H   H15       1.0  0.7956553773772937  0.126413209111611  0.5999957122059951  1.0000
  H   H16       1.0  0.20434404819688004  0.3735877680705855  0.09999422538351867  1.0000
  H   H17       1.0  0.504366839783458  0.0859240716927729  0.24565091924719698  1.0000
  H   H18       1.0  0.4956361719632979  0.4140803012148666  0.7456501228860188  1.0000
  H   H19       1.0  0.4956302819312341  0.9140753966249732  0.7543512077647634  1.0000
  H   H20       1.0  0.5043678477015661  0.5859230823897904  0.25435081405332477  1.0000
  H   H21       1.0  0.4034562196279623  0.09188723128502829  0.10588386533892447  1.0000
  H   H22       1.0  0.5965465620919802  0.40810977509769947  0.6058841877462129  1.0000
  H   H23       1.0  0.5965474445049493  0.9081095898352343  0.894117071601947  1.0000
  H   H24       1.0  0.40345243044117046  0.5918909997416506  0.3941161541608906  1.0000
  H   H25       1.0  0.8535049645165884  0.9810105878032332  0.1746248870205136  1.0000
  H   H26       1.0  0.14649215931989795  0.5189763703626369  0.6746251095614538  1.0000
  H   H27       1.0  0.14649238697924008  0.0189836288220917  0.8253754548885935  1.0000
  H   H28       1.0  0.8535053070657385  0.4810152204159338  0.32537463731353  1.0000
  H   H29       1.0  0.927815940927843  0.9562455557195622  0.3174474575003642  1.0000
  H   H30       1.0  0.07217929680852113  0.5437527030723929  0.8174453437259144  1.0000
  H   H31       1.0  0.07218106590158162  0.043756538448164406  0.6825534794418144  1.0000
  H   H32       1.0  0.9278186400018953  0.45624282434597757  0.18255261804416983  1.0000
  C   C1        1.0  0.7394844124346136  0.0999253925750025  0.4222803152185718  1.0000
  C   C2        1.0  0.2605191014171808  0.4000757098129171  0.922279696877588  1.0000
  C   C3        1.0  0.26051282417594723  0.9000714499003024  0.5777188366207466  1.0000
  C   C4        1.0  0.7394881894658665  0.5999263501994676  0.07771707481841618  1.0000
  C   C5        1.0  0.5667802184345021  0.24116368258824386  0.4349700568648983  1.0000
  C   C6        1.0  0.43322311598962676  0.2588399996365638  0.9349705624029736  1.0000
  C   C7        1.0  0.4332187740925946  0.7588370922467931  0.5650326651807304  1.0000
  C   C8        1.0  0.5667816038796402  0.7411620689143844  0.0650273993632311  1.0000
  C   C9        1.0  0.2670768002565822  0.011071094430263901  0.38042815115800716  1.0000
  C   C10       1.0  0.7329229550357254  0.4889327983564725  0.8804289343597986  1.0000
  C   C11       1.0  0.7329234777758983  0.9889296761344112  0.6195745708871526  1.0000
  C   C12       1.0  0.2670803644322959  0.5110719003072717  0.11957200257950969  1.0000
  C   C13       1.0  0.2240787701788918  0.021819659502838804  0.2937387592054462  1.0000
  C   C14       1.0  0.7759172139466626  0.4781779979205679  0.793738325456509  1.0000
  C   C15       1.0  0.7759164807233957  0.9781785022976166  0.7062627727728452  1.0000
  C   C16       1.0  0.2240837642917412  0.5218214575914784  0.20626082638088408  1.0000
  C   C17       1.0  0.3577310492953387  0.05988743692847719  0.23297852590008006  1.0000
  C   C18       1.0  0.6422671146535633  0.44011174731009106  0.7329782061763408  1.0000
  C   C19       1.0  0.6422673579292777  0.9401120271221403  0.7670218160075135  1.0000
  C   C20       1.0  0.3577326929662378  0.5598850866234104  0.26702154069667466  1.0000
  C   C21       1.0  0.3016896139845783  0.0634527208947944  0.1543958920701698  1.0000
  C   C22       1.0  0.6983140916384799  0.4365467311798312  0.6543943427848332  1.0000
  C   C23       1.0  0.6983133499484779  0.9365454152824028  0.8456062349399358  1.0000
  C   C24       1.0  0.30168864252705413  0.5634566566995004  0.3456042140164469  1.0000
  C   C25       1.0  0.9952850948285316  0.9998433101170148  0.1931375485874938  1.0000
  C   C26       1.0  0.00471427609308248  0.5001488240837233  0.6931372878686588  1.0000
  C   C27       1.0  0.0047152980937639  0.00015483460090590003  0.8068645784235497  1.0000
  C   C28       1.0  0.9952849462181845  0.49984669906104534  0.3068624590048471  1.0000
  C   C29       1.0  0.03835451363411119  0.9900561596737987  0.2725666936222523  1.0000
  C   C30       1.0  0.9616422378558483  0.5099422575688876  0.772565728475584  1.0000
  C   C31       1.0  0.9616420227720466  0.009941997855214902  0.727435433390198  1.0000
  C   C32       1.0  0.03835862549425436  0.4900598237909933  0.22743342336129044  1.0000
  Br  Br1       1.0  0.8038250725336625  0.7001163196733344  0.4609901417398844  1.0000
  Br  Br2       1.0  0.19613237444294637  0.7998618507997364  0.9609860429933973  1.0000
  Br  Br3       1.0  0.19618514489209815  0.2998922942827207  0.5390066299536469  1.0000
  Br  Br4       1.0  0.8038129606742074  0.20011678583209402  0.039009538660998495  1.0000
  N   N1        1.0  0.46617483035028323  0.08487313880522863  0.40081037885234844  1.0000
  N   N2        1.0  0.5338279776009998  0.4151319823287452  0.9008119342338359  1.0000
  N   N3        1.0  0.5338236917596008  0.9151236993954016  0.5991911531250265  1.0000
  N   N4        1.0  0.466175341868535  0.5848727163360863  0.09918840767084447  1.0000
  N   N5        1.0  0.5744176846407071  0.9921818700932192  0.39198994757385447  1.0000
  N   N6        1.0  0.4255846572449613  0.5078213445024105  0.89198937560689  1.0000
  N   N7        1.0  0.4255801372753679  0.0078162831686654  0.6080103943342363  1.0000
  N   N8        1.0  0.5744206479298198  0.4921820348351104  0.10800977622808007  1.0000
  N   N9        1.0  0.7410720820260365  0.2543066693473079  0.4494590835704172  1.0000
  N   N10       1.0  0.2589337497228499  0.24569695180507267  0.9494591272162081  1.0000
  N   N11       1.0  0.25893672412991  0.7456901346925803  0.5505412583339434  1.0000
  N   N12       1.0  0.7410695697512323  0.7543077468629916  0.05053942958458179  1.0000
  N   N13       1.0  0.12369502662564  0.034308013224858804  0.13450217057115305  1.0000
  N   N14       1.0  0.8763039828120823  0.46568365051405175  0.6345016686862974  1.0000
  N   N15       1.0  0.8763046661043531  0.9656914465553967  0.8654981713359714  1.0000
  N   N16       1.0  0.12369453930234187  0.5343131876898184  0.36549807818717983  1.0000
