data_image0
_chemical_formula_structural       Cs4H8C24N12O32
_chemical_formula_sum              "Cs4 H8 C24 N12 O32"
_cell_length_a       4.668746986504932
_cell_length_b       11.190725392046584
_cell_length_c       20.109915265114143
_cell_angle_alpha    89.99982835599647
_cell_angle_beta     90.19572725045987
_cell_angle_gamma    89.99971731161067

_space_group_name_H-M_alt    "P 1"
_space_group_IT_number       1

loop_
  _space_group_symop_operation_xyz
  'x, y, z'

loop_
  _atom_site_type_symbol
  _atom_site_label
  _atom_site_symmetry_multiplicity
  _atom_site_fract_x
  _atom_site_fract_y
  _atom_site_fract_z
  _atom_site_occupancy
  Cs  Cs1       1.0  0.9084399408613989  0.8609268150841699  0.1308606368754255  1.0000
  Cs  Cs2       1.0  0.591562213550766  0.36092674011614895  0.3691390139162252  1.0000
  Cs  Cs3       1.0  0.0915603745282141  0.13907433703133884  0.869138967693658  1.0000
  Cs  Cs4       1.0  0.40843810184413337  0.6390735184022418  0.6308605906536116  1.0000
  H   H1        1.0  0.6637842583347648  0.9644426698083423  0.3071034697225842  1.0000
  H   H2        1.0  0.836216671412174  0.4644430409371053  0.1928960078490363  1.0000
  H   H3        1.0  0.3362117729600128  0.035557588717154  0.6928951369781302  1.0000
  H   H4        1.0  0.16378364398273249  0.5355572175812854  0.8071035967207932  1.0000
  H   H5        1.0  0.0927305332365762  0.884393473051247  0.47832110168948105  1.0000
  H   H6        1.0  0.40726293471289665  0.38439283393593365  0.0216773097979086  1.0000
  H   H7        1.0  0.9072740661337804  0.1156049982671306  0.5216790034837189  1.0000
  H   H8        1.0  0.5927330972475602  0.6156092117771053  0.9783237832375348  1.0000
  C   C1        1.0  0.4256420435645438  0.8344360937232056  0.32829671157186624  1.0000
  C   C2        1.0  0.07435201529057171  0.3344335446989746  0.17170128624673  1.0000
  C   C3        1.0  0.5743539878654856  0.1655641648009478  0.6717023923960993  1.0000
  C   C4        1.0  0.9256483002448661  0.665565820220948  0.8282988155910971  1.0000
  C   C5        1.0  0.31987179816273675  0.7189397000865939  0.31654063044069153  1.0000
  C   C6        1.0  0.1801236272350479  0.2189359759705951  0.1834580579135761  1.0000
  C   C7        1.0  0.6801242331214681  0.2810623456331455  0.6834579762585307  1.0000
  C   C8        1.0  0.8198766881757109  0.7810616017564268  0.8165415466584989  1.0000
  C   C9        1.0  0.13524950751525466  0.6535713500148006  0.3624339624592565  1.0000
  C   C10       1.0  0.36474669108401503  0.15357017354115496  0.1375643380106411  1.0000
  C   C11       1.0  0.8647486658348668  0.3464280149100246  0.637565143176765  1.0000
  C   C12       1.0  0.6352493399296931  0.8464318721812703  0.8624332741540927  1.0000
  C   C13       1.0  0.05298114221827889  0.7246444184780715  0.4206615068601423  1.0000
  C   C14       1.0  0.4470163578740765  0.22464070562415364  0.079338168149846  1.0000
  C   C15       1.0  0.9470170315428842  0.27535405284560716  0.5793390905783582  1.0000
  C   C16       1.0  0.5529903835199121  0.7753622336762759  0.9206624359541706  1.0000
  C   C17       1.0  0.154058625178827  0.8377978037324141  0.4329987231461346  1.0000
  C   C18       1.0  0.3459375362255201  0.33779525942723865  0.0670007625161375  1.0000
  C   C19       1.0  0.845941690497149  0.1622006675890475  0.5670018759596829  1.0000
  C   C20       1.0  0.6540584954697265  0.6622058926913539  0.9329993359855635  1.0000
  C   C21       1.0  0.3356846035508029  0.8946600041507722  0.3877510048913635  1.0000
  C   C22       1.0  0.16430874294387368  0.3946584839018216  0.11224738941712789  1.0000
  C   C23       1.0  0.6643157121251733  0.10533846717068941  0.6122495942144539  1.0000
  C   C24       1.0  0.835687288751373  0.6053426682167781  0.8877527090845803  1.0000
  N   N1        1.0  0.3998860899400468  0.6598864158558797  0.2557081279477345  1.0000
  N   N2        1.0  0.10011431791806298  0.15988431581536133  0.24429066255741108  1.0000
  N   N3        1.0  0.600112083264257  0.34011473626452465  0.7442904804195507  1.0000
  N   N4        1.0  0.8998817132520357  0.8401141555172345  0.7557074468775653  1.0000
  N   N5        1.0  0.8744107254298963  0.6710150983670076  0.4709461324084074  1.0000
  N   N6        1.0  0.6255872501625886  0.17101410666072778  0.029054328440643897  1.0000
  N   N7        1.0  0.1256003005069672  0.32898158574244013  0.5290569613716941  1.0000
  N   N8        1.0  0.3744216332814574  0.8289888326361562  0.970946774597934  1.0000
  N   N9        1.0  0.4283443777749056  0.012303306378427702  0.402117314119451  1.0000
  N   N10       1.0  0.071651350209379  0.5123015728361366  0.09788122107638492  1.0000
  N   N11       1.0  0.5716516539203411  0.987697845740165  0.5978827843822501  1.0000
  N   N12       1.0  0.9283403975368427  0.48769689849685693  0.9021183768256903  1.0000
  O   O1        1.0  0.6131808492772918  0.8834104953755145  0.2870824609117619  1.0000
  O   O2        1.0  0.8868210388764126  0.38340886699169374  0.21291615772332756  1.0000
  O   O3        1.0  0.3868216080271337  0.11659065673778457  0.7129171453246386  1.0000
  O   O4        1.0  0.11317927652377337  0.6165904979295789  0.7870834468472553  1.0000
  O   O5        1.0  0.3924110583075304  0.7185887484210199  0.2027766270185083  1.0000
  O   O6        1.0  0.10759079684889629  0.21858545389033418  0.297221569657367  1.0000
  O   O7        1.0  0.6075871148967733  0.28141240369939174  0.797221981348777  1.0000
  O   O8        1.0  0.892413801855774  0.7814112302405006  0.7027760491811107  1.0000
  O   O9        1.0  0.4652927501705832  0.552216826012142  0.2576437739772858  1.0000
  O   O10       1.0  0.0347132152009877  0.052212190476154795  0.2423547027677202  1.0000
  O   O11       1.0  0.5347075648027086  0.44778611330163187  0.7423543387885729  1.0000
  O   O12       1.0  0.9652656806558965  0.9477853872770226  0.7576433933294879  1.0000
  O   O13       1.0  0.060259411471037076  0.5475497260427531  0.3539723593607462  1.0000
  O   O14       1.0  0.4397423260886555  0.047546562102830606  0.14602910546161502  1.0000
  O   O15       1.0  0.9397387620143434  0.45244963888072215  0.6460272435425196  1.0000
  O   O16       1.0  0.5602451366318277  0.9524483348581754  0.8539660137036265  1.0000
  O   O17       1.0  0.6753090376580246  0.6038901218333522  0.4535947109372954  1.0000
  O   O18       1.0  0.8246961586114165  0.10389130679457281  0.0464088508398177  1.0000
  O   O19       1.0  0.3247126989877671  0.3960976262830941  0.5464123693247984  1.0000
  O   O20       1.0  0.17532343558166016  0.8961187812561422  0.9535967359345392  1.0000
  O   O21       1.0  0.9272720593556016  0.6956996104487986  0.5303932790001511  1.0000
  O   O22       1.0  0.572732013770178  0.1956963516569488  0.9696063884291776  1.0000
  O   O23       1.0  0.0727389661226567  0.30430600963589427  0.4696083229707355  1.0000
  O   O24       1.0  0.4272768694668017  0.8042958644771547  0.030393720083878903  1.0000
  O   O25       1.0  0.3328279623554096  0.06692707795651388  0.4509730084834159  1.0000
  O   O26       1.0  0.1671628354274333  0.5669254109749958  0.0490249347050664  1.0000
  O   O27       1.0  0.6671680693451164  0.9330731805649537  0.549027090019031  1.0000
  O   O28       1.0  0.8328246283539185  0.4330730603637676  0.9509741625951377  1.0000
  O   O29       1.0  0.6141211760992816  0.060295638853965314  0.3637793776218103  1.0000
  O   O30       1.0  0.8858781091076934  0.5602948378351938  0.1362202739664866  1.0000
  O   O31       1.0  0.3858705717610462  0.9397064068661792  0.6362207175445178  1.0000
  O   O32       1.0  0.1141157808132789  0.43970542068714746  0.863780320135895  1.0000
