data_image0
_chemical_formula_structural       Li4H28C48O12
_chemical_formula_sum              "Li4 H28 C48 O12"
_cell_length_a       4.882209945089818
_cell_length_b       12.287315014276855
_cell_length_c       15.001701240569789
_cell_angle_alpha    99.69510327802773
_cell_angle_beta     90.00073270502797
_cell_angle_gamma    90.0000654728787

_space_group_name_H-M_alt    "P 1"
_space_group_IT_number       1

loop_
  _space_group_symop_operation_xyz
  'x, y, z'

loop_
  _atom_site_type_symbol
  _atom_site_label
  _atom_site_symmetry_multiplicity
  _atom_site_fract_x
  _atom_site_fract_y
  _atom_site_fract_z
  _atom_site_occupancy
  Li  Li1       1.0  0.9219348266633106  0.828704599262693  0.4975572381661094  1.0000
  Li  Li2       1.0  0.42194382868478897  0.671293291965107  0.5024382474259568  1.0000
  Li  Li3       1.0  0.0780637278136496  0.17129724368587065  0.5024392263329247  1.0000
  Li  Li4       1.0  0.5780690636417062  0.32870768930930444  0.4975620928338883  1.0000
  H   H1        1.0  0.9685216315316579  0.2813745230999061  0.7094894199574424  1.0000
  H   H2        1.0  0.46852595945309616  0.21863164217402434  0.2905162421910176  1.0000
  H   H3        1.0  0.031470778306179184  0.7186314058572165  0.2905122984080748  1.0000
  H   H4        1.0  0.5314889810954995  0.7813660426424248  0.7094829573937246  1.0000
  H   H5        1.0  0.051143502987613894  0.3088159394571761  0.8753119950875072  1.0000
  H   H6        1.0  0.5511468681804033  0.19118398008323112  0.12469183275222659  1.0000
  H   H7        1.0  0.9488448103172686  0.6911817273122908  0.12468920167692939  1.0000
  H   H8        1.0  0.44886807233016407  0.8088145483829834  0.8753054883333106  1.0000
  H   H9        1.0  0.7541733086153427  0.21196434941069242  0.9726832483081151  1.0000
  H   H10       1.0  0.25416064162024554  0.2880308523950247  0.027319347437234884  1.0000
  H   H11       1.0  0.2458170528860677  0.7880333414029723  0.027315285483183516  1.0000
  H   H12       1.0  0.745827671714366  0.711964319489752  0.9726834903589745  1.0000
  H   H13       1.0  0.3946599796753674  0.08374441921979069  0.9890939611694588  1.0000
  H   H14       1.0  0.8946450912430494  0.41624849075368087  0.010905511394334226  1.0000
  H   H15       1.0  0.605328333508737  0.91625164440088  0.010901672173069676  1.0000
  H   H16       1.0  0.10533298078050278  0.5837400821965062  0.9890957107673372  1.0000
  H   H17       1.0  0.033491892794167206  0.9505446276211557  0.9228968157722974  1.0000
  H   H18       1.0  0.5334947315624702  0.5494552939410867  0.0770994700258214  1.0000
  H   H19       1.0  0.9664984686244935  0.04945061639395479  0.07709803309629139  1.0000
  H   H20       1.0  0.4665079195465438  0.45054649491283527  0.9229029861801976  1.0000
  H   H21       1.0  0.9788941480718806  0.9080040786503359  0.7552974899677094  1.0000
  H   H22       1.0  0.47890422939970984  0.5919988170917917  0.24470026727320965  1.0000
  H   H23       1.0  0.021104406374419692  0.09199446783914307  0.24469783385214328  1.0000
  H   H24       1.0  0.5211189042618187  0.40800792547820913  0.7553029013760761  1.0000
  H   H25       1.0  0.45329273290979444  0.9529143212542193  0.5916039020575709  1.0000
  H   H26       1.0  0.9532952291603677  0.5470926262445842  0.40839967242224157  1.0000
  H   H27       1.0  0.5466914838856597  0.04709658544623349  0.408395865716649  1.0000
  H   H28       1.0  0.04670332545465071  0.45290584811569085  0.5916036403293247  1.0000
  C   C1        1.0  0.6485986762146111  0.163967033643182  0.7105013080046161  1.0000
  C   C2        1.0  0.14859523471972122  0.33603794709875945  0.2895036219050198  1.0000
  C   C3        1.0  0.3513875888243803  0.8360364304796946  0.2894987226588341  1.0000
  C   C4        1.0  0.8514176575479978  0.6639597497380976  0.7104942461870108  1.0000
  C   C5        1.0  0.8496397947195221  0.23498985578250853  0.7517782635258284  1.0000
  C   C6        1.0  0.3496466156961803  0.26501123667379295  0.24822487937949936  1.0000
  C   C7        1.0  0.1503403256231763  0.7650119270482209  0.2482248583794515  1.0000
  C   C8        1.0  0.6503560354368078  0.7349897145411289  0.751778789581408  1.0000
  C   C9        1.0  0.8926100616192797  0.25148722208244584  0.8458215650343701  1.0000
  C   C10       1.0  0.39260874523353806  0.24851884141980918  0.15418579079811678  1.0000
  C   C11       1.0  0.10737825173861638  0.7485153863702648  0.154181675621011  1.0000
  C   C12       1.0  0.6073877610245403  0.751481332260397  0.8458124334623134  1.0000
  C   C13       1.0  0.7293858218384698  0.19758797511300225  0.899275238915628  1.0000
  C   C14       1.0  0.22937017026195863  0.3024138403528838  0.1007242131131889  1.0000
  C   C15       1.0  0.27059634668093924  0.8024154950183802  0.10072412599532751  1.0000
  C   C16       1.0  0.7706181429096971  0.6975797464154068  0.89927106402817  1.0000
  C   C17       1.0  0.5275623058285817  0.1211423371923033  0.8601661595738079  1.0000
  C   C18       1.0  0.0275649971078096  0.37885513959114536  0.13983056032928687  1.0000
  C   C19       1.0  0.4724382968870842  0.8788595117681552  0.1398296391850167  1.0000
  C   C20       1.0  0.9724478952797567  0.6211383690507261  0.8601733715372362  1.0000
  C   C21       1.0  0.3618720215544399  0.0658937936619921  0.9161988759656337  1.0000
  C   C22       1.0  0.8618643819447628  0.434107366376324  0.0837983241233999  1.0000
  C   C23       1.0  0.6381244846301257  0.9341113757983665  0.08379540048694882  1.0000
  C   C24       1.0  0.1381362209230161  0.565891107985081  0.916204988632259  1.0000
  C   C25       1.0  0.16299184526349822  0.9921467912160579  0.8797962218180969  1.0000
  C   C26       1.0  0.6629942925864967  0.507855713982103  0.12020493246069458  1.0000
  C   C27       1.0  0.8370067092639388  0.007856684935134698  0.12020247738130509  1.0000
  C   C28       1.0  0.33700835854809696  0.4921427543696666  0.8797990460433665  1.0000
  C   C29       1.0  0.12956846266631317  0.9686507520619118  0.7853783903946832  1.0000
  C   C30       1.0  0.6295729463221421  0.5313459249250485  0.21462313059507918  1.0000
  C   C31       1.0  0.8704218988069742  0.0313469507732904  0.21461881190799653  1.0000
  C   C32       1.0  0.37043380137260584  0.46865500224906503  0.7853832013512657  1.0000
  C   C33       1.0  0.2913158812803189  0.018832614726065303  0.7278745565225861  1.0000
  C   C34       1.0  0.791314341364469  0.481171727881275  0.27212749660012037  1.0000
  C   C35       1.0  0.7086724319146211  0.9811684086101524  0.2721211234779446  1.0000
  C   C36       1.0  0.2086965027406009  0.5188242756441568  0.7278747942305441  1.0000
  C   C37       1.0  0.490259492413557  0.10019111565618029  0.7636125135149  1.0000
  C   C38       1.0  0.9902602151137787  0.3998142720198814  0.2363904538357247  1.0000
  C   C39       1.0  0.5097370140058571  0.8998131260036714  0.23639296185722708  1.0000
  C   C40       1.0  0.009740387696154998  0.6001867092477439  0.7636098863995427  1.0000
  C   C41       1.0  0.5799781380136011  0.171716375965282  0.614086101404453  1.0000
  C   C42       1.0  0.07998488605880992  0.32828775155724804  0.3859131094534334  1.0000
  C   C43       1.0  0.42001631993801414  0.8282871302374772  0.3859092690652162  1.0000
  C   C44       1.0  0.920038247569522  0.6717123860730467  0.6140891093260947  1.0000
  C   C45       1.0  0.2617389415533112  0.9733790339959115  0.6301381793915652  1.0000
  C   C46       1.0  0.7617315343839479  0.526619500121228  0.3698574500914872  1.0000
  C   C47       1.0  0.7382596129012882  0.026621163728492506  0.36985738189572  1.0000
  C   C48       1.0  0.23828545459856804  0.47338058941954125  0.6301500946302241  1.0000
  O   O1        1.0  0.7443761902948012  0.2215543142717209  0.5687576078090899  1.0000
  O   O2        1.0  0.24437851179866496  0.27845245942284436  0.4312439480866103  1.0000
  O   O3        1.0  0.2556285090471562  0.7784491378397931  0.4312437543798353  1.0000
  O   O4        1.0  0.7556528147595714  0.721542748550256  0.5687548953297323  1.0000
  O   O5        1.0  0.34745978128220406  0.13526502106237362  0.5842369837347547  1.0000
  O   O6        1.0  0.8474597541674171  0.3647427220112718  0.41576177435523215  1.0000
  O   O7        1.0  0.6525346767687593  0.8647442344087962  0.41576254659249656  1.0000
  O   O8        1.0  0.15255313818143176  0.6352599044872917  0.5842394691163619  1.0000
  O   O9        1.0  0.037888740185572096  0.9391492316946141  0.5976994838463979  1.0000
  O   O10       1.0  0.5378828403314629  0.5608473561784137  0.4023003390463272  1.0000
  O   O11       1.0  0.962107766065131  0.0608550820944487  0.4022980025940156  1.0000
  O   O12       1.0  0.4621218589821368  0.4391420424039296  0.5977010019022941  1.0000
