data_image0
_chemical_formula_structural       Zn4H56C84N14O22
_chemical_formula_sum              "Zn4 H56 C84 N14 O22"
_cell_length_a       16.4795546276943
_cell_length_b       17.82958131518798
_cell_length_c       28.979552793873314
_cell_angle_alpha    90.20016599166885
_cell_angle_beta     89.57929886338611
_cell_angle_gamma    90.00732733241045

_space_group_name_H-M_alt    "P 1"
_space_group_IT_number       1

loop_
  _space_group_symop_operation_xyz
  'x, y, z'

loop_
  _atom_site_type_symbol
  _atom_site_label
  _atom_site_symmetry_multiplicity
  _atom_site_fract_x
  _atom_site_fract_y
  _atom_site_fract_z
  _atom_site_occupancy
  Zn  Zn1       1.0  0.5875615910003943  0.5063273604373036  0.49710918036249296  1.0000
  Zn  Zn2       1.0  0.4187876184912441  0.5087852278199139  0.49978884445314253  1.0000
  Zn  Zn3       1.0  0.4190660367171403  0.5077695078414025  0.8805477136149733  1.0000
  Zn  Zn4       1.0  0.587869928547171  0.5106979932391766  0.881852891058635  1.0000
  H   H1        1.0  0.2881918647876631  0.5925891088865782  0.5534214242209217  1.0000
  H   H2        1.0  0.13579490493911087  0.5910671837307435  0.5564862683872178  1.0000
  H   H3        1.0  0.2939473701639557  0.4244745759364578  0.4544910545368879  1.0000
  H   H4        1.0  0.7151673381109733  0.585846639065899  0.5479381489840165  1.0000
  H   H5        1.0  0.7155487773893084  0.42010423381707085  0.4476135640984893  1.0000
  H   H6        1.0  0.8683254788189815  0.4134535911287287  0.4470919601750368  1.0000
  H   H7        1.0  0.6362931575465963  0.7468074180928427  0.5041183028280186  1.0000
  H   H8        1.0  0.6325024164579742  0.8872403041416917  0.5052354438274946  1.0000
  H   H9        1.0  0.37614326434052  0.7410835578213268  0.4990652309488438  1.0000
  H   H10       1.0  0.6263774781129996  0.26754050518377437  0.49940896105133686  1.0000
  H   H11       1.0  0.3665566274072063  0.2738667612592706  0.5086272382442942  1.0000
  H   H12       1.0  0.3623700230110174  0.13335910739678522  0.5097427470890992  1.0000
  H   H13       1.0  0.3674211753546004  0.5037958666409067  0.0248518906892627  1.0000
  H   H14       1.0  0.360153367922969  0.5052989296658057  0.11131092354622749  1.0000
  H   H15       1.0  0.6273057208156984  0.5110553779878588  0.030522633506102195  1.0000
  H   H16       1.0  0.3669272257157346  0.5008393501506845  0.35360855838905547  1.0000
  H   H17       1.0  0.6269673536040656  0.5104816046207361  0.3503694075790235  1.0000
  H   H18       1.0  0.6247949117484096  0.5112151962177052  0.2638783221977263  1.0000
  H   H19       1.0  0.7161587453862168  0.5891444433741597  0.8269214182322173  1.0000
  H   H20       1.0  0.868940580352863  0.5882845393764031  0.8223379415999756  1.0000
  H   H21       1.0  0.7147989167430993  0.4279189631416855  0.9292882767709187  1.0000
  H   H22       1.0  0.290193400961236  0.5884733123092901  0.8292633346796379  1.0000
  H   H23       1.0  0.29254953230897485  0.42021076261286794  0.9273539206397174  1.0000
  H   H24       1.0  0.13979775874777536  0.412935587677147  0.9285840657581373  1.0000
  H   H25       1.0  0.36668696453522637  0.7443646503897698  0.8795435676772029  1.0000
  H   H26       1.0  0.36497900246254744  0.8847840490196789  0.8773132660374542  1.0000
  H   H27       1.0  0.6270869831453537  0.7467886749867816  0.8762582049094476  1.0000
  H   H28       1.0  0.37664155392773324  0.2733248679003141  0.8723254487187473  1.0000
  H   H29       1.0  0.6367706068303461  0.27125973953013743  0.8768795742174829  1.0000
  H   H30       1.0  0.6355902773289799  0.13067319336432356  0.8748091933534923  1.0000
  H   H31       1.0  0.0720042919025587  0.4045263522731659  0.4446106545668016  1.0000
  H   H32       1.0  0.1656264923965267  0.3730448206265748  0.4244707424848925  1.0000
  H   H33       1.0  0.9364388145155899  0.5889655923262113  0.5638132556427778  1.0000
  H   H34       1.0  0.8447982534291681  0.6234471635195292  0.5835161035104264  1.0000
  H   H35       1.0  0.3562952131279076  0.9454806233121428  0.49497952972286186  1.0000
  H   H36       1.0  0.3056325165843816  0.8618368501618294  0.49046306636304837  1.0000
  H   H37       1.0  0.6355588802596372  0.062112317580073295  0.4972201436735801  1.0000
  H   H38       1.0  0.6911958249241151  0.1435665565434192  0.493035906413354  1.0000
  H   H39       1.0  0.6318786847072031  0.5009850133761518  0.15684911475075575  1.0000
  H   H40       1.0  0.6895170208240557  0.49783607595956186  0.10740064378068577  1.0000
  H   H41       1.0  0.34898799352616544  0.4941636715674992  0.2276178931572304  1.0000
  H   H42       1.0  0.29715964510825194  0.4876209250599358  0.27893255405711403  1.0000
  H   H43       1.0  0.9370782474353093  0.4112468258393705  0.9379085872950199  1.0000
  H   H44       1.0  0.8447618958471848  0.3811707472319199  0.9599723560574631  1.0000
  H   H45       1.0  0.0693154897056161  0.5897878510509859  0.8138199875614873  1.0000
  H   H46       1.0  0.1606720622008453  0.6235824796862628  0.7935108940018478  1.0000
  H   H47       1.0  0.6391490322341085  0.9520510112943298  0.880409926297979  1.0000
  H   H48       1.0  0.693621472128477  0.8702996486417761  0.8840333069051594  1.0000
  H   H49       1.0  0.3591280808894908  0.06855453428472202  0.8763553708264453  1.0000
  H   H50       1.0  0.306562075097041  0.1517255504487096  0.8779135343566438  1.0000
  H   H51       1.0  0.3845499001175625  0.5326448573242433  0.6116297258194479  1.0000
  H   H52       1.0  0.38399413256939857  0.5319416804420315  0.7689723673761577  1.0000
  H   H53       1.0  0.603650038216955  0.4063769704560017  0.5786016624463669  1.0000
  H   H54       1.0  0.6954173683145156  0.28285508423169864  0.6085665025743126  1.0000
  H   H55       1.0  0.698805075110407  0.28710626501154474  0.7697472370154159  1.0000
  H   H56       1.0  0.6064060363783668  0.41130645140336963  0.7998476440904129  1.0000
  C   C1        1.0  0.5063051818522126  0.6524754858682158  0.5011909332426399  1.0000
  C   C2        1.0  0.5063240010829946  0.4915788677486788  0.5915500898698411  1.0000
  C   C3        1.0  0.4999985049972793  0.3615888757439763  0.500747886106339  1.0000
  C   C4        1.0  0.4975222982686914  0.5049281654849194  0.4082818681608913  1.0000
  C   C5        1.0  0.49883832612699297  0.6542111505313954  0.8785429874805075  1.0000
  C   C6        1.0  0.5061966534975114  0.49307368794308093  0.7878897080657835  1.0000
  C   C7        1.0  0.5057189669473203  0.36326264674389114  0.878124226654485  1.0000
  C   C8        1.0  0.5022811069443377  0.506825196351791  0.9714564504681035  1.0000
  C   C9        1.0  0.25272058494904576  0.5546080426317561  0.5320636430540446  1.0000
  C   C10       1.0  0.1687658111742465  0.5534026788559032  0.5334039363470922  1.0000
  C   C11       1.0  0.1256571044429364  0.5036909924063124  0.5047489015449642  1.0000
  C   C12       1.0  0.1707430065871307  0.45466932541328486  0.4752071838814871  1.0000
  C   C13       1.0  0.2558175964817763  0.4600690200953678  0.47640928858660897  1.0000
  C   C14       1.0  0.04025810781308079  0.5018511838084264  0.5040646684636982  1.0000
  C   C15       1.0  0.966293112346335  0.4982458020347666  0.5009515874556882  1.0000
  C   C16       1.0  0.8808941994227767  0.49919456385910616  0.49963543120485804  1.0000
  C   C17       1.0  0.8372666482680273  0.5493070832222032  0.5291999522670991  1.0000
  C   C18       1.0  0.7520913294671486  0.548586778719674  0.5264218682759463  1.0000
  C   C19       1.0  0.7525149830856392  0.4555501082021181  0.46976713201492964  1.0000
  C   C20       1.0  0.8363924784685539  0.45230829840744496  0.4698958671086544  1.0000
  C   C21       1.0  0.505920784082285  0.7363708890997175  0.5018767282714478  1.0000
  C   C22       1.0  0.5789318904425116  0.7770136327889717  0.503572446930761  1.0000
  C   C23       1.0  0.5764934686605018  0.854739362890193  0.5041339295184173  1.0000
  C   C24       1.0  0.5021091558359743  0.8940081929575713  0.5033388863698676  1.0000
  C   C25       1.0  0.42805005389737966  0.8525995353560492  0.501564126223407  1.0000
  C   C26       1.0  0.4317505824340344  0.7741263333644993  0.5006602104400457  1.0000
  C   C27       1.0  0.4992391137792466  0.973036600678995  0.5039841025725947  1.0000
  C   C28       1.0  0.49176740070703323  0.04149361186390621  0.5047820715570026  1.0000
  C   C29       1.0  0.49219040399101743  0.12055605639150713  0.5050487352915027  1.0000
  C   C30       1.0  0.5684900136554061  0.15851818282520475  0.5027663992927032  1.0000
  C   C31       1.0  0.5690753742033436  0.23705655785401805  0.5012017654318868  1.0000
  C   C32       1.0  0.49700192160131007  0.27791899291374034  0.5027538465221753  1.0000
  C   C33       1.0  0.42194317153893474  0.2407942369454616  0.5063747254727318  1.0000
  C   C34       1.0  0.420045070946884  0.16309778571115882  0.5072327984186416  1.0000
  C   C35       1.0  0.5003435916420358  0.4698127438255427  0.7390186008632681  1.0000
  C   C36       1.0  0.5596698419964172  0.4237307854509354  0.7146185284264347  1.0000
  C   C37       1.0  0.43389513932731916  0.49893453859551334  0.7147124012888142  1.0000
  C   C38       1.0  0.6125832885183158  0.3734059704050878  0.7373826017321149  1.0000
  C   C39       1.0  0.6640522689166913  0.3243802783644654  0.7132312746566285  1.0000
  C   C40       1.0  0.5001217651051633  0.46894214911887383  0.6404420919519467  1.0000
  C   C41       1.0  0.433990476573861  0.49889731759331823  0.6653422509808138  1.0000
  C   C42       1.0  0.5591397647264955  0.42284928967712443  0.6644322888123638  1.0000
  C   C43       1.0  0.6109725562883315  0.37119466642578663  0.6413598313454685  1.0000
  C   C44       1.0  0.6630857376829695  0.323143079034395  0.6651727371377305  1.0000
  C   C45       1.0  0.49806756621202913  0.506658733555355  0.023145238116349297  1.0000
  C   C46       1.0  0.4221683131699052  0.5051310912455449  0.04560513563577471  1.0000
  C   C47       1.0  0.418556541636015  0.5059506499500657  0.09338332382339588  1.0000
  C   C48       1.0  0.4898332594592389  0.507635151711675  0.1200827220814489  1.0000
  C   C49       1.0  0.5669218194297371  0.5091680274611506  0.0972223861372825  1.0000
  C   C50       1.0  0.5692920288852149  0.5088661436862197  0.0488577700961059  1.0000
  C   C51       1.0  0.48749837021619413  0.5074247560814841  0.1687313652724072  1.0000
  C   C52       1.0  0.49285360485259844  0.5072513235169468  0.2109205797211686  1.0000
  C   C53       1.0  0.4944606575014489  0.5069206749763637  0.2595684322370602  1.0000
  C   C54       1.0  0.41999059595256943  0.5042650714803615  0.28497442464531275  1.0000
  C   C55       1.0  0.4229022855209833  0.502760130393078  0.33329835438335914  1.0000
  C   C56       1.0  0.4967286989654625  0.5049468325199272  0.3565515928249212  1.0000
  C   C57       1.0  0.5700831032144578  0.5082478080873758  0.3315864170383023  1.0000
  C   C58       1.0  0.5684691565708065  0.5089070296240905  0.283792058288789  1.0000
  C   C59       1.0  0.7528622213042766  0.5532657102523331  0.8487901874073884  1.0000
  C   C60       1.0  0.8367658607487556  0.55217666736921  0.8465475933381583  1.0000
  C   C61       1.0  0.881030126556695  0.5044288450068493  0.8756482966897111  1.0000
  C   C62       1.0  0.837179730722724  0.45725947793615535  0.9066827463965481  1.0000
  C   C63       1.0  0.7520555205619813  0.462557036470983  0.9064768817013018  1.0000
  C   C64       1.0  0.9664653743495393  0.502637970564244  0.8751113315650086  1.0000
  C   C65       1.0  0.04057129233758161  0.49908434427133136  0.8769118433978136  1.0000
  C   C66       1.0  0.12601301947805874  0.4997898278660244  0.8772060198260263  1.0000
  C   C67       1.0  0.16892635394828656  0.5502617170417707  0.8477578075808053  1.0000
  C   C68       1.0  0.25413038841696783  0.5500046276507149  0.8502856655638524  1.0000
  C   C69       1.0  0.2550486311400277  0.45568074844111806  0.9056668213449585  1.0000
  C   C70       1.0  0.17118382128570886  0.452283730094642  0.9060256547896016  1.0000
  C   C71       1.0  0.4973573089603676  0.7380629852376119  0.8777371875356151  1.0000
  C   C72       1.0  0.4228123703489928  0.7764547078646943  0.8782044447062844  1.0000
  C   C73       1.0  0.4222380561889664  0.8541537830104462  0.8771230199363628  1.0000
  C   C74       1.0  0.49515107064137  0.8956613100846484  0.8759511551469075  1.0000
  C   C75       1.0  0.5708382994980353  0.8565899243822701  0.8758880057123191  1.0000
  C   C76       1.0  0.5701698628699745  0.7779943911223131  0.8766162741868371  1.0000
  C   C77       1.0  0.49574801044943234  0.9747021910639406  0.8751665432726269  1.0000
  C   C78       1.0  0.5033189927014164  0.043125683636027604  0.8742573660289708  1.0000
  C   C79       1.0  0.5052255024504291  0.1221365570326327  0.8737385778446837  1.0000
  C   C80       1.0  0.43042683874877957  0.16245210550312808  0.8725686855741728  1.0000
  C   C81       1.0  0.43276974029404164  0.2410110268340873  0.8735786778443212  1.0000
  C   C82       1.0  0.50630106191921  0.2795614087312758  0.8759366079814369  1.0000
  C   C83       1.0  0.5800645619957194  0.24001119428472617  0.8762085087057585  1.0000
  C   C84       1.0  0.5790182416000107  0.16234868846989775  0.8749024440256361  1.0000
  N   N1        1.0  0.2947068704316251  0.5084470140383885  0.5036920485903451  1.0000
  N   N2        1.0  0.7118436312711224  0.5033580702616761  0.4977554065752584  1.0000
  N   N3        1.0  0.7120567130935598  0.5090535717136291  0.8786785247295439  1.0000
  N   N4        1.0  0.2950145045078756  0.5044035040174037  0.8781672785360826  1.0000
  N   N5        1.0  0.1331683878981025  0.40417790513179613  0.4471837501445818  1.0000
  N   N6        1.0  0.8766389141113322  0.5977592455191996  0.5580022962746584  1.0000
  N   N7        1.0  0.3546808352308091  0.8898809507506868  0.5023159884614117  1.0000
  N   N8        1.0  0.6395115798123429  0.11798118524133369  0.5034578699055103  1.0000
  N   N9        1.0  0.6370214313969811  0.5137963591863725  0.1228559287895692  1.0000
  N   N10       1.0  0.34703545929362895  0.5060988906891809  0.2618738753631646  1.0000
  N   N11       1.0  0.8760492930991006  0.407891737325194  0.9348136495730797  1.0000
  N   N12       1.0  0.12915616163582652  0.5988350820829496  0.819432823958948  1.0000
  N   N13       1.0  0.6425201857374461  0.8963048742781157  0.8734408037418929  1.0000
  N   N14       1.0  0.35806718019931344  0.12416604702761454  0.8691129171978318  1.0000
  O   O1        1.0  0.5738655246205228  0.6190590237388495  0.50714681031846  1.0000
  O   O2        1.0  0.43824051568486067  0.6200876238627446  0.494573772782708  1.0000
  O   O3        1.0  0.44257381698627535  0.5185798097371546  0.5717282664532632  1.0000
  O   O4        1.0  0.5745325994517145  0.48801107092921814  0.569689687408143  1.0000
  O   O5        1.0  0.43361755097046023  0.3965899947084496  0.508251128681934  1.0000
  O   O6        1.0  0.5681825386094703  0.3924878468290416  0.49179419611193237  1.0000
  O   O7        1.0  0.5658113812434848  0.5158098703825119  0.42762773862633446  1.0000
  O   O8        1.0  0.4300112620415248  0.4945644199647888  0.4291335936170029  1.0000
  O   O9        1.0  0.43114153516356873  0.6208120482397489  0.8845119537419207  1.0000
  O   O10       1.0  0.5674573876410208  0.6218597974942882  0.8732964774383658  1.0000
  O   O11       1.0  0.5745812707469895  0.491918922178769  0.8090010058597983  1.0000
  O   O12       1.0  0.44158264601479397  0.5182059428787369  0.8083942671461273  1.0000
  O   O13       1.0  0.5725679640823104  0.39645445029231047  0.8867995283285239  1.0000
  O   O14       1.0  0.43805149155625134  0.39603313940612844  0.8711870634882715  1.0000
  O   O15       1.0  0.43575101778392883  0.49607235555111373  0.9502112628389554  1.0000
  O   O16       1.0  0.5713732561630637  0.5179115607173089  0.9525421316629447  1.0000
  O   O17       1.0  0.3712270628832926  0.5347246884462323  0.6459740428056122  1.0000
  O   O18       1.0  0.3706793319541788  0.5342850445851255  0.7347425257685314  1.0000
  O   O19       1.0  0.6119349916797602  0.35717154564821396  0.5946543864193217  1.0000
  O   O20       1.0  0.7101820853405201  0.27361445222454256  0.6408945336991039  1.0000
  O   O21       1.0  0.7122857562300452  0.27623735697734025  0.7372558125744675  1.0000
  O   O22       1.0  0.615427784266366  0.36161243904490464  0.7841988332827867  1.0000
