data_image0
_chemical_formula_structural       Ag2H28C24S2N6O6
_chemical_formula_sum              "Ag2 H28 C24 S2 N6 O6"
_cell_length_a       5.661524307705299
_cell_length_b       8.852579297379185
_cell_length_c       14.341040958842608
_cell_angle_alpha    73.68878470682179
_cell_angle_beta     88.2694507519134
_cell_angle_gamma    74.52286590742627

_space_group_name_H-M_alt    "P 1"
_space_group_IT_number       1

loop_
  _space_group_symop_operation_xyz
  'x, y, z'

loop_
  _atom_site_type_symbol
  _atom_site_label
  _atom_site_symmetry_multiplicity
  _atom_site_fract_x
  _atom_site_fract_y
  _atom_site_fract_z
  _atom_site_occupancy
  Ag  Ag1       1.0  0.0720625370151424  0.1168214882830796  0.0463891032091794  1.0000
  Ag  Ag2       1.0  0.9279181952748417  0.8832026970971543  0.9536066995790049  1.0000
  H   H1        1.0  0.8280971438934729  0.8668804313232245  0.30437523406027367  1.0000
  H   H2        1.0  0.17190210198959482  0.1331143806603876  0.6956226291453118  1.0000
  H   H3        1.0  0.7386805381743287  0.6806184135161005  0.4573442941886156  1.0000
  H   H4        1.0  0.2613114229006186  0.3193630397740322  0.5426469343012598  1.0000
  H   H5        1.0  0.988305794113465  0.9715662160060038  0.42747927959106136  1.0000
  H   H6        1.0  0.011704598620113398  0.028409021791880207  0.5725190431807831  1.0000
  H   H7        1.0  0.07869468951111712  0.1620218274462317  0.2763996268933865  1.0000
  H   H8        1.0  0.9213170237434268  0.8379777746299981  0.7236104727337462  1.0000
  H   H9        1.0  0.10264668999023731  0.7168179399112946  0.5516239079523472  1.0000
  H   H10       1.0  0.8973790148373838  0.2831498849838354  0.4483782756873466  1.0000
  H   H11       1.0  0.3625542046562061  0.7277556431516103  0.6126506903956184  1.0000
  H   H12       1.0  0.6374738844093031  0.2722328950522979  0.3873401819818056  1.0000
  H   H13       1.0  0.39249381130546357  0.5738513804814858  0.5536711189258198  1.0000
  H   H14       1.0  0.60752871255162  0.4261335326926315  0.44632604280923255  1.0000
  H   H15       1.0  0.1369287404675035  0.5699565087581747  0.725710661019839  1.0000
  H   H16       1.0  0.8630535645526437  0.43005059280011443  0.2743006455990269  1.0000
  H   H17       1.0  0.8369564555845628  0.5088653830607228  0.6262264270624696  1.0000
  H   H18       1.0  0.16304186274376786  0.49116356687357404  0.3737689917126303  1.0000
  H   H19       1.0  0.5977581937612655  0.30959664140321064  0.7085773930081912  1.0000
  H   H20       1.0  0.40223485223862804  0.6904274690650994  0.2914126680873252  1.0000
  H   H21       1.0  0.5196376032814526  0.1343153856658006  0.8613582886870004  1.0000
  H   H22       1.0  0.4803384761664447  0.865702732292867  0.13864142643276273  1.0000
  H   H23       1.0  0.614867990161791  0.15212893186363632  0.9660096593094564  1.0000
  H   H24       1.0  0.3851338891121117  0.8478817117503115  0.033984712212635736  1.0000
  H   H25       1.0  0.22252086953498212  0.39703748983212256  0.9892539786657506  1.0000
  H   H26       1.0  0.7774702823160946  0.6029695560931715  0.010756513708820054  1.0000
  H   H27       1.0  0.2833272849428852  0.5403021479251963  0.8846958509048404  1.0000
  H   H28       1.0  0.7166771609757774  0.45971578966453563  0.11530488425486136  1.0000
  C   C1        1.0  0.4611744432977645  0.029995149083745797  0.28397926338193  1.0000
  C   C2        1.0  0.5388115668674303  0.9700070519678049  0.7160342381324014  1.0000
  C   C3        1.0  0.6465345744156039  0.8930416885098823  0.3336057902241406  1.0000
  C   C4        1.0  0.35347147440334226  0.1069494212787774  0.6663961068211461  1.0000
  C   C5        1.0  0.5941174026988422  0.7880484086453521  0.41921732687280405  1.0000
  C   C6        1.0  0.4058697870236188  0.2119318534939084  0.5807783611892177  1.0000
  C   C7        1.0  0.3582325651522069  0.8156702663537773  0.45568127259363667  1.0000
  C   C8        1.0  0.6417820677877941  0.18431225825897  0.5443171152994424  1.0000
  C   C9        1.0  0.1749879106883014  0.9513566016143787  0.4027622807303146  1.0000
  C   C10       1.0  0.82501324702249  0.0486333219805175  0.59723640630272  1.0000
  C   C11       1.0  0.2241983598028838  0.059067432147848806  0.31773081359490607  1.0000
  C   C12       1.0  0.7758045585646015  0.9409224806809676  0.6822671528013087  1.0000
  C   C13       1.0  0.30099617199165596  0.702601583229523  0.5477955341847005  1.0000
  C   C14       1.0  0.699015894303585  0.29737364740744004  0.4521964900707616  1.0000
  C   C15       1.0  0.05974225647797477  0.40852944675835096  0.8595806673045557  1.0000
  C   C16       1.0  0.9402533495813188  0.5914702630281213  0.14041918441524356  1.0000
  C   C17       1.0  0.030465111114395354  0.48452867943603206  0.7579803482214087  1.0000
  C   C18       1.0  0.9695424831141821  0.5154721712266479  0.24202331713809846  1.0000
  C   C19       1.0  0.8653316162931188  0.44897375192712025  0.7042585012856575  1.0000
  C   C20       1.0  0.13468855435525023  0.5510355533665533  0.2957421172890804  1.0000
  C   C21       1.0  0.7319097526803446  0.33771334453260954  0.7489772609611123  1.0000
  C   C22       1.0  0.26809418262075724  0.6623058165062403  0.2510211765368949  1.0000
  C   C23       1.0  0.777939471217337  0.2627026351872317  0.8481790417970885  1.0000
  C   C24       1.0  0.22206076591028537  0.7373031429221015  0.1518155031212416  1.0000
  S   S1        1.0  0.5290310866655973  0.1669659963293526  0.17635290065371115  1.0000
  S   S2        1.0  0.4709742689493623  0.8330360871965896  0.8236512793857499  1.0000
  N   N1        1.0  0.9385051673916536  0.2954494245558905  0.9024607769835669  1.0000
  N   N2        1.0  0.061480495638683276  0.7045576622299169  0.09753862983748714  1.0000
  N   N3        1.0  0.21426050668369356  0.44312144878809084  0.9153807013869723  1.0000
  N   N4        1.0  0.7857372739132061  0.5568819021525898  0.08462266906816746  1.0000
  N   N5        1.0  0.6665530997108038  0.1403386123283283  0.8985518809600279  1.0000
  N   N6        1.0  0.3334394330014733  0.8596733099170849  0.10144170437961002  1.0000
  O   O1        1.0  0.2910954831245648  0.2641316666133662  0.12520611214278426  1.0000
  O   O2        1.0  0.7089018521760407  0.7358729050725544  0.8747991440603327  1.0000
  O   O3        1.0  0.6634960139558004  0.26698258796557184  0.20673067872828443  1.0000
  O   O4        1.0  0.3365150021794462  0.7330097048623402  0.793279308973865  1.0000
  O   O5        1.0  0.6800350594731981  0.05996800979209382  0.1211626954529876  1.0000
  O   O6        1.0  0.31995647235290653  0.9400378180918382  0.878841727763941  1.0000
