data_image0
_chemical_formula_structural       Na4P4H32C12O24
_chemical_formula_sum              "Na4 P4 H32 C12 O24"
_cell_length_a       6.0161933628002675
_cell_length_b       9.534652261015147
_cell_length_c       12.405349984839825
_cell_angle_alpha    90.00015418153912
_cell_angle_beta     92.28275234880692
_cell_angle_gamma    90.00012972338672

_space_group_name_H-M_alt    "P 1"
_space_group_IT_number       1

loop_
  _space_group_symop_operation_xyz
  'x, y, z'

loop_
  _atom_site_type_symbol
  _atom_site_label
  _atom_site_symmetry_multiplicity
  _atom_site_fract_x
  _atom_site_fract_y
  _atom_site_fract_z
  _atom_site_occupancy
  Na  Na1       1.0  0.0300762143096662  0.9840774527314623  0.3571686693117683  1.0000
  Na  Na2       1.0  0.4699181161931847  0.4840748731490193  0.1428305509698404  1.0000
  Na  Na3       1.0  0.9699219834822372  0.0159258537328313  0.6428312904716477  1.0000
  Na  Na4       1.0  0.5300851211675378  0.5159221404789989  0.8571671118627646  1.0000
  P   P1        1.0  0.42560843494086237  0.721755627486921  0.35553650639488404  1.0000
  P   P2        1.0  0.07438531924953648  0.22177871931616977  0.1444412159382651  1.0000
  P   P3        1.0  0.5743947037810173  0.2782445325675482  0.6444659909222066  1.0000
  P   P4        1.0  0.9256145255150157  0.7782214407329563  0.8555595896875159  1.0000
  H   H1        1.0  0.31827182430204454  0.6253242596029764  0.4232212360447391  1.0000
  H   H2        1.0  0.18172441089115665  0.1253262830252808  0.07677973146967078  1.0000
  H   H3        1.0  0.6817296674431788  0.37467694925476996  0.5767804154277909  1.0000
  H   H4        1.0  0.8182770972908598  0.8746728282191327  0.9232211142538063  1.0000
  H   H5        1.0  0.6683415616184617  0.46793230757979387  0.4307586758558414  1.0000
  H   H6        1.0  0.8316564872143245  0.9679300818111047  0.06924154836168127  1.0000
  H   H7        1.0  0.331654956311155  0.5320699500787498  0.5692420495745552  1.0000
  H   H8        1.0  0.16833505688764205  0.032066931812551  0.9307582510199947  1.0000
  H   H9        1.0  0.7516802811794319  0.48474343466686065  0.2959200322203514  1.0000
  H   H10       1.0  0.7483178484197095  0.9847384293742534  0.20407942140214888  1.0000
  H   H11       1.0  0.24831791661247138  0.5152598717974327  0.7040799275630646  1.0000
  H   H12       1.0  0.2516769731987765  0.015258584256180503  0.7959228754177088  1.0000
  H   H13       1.0  0.8491625666308593  0.7016354140775292  0.23454536723709646  1.0000
  H   H14       1.0  0.6508311527731436  0.2016349246494187  0.26545341416849055  1.0000
  H   H15       1.0  0.1508356147162218  0.2983657947763021  0.7654553982909958  1.0000
  H   H16       1.0  0.3491653980360852  0.7983662842003058  0.7345456997670821  1.0000
  H   H17       1.0  0.9513676611005834  0.5046207367370315  0.40282615626623647  1.0000
  H   H18       1.0  0.5486335885948677  0.0046142562759428005  0.09717402513162197  1.0000
  H   H19       1.0  0.04863383064463989  0.4953804721207149  0.5971754952062935  1.0000
  H   H20       1.0  0.4513595860489658  0.9953848549637176  0.9028274258447695  1.0000
  H   H21       1.0  0.7759858869174535  0.7274167978543035  0.6448962885131804  1.0000
  H   H22       1.0  0.7240219283913376  0.2274104398262438  0.855107390560981  1.0000
  H   H23       1.0  0.22402224207689156  0.27259070384551615  0.3551063291079544  1.0000
  H   H24       1.0  0.27598621701773846  0.7725834273948209  0.1448944212990355  1.0000
  H   H25       1.0  0.5449939001015522  0.012661189514211899  0.3739980925765493  1.0000
  H   H26       1.0  0.9550024065534046  0.5126593403125952  0.12600117959679116  1.0000
  H   H27       1.0  0.4550043141271445  0.987340019336756  0.6260010614578134  1.0000
  H   H28       1.0  0.0449958241120925  0.4873397709250397  0.873997168688504  1.0000
  H   H29       1.0  0.6624498833395335  0.12102089371745713  0.45080374072526996  1.0000
  H   H30       1.0  0.8375468215381046  0.6210217507136163  0.04919656379519919  1.0000
  H   H31       1.0  0.3375483144503661  0.8789813639408877  0.5491962190570447  1.0000
  H   H32       1.0  0.16244971282630158  0.37897736052564573  0.9508033558850426  1.0000
  C   C1        1.0  0.7969901358572924  0.7449053764215137  0.4914018809964061  1.0000
  C   C2        1.0  0.7030070924133299  0.2449082338820858  0.008596265347790706  1.0000
  C   C3        1.0  0.2030030387925663  0.25509688123598545  0.5085995699832748  1.0000
  C   C4        1.0  0.29699780837488987  0.7550929749709637  0.9914014375879956  1.0000
  C   C5        1.0  0.7315046803927457  0.6831367557497572  0.3814187177298151  1.0000
  C   C6        1.0  0.7684955725735065  0.1831338067655466  0.11858260262530247  1.0000
  C   C7        1.0  0.2684968771137122  0.3168634042963063  0.6185797107541615  1.0000
  C   C8        1.0  0.2315076483464011  0.8168632068639071  0.8814158659541673  1.0000
  C   C9        1.0  0.777456719596138  0.5257361801795497  0.3778587222341514  1.0000
  C   C10       1.0  0.7225396206516662  0.025734228341242702  0.12214138302783788  1.0000
  C   C11       1.0  0.22254478858989293  0.4742650286767613  0.622142123491521  1.0000
  C   C12       1.0  0.2774568972679105  0.9742627852875642  0.877859342397073  1.0000
  O   O1        1.0  0.36777269938558277  0.6835662555682448  0.23890570913201967  1.0000
  O   O2        1.0  0.1322251590369063  0.18356257801737996  0.2611083122183756  1.0000
  O   O3        1.0  0.6322304722159089  0.31643285567740514  0.76109517669024  1.0000
  O   O4        1.0  0.8677763327143281  0.8164417772582055  0.7388933392574442  1.0000
  O   O5        1.0  0.3754809492575646  0.8700746507185001  0.3932641794303392  1.0000
  O   O6        1.0  0.12450121882900328  0.3700599205015465  0.10673855048331397  1.0000
  O   O7        1.0  0.6245139545689823  0.1299244605166621  0.6067340886573829  1.0000
  O   O8        1.0  0.8754953648558228  0.629938141927468  0.8932589519552322  1.0000
  O   O9        1.0  0.8489512379238561  0.7588541930876714  0.30249094584899433  1.0000
  O   O10       1.0  0.6510392585051932  0.25884926498213195  0.1975135152360252  1.0000
  O   O11       1.0  0.1510486068426999  0.24114701576739608  0.697509859777888  1.0000
  O   O12       1.0  0.3489623318768622  0.7411477486432219  0.802483301750925  1.0000
  O   O13       1.0  0.7234951764987867  0.6741278541826645  0.5749426447897574  1.0000
  O   O14       1.0  0.7765057647780079  0.1741249671247473  0.9250615682040503  1.0000
  O   O15       1.0  0.27650628235878827  0.3258702082601062  0.4250606181732123  1.0000
  O   O16       1.0  0.2235007336524006  0.8258689000936384  0.07493939781031138  1.0000
  O   O17       1.0  0.9056899726249694  0.8541197302457634  0.5007028431648521  1.0000
  O   O18       1.0  0.5943017426601784  0.3541116100397019  0.9992982826350312  1.0000
  O   O19       1.0  0.0942982117744933  0.1458867226318148  0.49929848752284994  1.0000
  O   O20       1.0  0.4057065835998158  0.6458833059715374  0.000694666010559798  1.0000
  O   O21       1.0  0.6530904853985786  0.09193841021028962  0.3745265430654711  1.0000
  O   O22       1.0  0.846901068611295  0.5919406027830123  0.12547599758450897  1.0000
  O   O23       1.0  0.3469060325310308  0.908063847448254  0.6254741823649252  1.0000
  O   O24       1.0  0.153097145613394  0.4080585084560582  0.874523156447651  1.0000
