data_image0
_chemical_formula_structural       Gd4H28C36S6O32
_chemical_formula_sum              "Gd4 H28 C36 S6 O32"
_cell_length_a       5.8140011729186725
_cell_length_b       12.91021385596028
_cell_length_c       15.75532222964224
_cell_angle_alpha    81.6000065499235
_cell_angle_beta     79.39610373087726
_cell_angle_gamma    76.99474996150627

_space_group_name_H-M_alt    "P 1"
_space_group_IT_number       1

loop_
  _space_group_symop_operation_xyz
  'x, y, z'

loop_
  _atom_site_type_symbol
  _atom_site_label
  _atom_site_symmetry_multiplicity
  _atom_site_fract_x
  _atom_site_fract_y
  _atom_site_fract_z
  _atom_site_occupancy
  Gd  Gd1       1.0  0.5279994768695103  0.15238527581010436  0.11010605408559118  1.0000
  Gd  Gd2       1.0  0.790811421890943  0.34776214413507506  0.3899366411570354  1.0000
  Gd  Gd3       1.0  0.47199640701951023  0.8476158133953434  0.889894242080281  1.0000
  Gd  Gd4       1.0  0.2091854623492108  0.6522389513031756  0.6100644068664778  1.0000
  H   H1        1.0  0.36894027379101857  0.5107972968837587  0.8133862063813592  1.0000
  H   H2        1.0  0.6931529837901561  0.9886881642274903  0.6866124378888613  1.0000
  H   H3        1.0  0.6310533585246033  0.48920541898246467  0.1866172289614028  1.0000
  H   H4        1.0  0.3068447958103135  0.011312909274735702  0.3133859548367396  1.0000
  H   H5        1.0  0.44576648103328165  0.3245452560249903  0.9125312158872844  1.0000
  H   H6        1.0  0.6835547406934167  0.17492786401997054  0.5875733433781674  1.0000
  H   H7        1.0  0.5542300347595553  0.6754558279460527  0.08746844579849265  1.0000
  H   H8        1.0  0.3164509115545682  0.8250699863263121  0.41242241290430565  1.0000
  H   H9        1.0  0.258056005509303  0.8470317671638626  0.20578508864888076  1.0000
  H   H10       1.0  0.3108005593565934  0.6530914066854692  0.2942423493721122  1.0000
  H   H11       1.0  0.7419341051325998  0.15297177461958003  0.7942214437937805  1.0000
  H   H12       1.0  0.6892030375397834  0.3469128927254559  0.7057589843369527  1.0000
  H   H13       1.0  0.8290052012420049  0.04372557427564771  0.9449799331985315  1.0000
  H   H14       1.0  0.8177513958745378  0.4564145373258128  0.5552454078321742  1.0000
  H   H15       1.0  0.17099648106486115  0.9562763072013427  0.055019370839261166  1.0000
  H   H16       1.0  0.1822499305703856  0.5435889551087385  0.44475513194224436  1.0000
  H   H17       1.0  0.558132775699562  0.08096946612158012  0.9350009892186433  1.0000
  H   H18       1.0  0.5743049676916737  0.4190723878468249  0.5649601303327002  1.0000
  H   H19       1.0  0.44186709700862503  0.9190300255903098  0.06499969230343787  1.0000
  H   H20       1.0  0.4256937324398464  0.5809319085689141  0.43504085124370556  1.0000
  H   H21       1.0  0.07836813036570327  0.18581758164571485  0.23291693034422414  1.0000
  H   H22       1.0  0.4974295737404121  0.31412789738106994  0.2670903608440369  1.0000
  H   H23       1.0  0.9216263060792681  0.8141803180494522  0.7670848186064844  1.0000
  H   H24       1.0  0.5025686730055127  0.6858724045448029  0.7329115143376723  1.0000
  H   H25       1.0  0.061028261021014794  0.08905367994093182  0.1824762300841485  1.0000
  H   H26       1.0  0.3327319090411434  0.4108895643317752  0.31744526037800813  1.0000
  H   H27       1.0  0.9389708810852256  0.9109466000489166  0.8175229897996414  1.0000
  H   H28       1.0  0.6672638824424268  0.5891131191296212  0.6825542507066656  1.0000
  C   C1        1.0  0.9907959723715651  0.5222130504116436  0.8633121835956885  1.0000
  C   C2        1.0  0.3757247331073679  0.9777090972902088  0.6367901745205273  1.0000
  C   C3        1.0  0.009196193621953149  0.4777840423071569  0.13668877142038127  1.0000
  C   C4        1.0  0.6242779369652708  0.022291167994822603  0.36320725930055175  1.0000
  C   C5        1.0  0.23165568859495525  0.47392482762385396  0.855199861230801  1.0000
  C   C6        1.0  0.5606941984356264  0.0257392158645828  0.6448827279965171  1.0000
  C   C7        1.0  0.768336115243926  0.5260730648401194  0.14480101848471347  1.0000
  C   C8        1.0  0.4393138229619421  0.9742586584145058  0.35511591833896716  1.0000
  C   C9        1.0  0.27124057015794273  0.37575341481911556  0.907791132319687  1.0000
  C   C10       1.0  0.5550511077664594  0.12394925868697021  0.5923434165591246  1.0000
  C   C11       1.0  0.7287564001949746  0.6242452751508056  0.09220938974784328  1.0000
  C   C12       1.0  0.4449555385399714  0.8760477866797204  0.4076517805438086  1.0000
  C   C13       1.0  0.06095038998281399  0.34995324724616245  0.9545886286432574  1.0000
  C   C14       1.0  0.36553900984605997  0.15002211545841965  0.5455730921563173  1.0000
  C   C15       1.0  0.9390468438266024  0.6500454260221461  0.04540987260644871  1.0000
  C   C16       1.0  0.6344702627737745  0.8499741259270834  0.45442166314463595  1.0000
  C   C17       1.0  0.034618457013756675  0.25324434622954334  0.014987641806889895  1.0000
  C   C18       1.0  0.3033013683014972  0.2467679153340967  0.48516905703389296  1.0000
  C   C19       1.0  0.9653866620285496  0.7467527263075839  0.9850108450740506  1.0000
  C   C20       1.0  0.6966974977628693  0.7532307589326025  0.5148295615933731  1.0000
  C   C21       1.0  0.879809354346257  0.6277534506675835  0.8232549304768566  1.0000
  C   C22       1.0  0.3302488560406329  0.8721684897443893  0.6767601159092534  1.0000
  C   C23       1.0  0.1201853518478941  0.3722452435383516  0.17674610869321575  1.0000
  C   C24       1.0  0.6697529186716904  0.12783179747665943  0.3232399732097376  1.0000
  C   C25       1.0  0.8862015009042209  0.8388679282999976  0.20805936461483296  1.0000
  C   C26       1.0  0.9329895581365971  0.661302218941664  0.29195465315363117  1.0000
  C   C27       1.0  0.11379465273398615  0.16113395541621864  0.7919402217703888  1.0000
  C   C28       1.0  0.06701637644594172  0.33869804834014877  0.7080430154225538  1.0000
  C   C29       1.0  0.11817858119896829  0.8010291659536221  0.22627249015956605  1.0000
  C   C30       1.0  0.1453616690159194  0.6991104169693898  0.27376006067544256  1.0000
  C   C31       1.0  0.8818347168216576  0.19897673370360283  0.7737287627336114  1.0000
  C   C32       1.0  0.8546438310590716  0.30088828945970664  0.726242434617582  1.0000
  C   C33       1.0  0.7831217853179805  0.9401443940498312  0.16107034502840625  1.0000
  C   C34       1.0  0.8841029850240926  0.5600257610400236  0.33887304457581274  1.0000
  C   C35       1.0  0.2168803578416599  0.05985590463841823  0.838931130428321  1.0000
  C   C36       1.0  0.11590494396802607  0.43997370749500675  0.6611248166784802  1.0000
  S   S1        1.0  0.8156840027401486  0.44780951075932757  0.9359992832811058  1.0000
  S   S2        1.0  0.1989575046686341  0.05238042587278361  0.5641113542074832  1.0000
  S   S3        1.0  0.18431078956676544  0.5521867779782783  0.06400122993297687  1.0000
  S   S4        1.0  0.801045521265955  0.9476182284546866  0.43588484387696974  1.0000
  S   S5        1.0  0.7059247841545184  0.7501098450882681  0.24998957734446486  1.0000
  S   S6        1.0  0.29407969669128387  0.249886421470876  0.7500082329793827  1.0000
  O   O1        1.0  0.8248421927272886  0.2456515156278769  0.053272295511696696  1.0000
  O   O2        1.0  0.12409346611776324  0.2546023202991208  0.44685696230546756  1.0000
  O   O3        1.0  0.1751459844470629  0.7543471745844813  0.946728274148164  1.0000
  O   O4        1.0  0.8758998838633045  0.7453979786315728  0.5531445607435825  1.0000
  O   O5        1.0  0.22396915252759433  0.18326210370637605  0.025346932042033598  1.0000
  O   O6        1.0  0.4335722557244208  0.316581200727967  0.4748140517846195  1.0000
  O   O7        1.0  0.7760269098796394  0.816734985774801  0.9746536232490468  1.0000
  O   O8        1.0  0.5664261683652326  0.6834214899646156  0.5251863285352485  1.0000
  O   O9        1.0  0.6827576840910367  0.6750266847210825  0.863642901146491  1.0000
  O   O10       1.0  0.22077448147251025  0.8248896180018338  0.6363269506523108  1.0000
  O   O11       1.0  0.31723548854630196  0.3249712254429016  0.13636011676440765  1.0000
  O   O12       1.0  0.779223758980727  0.1751098727116585  0.3636736134922174  1.0000
  O   O13       1.0  0.9844760895442091  0.6676649234381459  0.751010252387111  1.0000
  O   O14       1.0  0.40294921902781744  0.8321717017206397  0.7489660735857624  1.0000
  O   O15       1.0  0.015517714996938943  0.3323329814914331  0.24899213104369264  1.0000
  O   O16       1.0  0.5970498369656526  0.16783098373753802  0.25103367225401735  1.0000
  O   O17       1.0  0.5627040365145246  0.9585103440846086  0.15143161293257623  1.0000
  O   O18       1.0  0.6724258551436006  0.5416866870411071  0.34849731608509416  1.0000
  O   O19       1.0  0.43730092288761585  0.0414931618139391  0.8485705479346775  1.0000
  O   O20       1.0  0.3275837123961478  0.4583135937047018  0.6515019735839258  1.0000
  O   O21       1.0  0.908795112683258  0.01171220384078  0.13156383818913753  1.0000
  O   O22       1.0  0.05184306694013687  0.48838264725289804  0.3683825066833889  1.0000
  O   O23       1.0  0.0912125591450489  0.9882880926082509  0.8684373549201536  1.0000
  O   O24       1.0  0.9481713847791015  0.5116160140633284  0.631614513043935  1.0000
  O   O25       1.0  0.6748841892119797  0.08444365877767268  0.9721012866365155  1.0000
  O   O26       1.0  0.7315713146689763  0.4157716092983109  0.5279360148290734  1.0000
  O   O27       1.0  0.3251134193374411  0.9155558371702242  0.027899911988100694  1.0000
  O   O28       1.0  0.2684274715753146  0.5842302816491057  0.4720644407913496  1.0000
  O   O29       1.0  0.16958351002698877  0.11993389044523893  0.20802590762504986  1.0000
  O   O30       1.0  0.4977093379367684  0.3800605428592265  0.2920008516952634  1.0000
  O   O31       1.0  0.8304130981712985  0.8800655992698553  0.7919745391419254  1.0000
  O   O32       1.0  0.5022901726167815  0.6199397485978296  0.7079997545262626  1.0000
