data_image0
_chemical_formula_structural       Zn6H28C48O20
_chemical_formula_sum              "Zn6 H28 C48 O20"
_cell_length_a       12.06696392511197
_cell_length_b       13.71523464110394
_cell_length_c       13.715233216641806
_cell_angle_alpha    85.06563716293073
_cell_angle_beta     86.79784758012627
_cell_angle_gamma    86.79790622065373

_space_group_name_H-M_alt    "P 1"
_space_group_IT_number       1

loop_
  _space_group_symop_operation_xyz
  'x, y, z'

loop_
  _atom_site_type_symbol
  _atom_site_label
  _atom_site_symmetry_multiplicity
  _atom_site_fract_x
  _atom_site_fract_y
  _atom_site_fract_z
  _atom_site_occupancy
  Zn  Zn1       1.0  7.796710831796307e-08  0.9999997429557579  0.9999999758329849  1.0000
  Zn  Zn2       1.0  0.4999999578450058  0.9999995713952784  2.112332921732802e-07  1.0000
  Zn  Zn3       1.0  0.2500004999925949  0.916741491455326  0.08326041580077967  1.0000
  Zn  Zn4       1.0  0.2499999331818472  0.08034204978572745  0.9196581170059942  1.0000
  Zn  Zn5       1.0  0.7499995051814067  0.08325930232449248  0.9167422989131496  1.0000
  Zn  Zn6       1.0  0.7500018569775407  0.9196565578113151  0.08034249728012806  1.0000
  H   H1        1.0  0.1578966037458684  0.9106065190788755  0.9166309453913469  1.0000
  H   H2        1.0  0.1862908930854132  0.9522726750460606  0.38048616548832825  1.0000
  H   H3        1.0  0.855141635226829  0.9935229865507366  0.2777733463731238  1.0000
  H   H4        1.0  0.2183800720707936  0.9681018036847391  0.5560778059388127  1.0000
  H   H5        1.0  0.1016817112514801  0.7319532758468908  0.9003671352384472  1.0000
  H   H6        1.0  0.1775769992961217  0.5629126076121692  0.8759382888291041  1.0000
  H   H7        1.0  0.8368064491864473  0.6179583781172013  0.09167687389918198  1.0000
  H   H8        1.0  0.3421049646220382  0.08336976571359142  0.08939548054613768  1.0000
  H   H9        1.0  0.3137071564122635  0.6195138784893286  0.0477291917497666  1.0000
  H   H10       1.0  0.6448552652986166  0.7222287405066438  0.006478816742493576  1.0000
  H   H11       1.0  0.2816160011186851  0.4439221957510213  0.031897471585509186  1.0000
  H   H12       1.0  0.3983197655760832  0.09963045792324009  0.268046289777743  1.0000
  H   H13       1.0  0.3224252167394965  0.12406087971470468  0.43708707757269843  1.0000
  H   H14       1.0  0.6631946119072721  0.9083202191973  0.3820421755220166  1.0000
  H   H15       1.0  0.8421050972280992  0.0893935527938083  0.08337027904359928  1.0000
  H   H16       1.0  0.8137065226970748  0.04772957313318217  0.6195158391874143  1.0000
  H   H17       1.0  0.1448558279007486  0.006478528847182499  0.7222287176980726  1.0000
  H   H18       1.0  0.7816149800361245  0.0318982375613075  0.4439223277965567  1.0000
  H   H19       1.0  0.8983191379712849  0.2680467970237713  0.09963121933505897  1.0000
  H   H20       1.0  0.8224271743601718  0.43708748057181873  0.12406061109418691  1.0000
  H   H21       1.0  0.16319521875900733  0.38204170147757566  0.908319976897367  1.0000
  H   H22       1.0  0.6578958956102311  0.9166303045830445  0.9106043319068319  1.0000
  H   H23       1.0  0.6862912146234306  0.38048617935705653  0.952270758395656  1.0000
  H   H24       1.0  0.3551423343594777  0.27777057783429626  0.9935226965753399  1.0000
  H   H25       1.0  0.7183814873349733  0.5560785920136269  0.9681017361222145  1.0000
  H   H26       1.0  0.6016802175789095  0.9003703410046382  0.7319535091772593  1.0000
  H   H27       1.0  0.6775756016524355  0.8759399220762486  0.5629134044245419  1.0000
  H   H28       1.0  0.3368062483249973  0.09167985109933595  0.617957636930953  1.0000
  C   C1        1.0  0.07025923158151669  0.9527772924979913  0.21883584926097638  1.0000
  C   C2        1.0  0.02601374828580561  0.9716553658182432  0.31976579606711647  1.0000
  C   C3        1.0  0.0979168794274727  0.9690806225282669  0.3953809089361115  1.0000
  C   C4        1.0  0.058235087930832215  0.9883495860520453  0.49109906163145206  1.0000
  C   C5        1.0  0.9106100155418843  0.9936442473892413  0.33776202626443547  1.0000
  C   C6        1.0  0.1300404976302545  0.9861289953685455  0.5700195273895685  1.0000
  C   C7        1.0  0.9176816212031722  0.7865403494229922  0.009342227306376584  1.0000
  C   C8        1.0  0.9636442129180195  0.6843517841944686  0.9971845193679696  1.0000
  C   C9        1.0  0.06102393872377121  0.6685765534574128  0.9362335817333828  1.0000
  C   C10       1.0  0.10261327859890909  0.5749585993402561  0.922567770494467  1.0000
  C   C11       1.0  0.9107883930202901  0.6049619951602593  0.044306000504505505  1.0000
  C   C12       1.0  0.0489060494598021  0.4921901723450615  0.968744488450028  1.0000
  C   C13       1.0  0.4297407265881859  0.781166872810864  0.047224463060757706  1.0000
  C   C14       1.0  0.4739848361998397  0.6802334716624397  0.028345312888035264  1.0000
  C   C15       1.0  0.4020798127027447  0.6046193270300009  0.03092126922001626  1.0000
  C   C16       1.0  0.4417616317300385  0.5089008800720193  0.01165231028121381  1.0000
  C   C17       1.0  0.5893862712157798  0.662239840916193  0.006357426498254882  1.0000
  C   C18       1.0  0.3699576971647646  0.4299795342684191  0.013871811503079794  1.0000
  C   C19       1.0  0.5823202864725373  0.9906554429391289  0.2134587914479979  1.0000
  C   C20       1.0  0.536359196107206  0.002813669696791999  0.3156472688279521  1.0000
  C   C21       1.0  0.43897943068348866  0.0637642727094203  0.3314228910272519  1.0000
  C   C22       1.0  0.39739032023014437  0.0774319325378769  0.42504078563634096  1.0000
  C   C23       1.0  0.5892120152330379  0.955691774023897  0.39503770162874463  1.0000
  C   C24       1.0  0.4510967221742561  0.031254904389434984  0.5078087844913242  1.0000
  C   C25       1.0  0.9297416561745206  0.047222771363571794  0.7811676078906513  1.0000
  C   C26       1.0  0.9739837930176947  0.0283446878780538  0.6802341999757998  1.0000
  C   C27       1.0  0.9020789660760541  0.0309201530751722  0.6046205773857807  1.0000
  C   C28       1.0  0.9417599696808379  0.011650453906987896  0.508901801043649  1.0000
  C   C29       1.0  0.08938587730673217  0.0063557954328600985  0.6622395194529176  1.0000
  C   C30       1.0  0.8699554370586995  0.013870315959238199  0.42998134878349953  1.0000
  C   C31       1.0  0.08232178438259298  0.21345827677033918  0.9906524636669188  1.0000
  C   C32       1.0  0.03635837944980119  0.3156468339877279  0.002812404322007496  1.0000
  C   C33       1.0  0.9389793886860716  0.3314235344375333  0.06376317726819988  1.0000
  C   C34       1.0  0.8973908895526319  0.42504149013073794  0.07743040048909217  1.0000
  C   C35       1.0  0.0892133277750062  0.3950373503661736  0.9556916386272291  1.0000
  C   C36       1.0  0.951098171541574  0.5078091830575886  0.031254470868716966  1.0000
  C   C37       1.0  0.570256001497377  0.2188331728743051  0.9527777656988403  1.0000
  C   C38       1.0  0.5260144229226354  0.31976585497866944  0.971656108634825  1.0000
  C   C39       1.0  0.5979185275021095  0.3953814597366686  0.9690808083491544  1.0000
  C   C40       1.0  0.5582368086697471  0.4910984398449683  0.9883506150185893  1.0000
  C   C41       1.0  0.4106112447616396  0.3377609404133749  0.9936454259081345  1.0000
  C   C42       1.0  0.6300407377302762  0.570019786935589  0.9861303848569918  1.0000
  C   C43       1.0  0.4176797440275379  0.009344623207425694  0.7865410669024513  1.0000
  C   C44       1.0  0.4636416167799735  0.9971871333811676  0.6843524842295565  1.0000
  C   C45       1.0  0.5610213877084433  0.9362365290815331  0.6685775909699885  1.0000
  C   C46       1.0  0.6026113642295668  0.9225681431958532  0.5749582519794103  1.0000
  C   C47       1.0  0.41078718553484345  0.04430828797256939  0.6049622026191912  1.0000
  C   C48       1.0  0.5489033501661565  0.9687444302628021  0.49219040431485434  1.0000
  O   O1        1.0  0.1636837660776536  0.9593350435232535  0.9633904882785557  1.0000
  O   O2        1.0  0.0030222755586991165  0.9509335950020555  0.15170447540604207  1.0000
  O   O3        1.0  0.17686817062722326  0.9394118284046585  0.2079795908086908  1.0000
  O   O4        1.0  0.8286290364155063  0.7945683983169827  0.06531181884123778  1.0000
  O   O5        1.0  0.9665346546912943  0.8572722787517649  0.9635535455326192  1.0000
  O   O6        1.0  0.33631655166981017  0.03661117487009589  0.040665471978790904  1.0000
  O   O7        1.0  0.4969756794743744  0.8482953519204628  0.04906718431055878  1.0000
  O   O8        1.0  0.32312856498605663  0.7920205222803531  0.06059162884645988  1.0000
  O   O9        1.0  0.6713745193142701  0.9346873263568081  0.20543142515435156  1.0000
  O   O10       1.0  0.5334667360599424  0.0364430471922077  0.1427273474563933  1.0000
  O   O11       1.0  0.8363171525092099  0.0406642914180253  0.036610841449331084  1.0000
  O   O12       1.0  0.9969760954769952  0.049066462844329785  0.8482954747393803  1.0000
  O   O13       1.0  0.8231293343406918  0.060588955498943185  0.792021803718228  1.0000
  O   O14       1.0  0.17137262052043667  0.20543168385182745  0.9346835740758548  1.0000
  O   O15       1.0  0.03346954429107999  0.14272708179895227  0.036442498027199094  1.0000
  O   O16       1.0  0.6636834898397695  0.9633888887024256  0.9593358442511286  1.0000
  O   O17       1.0  0.5030235212935067  0.15170471007601086  0.9509327199373843  1.0000
  O   O18       1.0  0.676870668810345  0.20797953199402738  0.9394126490398661  1.0000
  O   O19       1.0  0.32862481798412085  0.06531053858267909  0.7945679283402214  1.0000
  O   O20       1.0  0.4665325120530285  0.9635562820229352  0.8572726161870036  1.0000
