data_image0
_chemical_formula_structural       Cu4H16C26N4O10
_chemical_formula_sum              "Cu4 H16 C26 N4 O10"
_cell_length_a       8.025994442478988
_cell_length_b       8.02604083467451
_cell_length_c       12.291701352827339
_cell_angle_alpha    83.82738639091552
_cell_angle_beta     83.8270198446112
_cell_angle_gamma    61.65234395412656

_space_group_name_H-M_alt    "P 1"
_space_group_IT_number       1

loop_
  _space_group_symop_operation_xyz
  'x, y, z'

loop_
  _atom_site_type_symbol
  _atom_site_label
  _atom_site_symmetry_multiplicity
  _atom_site_fract_x
  _atom_site_fract_y
  _atom_site_fract_z
  _atom_site_occupancy
  Cu  Cu1       1.0  0.11549464017498677  0.0082367191842181  0.6734089358596906  1.0000
  Cu  Cu2       1.0  0.9917668834981798  0.8845023800330835  0.826595902173196  1.0000
  Cu  Cu3       1.0  0.8844927722966531  0.9917649591113218  0.326588749675068  1.0000
  Cu  Cu4       1.0  0.00824019140291201  0.11548912980737919  0.17340764198451106  1.0000
  H   H1        1.0  0.05708827895331582  0.38148070316863414  0.7032310929859094  1.0000
  H   H2        1.0  0.6185267253507195  0.9429083772645227  0.7967727335467744  1.0000
  H   H3        1.0  0.9429123829594345  0.6185193569653579  0.29677149133277686  1.0000
  H   H4        1.0  0.3814744946777253  0.05709873680411451  0.20322363482652864  1.0000
  H   H5        1.0  0.35519260055378515  0.5333032308670695  0.43286046559845204  1.0000
  H   H6        1.0  0.46669048859891393  0.6448139257661298  0.0671424850281426  1.0000
  H   H7        1.0  0.6448265472076214  0.4666810555274452  0.5671435601721981  1.0000
  H   H8        1.0  0.5332999581916129  0.3551975769647839  0.9328526932446055  1.0000
  H   H9        1.0  0.4175589536311861  0.23554045466454449  0.3468346330697329  1.0000
  H   H10       1.0  0.7644546105259092  0.5824490907573935  0.15317147802984724  1.0000
  H   H11       1.0  0.5824462488331859  0.7644496756225864  0.6531683201171532  1.0000
  H   H12       1.0  0.23553200394560042  0.4175652741762192  0.846827834456896  1.0000
  H   H13       1.0  0.2879245441824949  0.027351526272518405  0.44566926161172665  1.0000
  H   H14       1.0  0.9726490441816934  0.7120789620064085  0.05433825524924881  1.0000
  H   H15       1.0  0.7120647693560896  0.972648705871329  0.5543316470264942  1.0000
  H   H16       1.0  0.027340115363124164  0.2879325335950823  0.9456659607934771  1.0000
  C   C1        1.0  0.15919827570608902  0.6491448132599303  0.6342386953978619  1.0000
  C   C2        1.0  0.3508612884617932  0.8407974050327738  0.8657615479105801  1.0000
  C   C3        1.0  0.8408233242721581  0.35084507397121456  0.3657647791664545  1.0000
  C   C4        1.0  0.6491360775832149  0.1592154038898954  0.1342338809084964  1.0000
  C   C5        1.0  0.13756483247567533  0.35237306407541513  0.624279095967353  1.0000
  C   C6        1.0  0.6476254051973954  0.8624394685569287  0.8757270447876166  1.0000
  C   C7        1.0  0.8624377777097011  0.6476227427253605  0.3757228325591769  1.0000
  C   C8        1.0  0.3523726783679563  0.13756628198333232  0.1242696315995246  1.0000
  C   C9        1.0  0.20293987274082784  0.4774750219496156  0.57534558294752  1.0000
  C   C10       1.0  0.522526733361815  0.7970604120022386  0.9246590986321196  1.0000
  C   C11       1.0  0.797072244334167  0.5225164098983939  0.4246592485427528  1.0000
  C   C12       1.0  0.4774726165518431  0.20294532482851219  0.0753358648918336  1.0000
  C   C13       1.0  0.30401188615696384  0.4372570643807663  0.47335349363737583  1.0000
  C   C14       1.0  0.5627419860416792  0.6959924492875942  0.026650780557467613  1.0000
  C   C15       1.0  0.6960015305404209  0.5627315326835786  0.5266506293652783  1.0000
  C   C16       1.0  0.4372522791362672  0.3040161773479965  0.9733451467724736  1.0000
  C   C17       1.0  0.3358022304042693  0.2742898387717005  0.4251272629243631  1.0000
  C   C18       1.0  0.7257055462241906  0.6642050405140479  0.07488074436776773  1.0000
  C   C19       1.0  0.664203582792382  0.7257016894091493  0.5748763663394669  1.0000
  C   C20       1.0  0.2742849268746284  0.33580363419640236  0.9251178799161507  1.0000
  C   C21       1.0  0.2658864460789162  0.15685910277499454  0.47963581628362567  1.0000
  C   C22       1.0  0.8431393340810731  0.7341199686330598  0.020371133307236278  1.0000
  C   C23       1.0  0.7341073012232185  0.8431396557981188  0.5203648897316739  1.0000
  C   C24       1.0  0.15685239607831386  0.2658886831061267  0.9796290336276174  1.0000
  C   C25       1.0  0.8754215549417098  0.12458060145514338  0.750003284269134  1.0000
  C   C26       1.0  0.12458060779289348  0.8754025532560303  0.24999140526180952  1.0000
  N   N1        1.0  0.1682101388293732  0.19488817570812958  0.5782951197922302  1.0000
  N   N2        1.0  0.8051134932708378  0.8317873816888194  0.9217108944614625  1.0000
  N   N3        1.0  0.8317791414351136  0.8051148775098652  0.4217047844704211  1.0000
  N   N4        1.0  0.1948852652530421  0.16821412228143365  0.07828928063229773  1.0000
  O   O1        1.0  0.08588693758741076  0.6533534480670156  0.7319595117627176  1.0000
  O   O2        1.0  0.3466551031841049  0.9141068264914837  0.768041661743716  1.0000
  O   O3        1.0  0.9141606310205576  0.34662617669163603  0.2680502097724614  1.0000
  O   O4        1.0  0.6533371781251843  0.08590887223603262  0.23195473088134833  1.0000
  O   O5        1.0  0.19508456126895618  0.7765327857032815  0.5837030235232065  1.0000
  O   O6        1.0  0.22347478432556037  0.8049049031093604  0.9162969119385809  1.0000
  O   O7        1.0  0.8049091690126177  0.223468810152049  0.4162909809667994  1.0000
  O   O8        1.0  0.776525133758554  0.1951050434274961  0.08370097880087711  1.0000
  O   O9        1.0  0.7319221054207643  0.2680746107427296  0.7500047536288365  1.0000
  O   O10       1.0  0.2680579883183256  0.7319074485996497  0.24999396214340663  1.0000
