data_image0
_chemical_formula_structural       Zr6H28C50N2O36
_chemical_formula_sum              "Zr6 H28 C50 N2 O36"
_cell_length_a       14.754838708922259
_cell_length_b       14.760270561501617
_cell_length_c       14.762956159124984
_cell_angle_alpha    60.63630865279627
_cell_angle_beta     59.99498416047407
_cell_angle_gamma    59.996919053407915

_space_group_name_H-M_alt    "P 1"
_space_group_IT_number       1

loop_
  _space_group_symop_operation_xyz
  'x, y, z'

loop_
  _atom_site_type_symbol
  _atom_site_label
  _atom_site_symmetry_multiplicity
  _atom_site_fract_x
  _atom_site_fract_y
  _atom_site_fract_z
  _atom_site_occupancy
  Zr  Zr1       1.0  0.8801961113008758  0.8820320308586603  0.6181457790683497  1.0000
  Zr  Zr2       1.0  0.12047593163679694  0.11862213866595538  0.3813673191726963  1.0000
  Zr  Zr3       1.0  0.12031056345315269  0.8826003481797711  0.6175369629058453  1.0000
  Zr  Zr4       1.0  0.8802462125610051  0.11937585289835079  0.38080968956840183  1.0000
  Zr  Zr5       1.0  0.12000076917496474  0.8801666135644268  0.37904584645539796  1.0000
  Zr  Zr6       1.0  0.8793121529379134  0.12112697928084515  0.6198134403413533  1.0000
  H   H1        1.0  0.09537584048733547  0.7189036043592694  0.590312354381311  1.0000
  H   H2        1.0  0.0953668192192083  0.0914647325550035  0.21778937108265242  1.0000
  H   H3        1.0  0.09340499765661991  0.09546793681043649  0.5944282668224831  1.0000
  H   H4        1.0  0.7164473516105332  0.09578656836992396  0.5943754142964508  1.0000
  H   H5        1.0  0.14062474304463266  0.4170530776723212  0.35126689116243887  1.0000
  H   H6        1.0  0.8493169895279281  0.5926246335368647  0.6405061707043133  1.0000
  H   H7        1.0  0.14102680564840847  0.5876397827108092  0.3500631078721384  1.0000
  H   H8        1.0  0.849210436732051  0.42128326542248823  0.6421409540101238  1.0000
  H   H9        1.0  0.4150352779685349  0.14249415166281656  0.08968154701135234  1.0000
  H   H10       1.0  0.5918878742929151  0.8507726123740726  0.9163415066044607  1.0000
  H   H11       1.0  0.5854880529642801  0.1433347185785436  0.9195498272168904  1.0000
  H   H12       1.0  0.42193711387786015  0.8489752720812335  0.08768780717784364  1.0000
  H   H13       1.0  0.8498716142537858  0.14368662494048592  0.9196699460848381  1.0000
  H   H14       1.0  0.13947489089691356  0.8491264193310002  0.08808103065373989  1.0000
  H   H15       1.0  0.8502434740800455  0.1419953556299945  0.09088922845471373  1.0000
  H   H16       1.0  0.13871385820883106  0.8501905516751052  0.9177374122579708  1.0000
  H   H17       1.0  0.4207846526967101  0.5881265738255552  0.3488918924771768  1.0000
  H   H18       1.0  0.5865665896231249  0.4219428801425805  0.6410866253310346  1.0000
  H   H19       1.0  0.5906353966894856  0.4166851322961878  0.3507265199292818  1.0000
  H   H20       1.0  0.4161968627867197  0.5921985251689535  0.6401850924944908  1.0000
  H   H21       1.0  0.7462845864689882  0.6309287502309999  0.9609885828053636  1.0000
  H   H22       1.0  0.8332121552888263  0.5456460076640114  0.874629962052758  1.0000
  H   H23       1.0  0.8345757190602046  0.37522047133073505  0.04367854451738404  1.0000
  H   H24       1.0  0.746740052409585  0.4602574636178006  0.13023645340250312  1.0000
  H   H25       1.0  0.41958167938592067  0.8516683288753202  0.6389237853533132  1.0000
  H   H26       1.0  0.5898953384896685  0.1402814646194344  0.3510796108471439  1.0000
  H   H27       1.0  0.5903694308486391  0.8516102291124099  0.6387626146906985  1.0000
  H   H28       1.0  0.4192669797002396  0.140309671388664  0.3510094800871926  1.0000
  C   C1        1.0  0.996241191402817  0.6999820887565206  0.495538521541377  1.0000
  C   C2        1.0  0.3081210315269731  0.9950789503496653  0.1992690709304059  1.0000
  C   C3        1.0  0.995614183570446  0.3076393164500998  0.4980664212495256  1.0000
  C   C4        1.0  0.6989708008233321  0.9978362424925182  0.8071196694841023  1.0000
  C   C5        1.0  0.9982378164006181  0.7017884059330587  0.8044976265854729  1.0000
  C   C6        1.0  0.6995832714699829  0.9969572817607286  0.4957548378485301  1.0000
  C   C7        1.0  0.9981519137330254  0.30615262804519755  0.2011186423766205  1.0000
  C   C8        1.0  0.30822625449542307  0.9969789344701996  0.4958871855652873  1.0000
  C   C9        1.0  0.3080848673631351  0.7006501714205341  0.4939593986351342  1.0000
  C   C10       1.0  0.9953216356285284  0.9988720554330046  0.806759343967748  1.0000
  C   C11       1.0  0.6988321480312719  0.3083993020885175  0.4966499201850639  1.0000
  C   C12       1.0  0.996281519034696  0.9964338407699034  0.19886703141661863  1.0000
  C   C13       1.0  0.9951910524949524  0.4094472104574437  0.49711733248264545  1.0000
  C   C14       1.0  0.995479402109822  0.5992946973075918  0.4954917547795431  1.0000
  C   C15       1.0  0.07779657335793634  0.45570931311826957  0.4145231789805878  1.0000
  C   C16       1.0  0.9128033854760109  0.5529903140012777  0.5780456310354937  1.0000
  C   C17       1.0  0.07780081236752077  0.5503096476539112  0.4137115758271506  1.0000
  C   C18       1.0  0.9126527363339392  0.4584931811044226  0.5788799692450157  1.0000
  C   C19       1.0  0.4098833774638918  0.9949174037469604  0.09873284824351458  1.0000
  C   C20       1.0  0.5987462086104783  0.9964811742542137  0.9091341994176291  1.0000
  C   C21       1.0  0.4552577919670996  0.07834691514226937  0.0518239220298327  1.0000
  C   C22       1.0  0.5529677498067187  0.9133503869550095  0.9559037602969555  1.0000
  C   C23       1.0  0.5493245055099931  0.07900832010506789  0.957451606846334  1.0000
  C   C24       1.0  0.4590343230102646  0.9124906557988552  0.05032002058074158  1.0000
  C   C25       1.0  0.9946381287063417  0.9974555439819142  0.908907389494999  1.0000
  C   C26       1.0  0.9952413479405209  0.9959014229845522  0.09854614562362271  1.0000
  C   C27       1.0  0.9127982444438699  0.07983931022383228  0.957354650712155  1.0000
  C   C28       1.0  0.07668911461955465  0.9132779706976422  0.05034851932947496  1.0000
  C   C29       1.0  0.9131204695460156  0.07902026715205325  0.05172948024923582  1.0000
  C   C30       1.0  0.07647638820050408  0.9140105368596992  0.955889716161451  1.0000
  C   C31       1.0  0.4098706242977953  0.6001672826662982  0.4937349123581709  1.0000
  C   C32       1.0  0.5986090056210002  0.41044856168894484  0.49539322054703655  1.0000
  C   C33       1.0  0.4583699234376369  0.5511383310466514  0.4119417079547674  1.0000
  C   C34       1.0  0.54991207962329  0.4594456843175936  0.5772250043464809  1.0000
  C   C35       1.0  0.5522216004466499  0.456658911392779  0.41286090936183234  1.0000
  C   C36       1.0  0.4558973821229344  0.5538914786898133  0.5765077757851528  1.0000
  C   C37       1.0  0.00042516985934054825  0.6014186044382653  0.904681050439905  1.0000
  C   C38       1.0  0.99952569656795  0.40700459432521535  0.10139205598114384  1.0000
  C   C39       1.0  0.9208253274826033  0.5510308210739083  0.9562848064790616  1.0000
  C   C40       1.0  0.08100257790195554  0.45732104733468043  0.04963203341435473  1.0000
  C   C41       1.0  0.9207986801356612  0.4574185616067156  0.05019265948944716  1.0000
  C   C42       1.0  0.08209922658767255  0.549818078830313  0.9546808641269706  1.0000
  C   C43       1.0  0.8189017944923336  0.5565582992072039  0.9497042074347632  1.0000
  C   C44       1.0  0.8193073955108687  0.4501453147033774  0.055568925176842775  1.0000
  C   C45       1.0  0.41028510618880165  0.9959532311502671  0.49492006851218656  1.0000
  C   C46       1.0  0.5994399432924453  0.9959179898252162  0.4948761359649085  1.0000
  C   C47       1.0  0.4578937428228825  0.9141601221544348  0.5763194005223512  1.0000
  C   C48       1.0  0.5518907673995485  0.07751971751229558  0.4133929515971603  1.0000
  C   C49       1.0  0.5521353702223664  0.9141661051421723  0.57623939833789  1.0000
  C   C50       1.0  0.45769901165159865  0.07756643525690525  0.41334699634600014  1.0000
  N   N1        1.0  0.171134349159793  0.4125916838026313  0.09456481059860522  1.0000
  N   N2        1.0  0.17573744581319065  0.5911828638686102  0.9060604834060089  1.0000
  O   O1        1.0  0.9200719269548041  0.7394918081203271  0.5735725935728412  1.0000
  O   O2        1.0  0.2675656524088765  0.07215570456067157  0.23956630816963553  1.0000
  O   O3        1.0  0.07362471549005523  0.26617042529235135  0.422138703563455  1.0000
  O   O4        1.0  0.7391572390305898  0.9210876266594427  0.7662309171247375  1.0000
  O   O5        1.0  0.07400975663239248  0.7421491128237391  0.7649026843247171  1.0000
  O   O6        1.0  0.7384601719917542  0.07401993615360429  0.4202863986718981  1.0000
  O   O7        1.0  0.9207145579443577  0.2692123571221289  0.2367159236569094  1.0000
  O   O8        1.0  0.2675499974208008  0.9217115414512519  0.5730243381066844  1.0000
  O   O9        1.0  0.2678236020400534  0.7383778237996951  0.4181860348197689  1.0000
  O   O10       1.0  0.9188264889707796  0.07639328881528222  0.7672042617115263  1.0000
  O   O11       1.0  0.7368411180966205  0.2683920017227522  0.5745053841929533  1.0000
  O   O12       1.0  0.0735048735594645  0.919896747915381  0.2376727178087777  1.0000
  O   O13       1.0  0.07360776916280548  0.9231838819514164  0.7650692345459903  1.0000
  O   O14       1.0  0.7388013508818576  0.26735475182781715  0.4200810976006722  1.0000
  O   O15       1.0  0.9204922103985141  0.0749338484243793  0.23789126937801094  1.0000
  O   O16       1.0  0.26737377595366496  0.7409409012942162  0.5710697937884462  1.0000
  O   O17       1.0  0.9209712585092333  0.7370967478747519  0.7674442064978565  1.0000
  O   O18       1.0  0.26769330474264297  0.0739697744204122  0.42048568768555583  1.0000
  O   O19       1.0  0.0752626428041054  0.2653876070858914  0.2400698040243086  1.0000
  O   O20       1.0  0.7383248922875154  0.9216516292046465  0.572943699146137  1.0000
  O   O21       1.0  0.7366840429762859  0.07595313221529666  0.7669598471438945  1.0000
  O   O22       1.0  0.073621712446794  0.7386142752114326  0.4190935024061559  1.0000
  O   O23       1.0  0.2677944268855652  0.9193343947237339  0.23702073139823915  1.0000
  O   O24       1.0  0.9190063839705758  0.26816286006517503  0.5754843077497044  1.0000
  O   O25       1.0  0.7970418594487756  0.06856817171892277  0.5672499087669324  1.0000
  O   O26       1.0  0.06705841622376595  0.068414835255183  0.5672669098130072  1.0000
  O   O27       1.0  0.06743859826673315  0.06711388066931788  0.29781470366294377  1.0000
  O   O28       1.0  0.06739220548818273  0.7989475569968364  0.566071537054583  1.0000
  O   O29       1.0  0.1491552769256543  0.9505789616540312  0.4494064944965218  1.0000
  O   O30       1.0  0.9501155787294664  0.9508753187777472  0.4496771199854382  1.0000
  O   O31       1.0  0.9501593615081916  0.14908410938460298  0.45065143586928963  1.0000
  O   O32       1.0  0.9500467209287465  0.9520089103257379  0.6477514298063128  1.0000
  O   O33       1.0  0.151301040059245  0.4490426560001596  0.16429125634728345  1.0000
  O   O34       1.0  0.25969422449544766  0.34648364712069224  0.05464257674634611  1.0000
  O   O35       1.0  0.25810777209076713  0.5553674881325249  0.8331469046289045  1.0000
  O   O36       1.0  0.16514162613339062  0.6536908079502625  0.9460842514794551  1.0000
