data_image0
_chemical_formula_structural       Zn4H64C86N20O9
_chemical_formula_sum              "Zn4 H64 C86 N20 O9"
_cell_length_a       20.269152070799624
_cell_length_b       20.728963200355096
_cell_length_c       20.32786273573124
_cell_angle_alpha    108.3091136593104
_cell_angle_beta     106.2131970648491
_cell_angle_gamma    112.9128567536055

_space_group_name_H-M_alt    "P 1"
_space_group_IT_number       1

loop_
  _space_group_symop_operation_xyz
  'x, y, z'

loop_
  _atom_site_type_symbol
  _atom_site_label
  _atom_site_symmetry_multiplicity
  _atom_site_fract_x
  _atom_site_fract_y
  _atom_site_fract_z
  _atom_site_occupancy
  Zn  Zn1       1.0  0.5888526172183502  0.6029968768962419  0.4827600495961516  1.0000
  Zn  Zn2       1.0  0.3915384901441428  0.38472897222551694  0.5039849731917554  1.0000
  Zn  Zn3       1.0  0.4864320458693285  0.5846042506530865  0.5852153229168164  1.0000
  Zn  Zn4       1.0  0.4730775757926651  0.3489999031591254  0.3784878832531645  1.0000
  H   H1        1.0  0.7542562278818464  0.7787520780779219  0.6129250496898208  1.0000
  H   H2        1.0  0.21943349068842366  0.33966865801561846  0.5030185826753095  1.0000
  H   H3        1.0  0.24346547042844688  0.38939669688448214  0.3867914630566245  1.0000
  H   H4        1.0  0.5462367839373599  0.7000151795402728  0.4187963741926308  1.0000
  H   H5        1.0  0.4997495394834529  0.4397257270827879  0.21156387440046123  1.0000
  H   H6        1.0  0.32831374002088876  0.5898249595799997  0.5661211966238539  1.0000
  H   H7        1.0  0.06707431160475613  0.5742805380122532  0.43657890356172374  1.0000
  H   H8        1.0  0.36192915655119146  0.23533870972077858  0.5410645537885513  1.0000
  H   H9        1.0  0.9030995652496047  0.46600459262803184  0.32783176419701476  1.0000
  H   H10       1.0  0.9184411550854961  0.3406330910464632  0.34366510720305127  1.0000
  H   H11       1.0  0.8699180069106517  0.36556750997753806  0.46267648631646796  1.0000
  H   H12       1.0  0.6631134837136443  0.14231790568485542  0.6414387940141351  1.0000
  H   H13       1.0  0.5905216688218715  0.03419157199436999  0.692816685170065  1.0000
  H   H14       1.0  0.6170150421077666  0.0112485177912589  0.5009499592983387  1.0000
  H   H15       1.0  0.46964295580370663  0.0037512846721483987  0.43147620132968695  1.0000
  H   H16       1.0  0.44341206245088227  0.0264953748821313  0.6247484651052273  1.0000
  H   H17       1.0  0.6835358367019068  0.6273404086613396  0.8475635427727108  1.0000
  H   H18       1.0  0.6404985979660508  0.6270740720392922  0.7247603596761533  1.0000
  H   H19       1.0  0.7221635663406474  0.622831264820043  0.9725718772119476  1.0000
  H   H20       1.0  0.8204432312289  0.6300107364005215  0.19804362921215793  1.0000
  H   H21       1.0  0.779036246227129  0.6365870566557917  0.30311757870650496  1.0000
  H   H22       1.0  0.6194105813355647  0.38319546678264527  0.7248404931820784  1.0000
  H   H23       1.0  0.6547890110792522  0.3789599867517169  0.8501464405881618  1.0000
  H   H24       1.0  0.5328997393235184  0.46283929385761985  0.1267522331835664  1.0000
  H   H25       1.0  0.22595035259850954  0.3409701586336382  0.13762770052565532  1.0000
  H   H26       1.0  0.09408201194967351  0.2422231531171448  0.017407149176598573  1.0000
  H   H27       1.0  0.9572310555182567  0.0009951453335829876  0.9186340839228104  1.0000
  H   H28       1.0  0.8571982775621549  0.863832704421583  0.806160402186556  1.0000
  H   H29       1.0  0.12159502791460852  0.2554317593892748  0.2731036436195139  1.0000
  H   H30       1.0  0.8027091749293263  0.08328287490518697  0.8371687999203767  1.0000
  H   H31       1.0  0.9918422081524196  0.1547347426049726  0.15232114184323103  1.0000
  H   H32       1.0  0.6994999299038511  0.9444502032425959  0.7280173553792221  1.0000
  H   H33       1.0  0.5226499873407136  0.36976814473032255  0.6179630496471089  1.0000
  H   H34       1.0  0.7495409650182124  0.6169752901181695  0.5472087711731815  1.0000
  H   H35       1.0  0.5178251428212662  0.23713896088281672  0.43216042880673905  1.0000
  H   H36       1.0  0.4145021055744208  0.7944203737633585  0.5845552081411537  1.0000
  H   H37       1.0  0.5066668036155023  0.8172228463542482  0.656773912111376  1.0000
  H   H38       1.0  0.4301300487615619  0.7509167064639398  0.7177294423384165  1.0000
  H   H39       1.0  0.41506378328998034  0.8294048231679055  0.7147857063318735  1.0000
  H   H40       1.0  0.3381779351695684  0.7286424181822753  0.6460833013160535  1.0000
  H   H41       1.0  0.3150702414823243  0.28680691816014564  0.1628434095279799  1.0000
  H   H42       1.0  0.13264143975546017  0.6782666013536272  0.5693530115527138  1.0000
  H   H43       1.0  0.13641506226679215  0.6443905218612188  0.6401627521404406  1.0000
  H   H44       1.0  0.10446882907699266  0.7428792438356666  0.7111680283366009  1.0000
  H   H45       1.0  0.19261487265583105  0.7925891871413597  0.7015755460111631  1.0000
  H   H46       1.0  0.09890582781322628  0.7750403004740322  0.6392006865526907  1.0000
  H   H47       1.0  0.9456040515060877  0.42943406917964216  0.6060996793301282  1.0000
  H   H48       1.0  0.014538003805128711  0.5345368665053627  0.6625939677738655  1.0000
  H   H49       1.0  0.11872842345253086  0.5109295827887408  0.7354594174438344  1.0000
  H   H50       1.0  0.02896859530446254  0.4665221026268114  0.7444616924837529  1.0000
  H   H51       1.0  0.04921489767766468  0.40618089578604344  0.6785493283291256  1.0000
  H   H52       1.0  0.3623448564382485  0.8386650992994973  0.4122596129161804  1.0000
  H   H53       1.0  0.5397178980855911  0.5266054753958826  0.9881037362221645  1.0000
  H   H54       1.0  0.47520906740685126  0.4710387482141273  0.01917560917763687  1.0000
  H   H55       1.0  0.4025886773345988  0.4231297992140313  0.8755679603510482  1.0000
  H   H56       1.0  0.4763273293037642  0.40195282449536757  0.8613528079157073  1.0000
  H   H57       1.0  0.41124061485825086  0.346580605113715  0.892059517709512  1.0000
  H   H58       1.0  0.6530798154663842  0.3290021294033636  0.35864652411952835  1.0000
  H   H59       1.0  0.7000938710330614  0.8639168627880451  0.8544417759590955  1.0000
  H   H60       1.0  0.6833682991808487  0.766401797421061  0.8290286136286507  1.0000
  H   H61       1.0  0.5530766694935637  0.7230565451431873  0.8375364596716749  1.0000
  H   H62       1.0  0.6351250683926963  0.8068459552624817  0.9273220902333744  1.0000
  H   H63       1.0  0.568513377468314  0.8200484883462736  0.8621353420813233  1.0000
  H   H64       1.0  0.7270172574341273  0.7122338122583186  0.4726149275036134  1.0000
  C   C1        1.0  0.710072265068476  0.76332457738436  0.6345335051511183  1.0000
  C   C2        1.0  0.45061798577846435  0.2179130704925996  0.502511228795498  1.0000
  C   C3        1.0  0.6053561980016938  0.501374888113844  0.7026284478692445  1.0000
  C   C4        1.0  0.718627026385242  0.4948945015170094  0.4666669901432668  1.0000
  C   C5        1.0  0.6544812946065975  0.6101777185469713  0.35966845469970093  1.0000
  C   C6        1.0  0.2591423332079685  0.4026961413619646  0.5235278797362211  1.0000
  C   C7        1.0  0.4559072563259647  0.6852618372980714  0.5291103797425476  1.0000
  C   C8        1.0  0.3323947664569502  0.34394272938695286  0.2829044130797128  1.0000
  C   C9        1.0  0.2795424538453871  0.37696457730607585  0.3600030675100354  1.0000
  C   C10       1.0  0.5148765099315681  0.6861383811894725  0.4524970598681716  1.0000
  C   C11       1.0  0.5450222357842236  0.4955020024089336  0.2646671379969944  1.0000
  C   C12       1.0  0.39624078570634685  0.24300873643782242  0.508617557826838  1.0000
  C   C13       1.0  0.3149849253223423  0.5306382514225377  0.5560989566448098  1.0000
  C   C14       1.0  0.6222495396999079  0.5525691914068959  0.28060156393431157  1.0000
  C   C15       1.0  0.2393943521587474  0.46057826596957346  0.5230086171664323  1.0000
  C   C16       1.0  0.49539839166080685  0.7340317300264589  0.5002232291992214  1.0000
  C   C17       1.0  0.26217116095192244  0.34491483423946084  0.2812134807590566  1.0000
  C   C18       1.0  0.005821099914534531  0.4733772770932916  0.5208497090100648  1.0000
  C   C19       1.0  0.9989000656935049  0.544478509075425  0.5115110469383948  1.0000
  C   C20       1.0  0.7880871675193645  0.4983590408467863  0.46363854059222104  1.0000
  C   C21       1.0  0.16378142859310432  0.4532867687910596  0.4933021184287367  1.0000
  C   C22       1.0  0.9153141807299008  0.41212946538963996  0.45826537346955104  1.0000
  C   C23       1.0  0.6033850523036006  0.5628746743536793  0.6880744576858147  1.0000
  C   C24       1.0  0.9070764175126128  0.48263211212285034  0.450419475859121  1.0000
  C   C25       1.0  0.9408946439397423  0.3985696250779327  0.39184039085628775  1.0000
  C   C26       1.0  0.03273739221184269  0.4598257348425109  0.4541690082405834  1.0000
  C   C27       1.0  0.9332382338897958  0.46801264892175715  0.3828491035195326  1.0000
  C   C28       1.0  0.02367899746646884  0.528968893427063  0.44385611344301856  1.0000
  C   C29       1.0  0.8428799772303465  0.4925161771539522  0.454253280454786  1.0000
  C   C30       1.0  0.10143134316808766  0.4527745174092814  0.4668688989331995  1.0000
  C   C31       1.0  0.563502864484107  0.027974593408778503  0.6347515396906898  1.0000
  C   C32       1.0  0.6039077944185678  0.0872287066827298  0.6059740023367295  1.0000
  C   C33       1.0  0.47659910696971497  0.17668065934271482  0.5358237945596895  1.0000
  C   C34       1.0  0.6399966428711467  0.42548434802271373  0.4237944490016331  1.0000
  C   C35       1.0  0.5163788204951629  0.8129605532264677  0.5199485823912224  1.0000
  C   C36       1.0  0.48205049123971827  0.0232470088903938  0.5971875934248201  1.0000
  C   C37       1.0  0.5212445816248349  0.08256791002420981  0.5669733992258016  1.0000
  C   C38       1.0  0.45409879863807123  0.9522450925639631  0.5185395378663811  1.0000
  C   C39       1.0  0.5382279195403612  0.9550315362548221  0.5564585650299134  1.0000
  C   C40       1.0  0.4965828057814575  0.009386447808445598  0.4892286745523647  1.0000
  C   C41       1.0  0.5781740920508581  0.015335933393132004  0.5280404952067952  1.0000
  C   C42       1.0  0.5036490992546591  0.14071454980676631  0.5599273120058753  1.0000
  C   C43       1.0  0.5364131414057098  0.8829371764555489  0.5426953300594304  1.0000
  C   C44       1.0  0.6527502439628563  0.5495143093133167  0.22328613840613085  1.0000
  C   C45       1.0  0.5437955696327067  0.4316681514822778  0.632871800460883  1.0000
  C   C46       1.0  0.5968414175494132  0.4983906886727711  0.1438639891872739  1.0000
  C   C47       1.0  0.6195205035802616  0.4920058352332503  0.08473719342533308  1.0000
  C   C48       1.0  0.7018685685081252  0.5405940297767557  0.10395556539021553  1.0000
  C   C49       1.0  0.7577054227034525  0.5919464071413217  0.18355721084365936  1.0000
  C   C50       1.0  0.7346949600338702  0.5957649480439855  0.24215539877324932  1.0000
  C   C51       1.0  0.701508434455249  0.5716125297061084  0.917960532821972  1.0000
  C   C52       1.0  0.6799283244623949  0.5735193574094524  0.8479287990888122  1.0000
  C   C53       1.0  0.6902416275845127  0.5004145203920558  0.9188515047540232  1.0000
  C   C54       1.0  0.6466262779732972  0.5050066848318481  0.7764341897924962  1.0000
  C   C55       1.0  0.6427365428190085  0.43639148567495306  0.7789394463742522  1.0000
  C   C56       1.0  0.7061238050734175  0.553983492795247  0.5072582015882572  1.0000
  C   C57       1.0  0.6630449234613918  0.43368004800196763  0.8487409128930135  1.0000
  C   C58       1.0  0.7710671145190985  0.894755549833306  0.7608101490414254  1.0000
  C   C59       1.0  0.7563887359457128  0.957247571695426  0.7696316215941149  1.0000
  C   C60       1.0  0.8135891765836051  0.034554767420687  0.8301861776057533  1.0000
  C   C61       1.0  0.8846131392901883  0.04923345989826801  0.8853152672019461  1.0000
  C   C62       1.0  0.9007286863944375  0.987774944506079  0.8761512328351911  1.0000
  C   C63       1.0  0.845058271678866  0.9118427279486668  0.8136071887570817  1.0000
  C   C64       1.0  0.10092529637105227  0.24661416514681628  0.07406104862491246  1.0000
  C   C65       1.0  0.17434314936297576  0.30089366189363187  0.14111037589907477  1.0000
  C   C66       1.0  0.03575913237032323  0.19212688155533905  0.07792473424071739  1.0000
  C   C67       1.0  0.4766397473943941  0.2448596282385509  0.4536015106920173  1.0000
  C   C68       1.0  0.1836002861507993  0.30329764673238196  0.2133034295805415  1.0000
  C   C69       1.0  0.11525897676749257  0.25375829709416564  0.21744114494602226  1.0000
  C   C70       1.0  0.042956419876361514  0.1976279390898128  0.15054209922634945  1.0000
  C   C71       1.0  0.6372337490182645  0.7608261885335353  0.6974777203153831  1.0000
  C   C72       1.0  0.7097503447167881  0.8119593839404473  0.7002630001563045  1.0000
  C   C73       1.0  0.4409561250620231  0.7758378862754826  0.6244191677435892  1.0000
  C   C74       1.0  0.40375854819024676  0.7704454381301317  0.6788966433369834  1.0000
  C   C75       1.0  0.3540334483545067  0.3097500455243321  0.22513022522676343  1.0000
  C   C76       1.0  0.10914710787616862  0.6710098487588071  0.6110856376083971  1.0000
  C   C77       1.0  0.1271806717238563  0.7499910891544418  0.6692257347469519  1.0000
  C   C78       1.0  0.010228245287670815  0.47646296836243357  0.6392142606196669  1.0000
  C   C79       1.0  0.05444054217775831  0.46432111972248447  0.7032484612956008  1.0000
  C   C80       1.0  0.37766334578473965  0.8750581162243876  0.47415948333163954  1.0000
  C   C81       1.0  0.5055128653481374  0.4667174567864834  0.981929758930718  1.0000
  C   C82       1.0  0.4453732886555741  0.40582884522779494  0.8976673364539489  1.0000
  C   C83       1.0  0.6102550613460949  0.34453743214185556  0.37175643830934735  1.0000
  C   C84       1.0  0.6531675165358878  0.8004871726579808  0.8267553870606006  1.0000
  C   C85       1.0  0.5990495162933486  0.786663752664751  0.8655008841276624  1.0000
  C   C86       1.0  0.7296682291752105  0.6838295940593255  0.41702634499947044  1.0000
  N   N1        1.0  0.6429393290307388  0.6897204181743959  0.5955294566857601  1.0000
  N   N2        1.0  0.339850134815066  0.4355888389185907  0.5532598327034675  1.0000
  N   N3        1.0  0.45412604979270554  0.6160257049593271  0.5019962846136392  1.0000
  N   N4        1.0  0.3849549841938469  0.37244411735790817  0.3576448351370657  1.0000
  N   N5        1.0  0.3533739355617271  0.3922833154940477  0.40436938720155513  1.0000
  N   N6        1.0  0.491648937682328  0.6168926571724073  0.4548599970962996  1.0000
  N   N7        1.0  0.5303710098614474  0.5155465546631747  0.3263849296959974  1.0000
  N   N8        1.0  0.37435442280887793  0.5154294675940817  0.5735057141641419  1.0000
  N   N9        1.0  0.7250285295203014  0.5503552240603683  0.04769451140319339  1.0000
  N   N10       1.0  0.6903734566829485  0.48749340534846664  0.9827617460062609  1.0000
  N   N11       1.0  0.9412671458845379  0.1265263386341857  0.9497703800782913  1.0000
  N   N12       1.0  0.39146741905369004  0.2824925985095349  0.46747919953625666  1.0000
  N   N13       1.0  0.9675692764612405  0.12317999292820761  0.012095244727291222  1.0000
  N   N14       1.0  0.5439298414634521  0.5312859413463612  0.6160586050196881  1.0000
  N   N15       1.0  0.586526869731081  0.4445869051362977  0.4378432190480338  1.0000
  N   N16       1.0  0.5072228038767645  0.45054721567350947  0.5822323816412902  1.0000
  N   N17       1.0  0.6263642138795832  0.5224792132731083  0.4880733804858152  1.0000
  N   N18       1.0  0.4418120520156776  0.28367628744022266  0.43373826722555003  1.0000
  N   N19       1.0  0.59843788793804  0.6883502642364405  0.6355915533461738  1.0000
  N   N20       1.0  0.5961855202640364  0.5856091893404382  0.3834885208064872  1.0000
  O   O1        1.0  0.42450829470357837  0.6964942399227568  0.579062798728735  1.0000
  O   O2        1.0  0.414935165120106  0.3043783509986113  0.24448537303928922  1.0000
  O   O3        1.0  0.022547347129574295  0.6175598345441244  0.5686974013332529  1.0000
  O   O4        1.0  0.04628177769463809  0.47287966425710704  0.5871928747119809  1.0000
  O   O5        1.0  0.33405676724321876  0.8488339503205043  0.502275752069572  1.0000
  O   O6        1.0  0.5616666898067917  0.44279751714586263  0.007960214303473316  1.0000
  O   O7        1.0  0.5372831766898898  0.2915366598376536  0.3412398295114867  1.0000
  O   O8        1.0  0.6029893056626321  0.773273891995771  0.7453602564909613  1.0000
  O   O9        1.0  0.7922106563647305  0.7161806280272885  0.4121064571542943  1.0000
