data_image0
_chemical_formula_structural       Zn4P8H32C12O24
_chemical_formula_sum              "Zn4 P8 H32 C12 O24"
_cell_length_a       5.066797771133821
_cell_length_b       8.464296626929741
_cell_length_c       18.158139263666893
_cell_angle_alpha    92.82315234295004
_cell_angle_beta     90.00007011262271
_cell_angle_gamma    90.00082536878503

_space_group_name_H-M_alt    "P 1"
_space_group_IT_number       1

loop_
  _space_group_symop_operation_xyz
  'x, y, z'

loop_
  _atom_site_type_symbol
  _atom_site_label
  _atom_site_symmetry_multiplicity
  _atom_site_fract_x
  _atom_site_fract_y
  _atom_site_fract_z
  _atom_site_occupancy
  Zn  Zn1       1.0  0.4514122616834797  0.44056866436145  0.8113247006751295  1.0000
  Zn  Zn2       1.0  0.9514116046915861  0.059435334773944165  0.6886764074726912  1.0000
  Zn  Zn3       1.0  0.5485784289395426  0.5594366919082319  0.1886692610269947  1.0000
  Zn  Zn4       1.0  0.0485869803067303  0.9405557378711009  0.3113254536412029  1.0000
  P   P1        1.0  0.5776945678877398  0.1305524724629308  0.3750090404610518  1.0000
  P   P2        1.0  0.07766912565925571  0.36945728367069813  0.1249975105118182  1.0000
  P   P3        1.0  0.4223099380337987  0.8694409957200333  0.6249901276529215  1.0000
  P   P4        1.0  0.9223294597455762  0.6305668731116396  0.8750084921548478  1.0000
  P   P5        1.0  0.7549346767697359  0.4105631445038183  0.6570433699964866  1.0000
  P   P6        1.0  0.2549408048830345  0.08944262793033887  0.8429643191333156  1.0000
  P   P7        1.0  0.2450856182159669  0.589430329708584  0.3429552475487583  1.0000
  P   P8        1.0  0.7450676484298883  0.9105602375284716  0.1570411447496127  1.0000
  H   H1        1.0  0.0512222957294526  0.6048967194048414  0.6370742533104305  1.0000
  H   H2        1.0  0.5512106492435224  0.8950996454597371  0.8629244890138921  1.0000
  H   H3        1.0  0.9487960255333763  0.3950896815208012  0.3629219823452061  1.0000
  H   H4        1.0  0.448795830365512  0.1048985720294553  0.137073147110911  1.0000
  H   H5        1.0  0.5735209651954918  0.3563068838550689  0.3135406517633115  1.0000
  H   H6        1.0  0.0735179436693585  0.14369578078901665  0.18646186314934712  1.0000
  H   H7        1.0  0.4264934088803329  0.6436853836340717  0.6864601381410793  1.0000
  H   H8        1.0  0.9264747206469439  0.8563142890210287  0.8135338700038304  1.0000
  H   H9        1.0  0.41877143680248724  0.2343379410933792  0.6157409585326974  1.0000
  H   H10       1.0  0.9187409615012642  0.2656527992423818  0.8842564976866711  1.0000
  H   H11       1.0  0.5812212274747425  0.7656685563117023  0.3842568871161802  1.0000
  H   H12       1.0  0.08124972900355942  0.734341845773386  0.1157432509291922  1.0000
  H   H13       1.0  0.3877954521451983  0.4196520430587184  0.57736431837575  1.0000
  H   H14       1.0  0.887774469982418  0.0803348622652393  0.9226346815281588  1.0000
  H   H15       1.0  0.6122287901955518  0.580348510409969  0.4226361304863175  1.0000
  H   H16       1.0  0.11223200962758284  0.9196633492629755  0.0773635051700197  1.0000
  H   H17       1.0  0.3395301509556462  0.0977897444508926  0.4865397780420722  1.0000
  H   H18       1.0  0.8394936764351258  0.4022034280210746  0.013459841310734098  1.0000
  H   H19       1.0  0.6604704077110315  0.9022049244515739  0.5134577682832173  1.0000
  H   H20       1.0  0.16046543605586552  0.5978006677653055  0.9865412479033039  1.0000
  H   H21       1.0  0.2986919928095589  0.28823390254595427  0.45320486348010997  1.0000
  H   H22       1.0  0.7986826315313565  0.2117589099535451  0.046795282405995  1.0000
  H   H23       1.0  0.7013046185393748  0.7117559991587965  0.5467958665538646  1.0000
  H   H24       1.0  0.20130411184467792  0.7882463270794771  0.9532096907623497  1.0000
  H   H25       1.0  0.802097392908067  0.16771993430575793  0.528502980603882  1.0000
  H   H26       1.0  0.3020506492338911  0.3322756250325013  0.9715022645958911  1.0000
  H   H27       1.0  0.19789724488780544  0.8322771002784034  0.4714946255848531  1.0000
  H   H28       1.0  0.6979183313914491  0.6677248507038839  0.028505341703706197  1.0000
  H   H29       1.0  0.7715082783745545  0.3558209073352144  0.49248567325459197  1.0000
  H   H30       1.0  0.2714947265418388  0.14416923814378887  0.0075204530646999996  1.0000
  H   H31       1.0  0.22849030672764312  0.6441796937100505  0.5075103710129625  1.0000
  H   H32       1.0  0.7284841221642966  0.8558241345523  0.9924875242156261  1.0000
  C   C1        1.0  0.5313919532681767  0.32665222439194247  0.588976211449925  1.0000
  C   C2        1.0  0.0313707554235023  0.17333031810144917  0.9110308072493182  1.0000
  C   C3        1.0  0.46861057917861615  0.6733542492120176  0.4110238364953389  1.0000
  C   C4        1.0  0.9686159878246914  0.826664267287441  0.0889744470990763  1.0000
  C   C5        1.0  0.44685944653707577  0.1969608934707451  0.46345610826794104  1.0000
  C   C6        1.0  0.946826589341157  0.3030237409349539  0.0365438854007323  1.0000
  C   C7        1.0  0.5531351912759987  0.8030373060841711  0.5365431795734849  1.0000
  C   C8        1.0  0.0531443648809855  0.6969744167904395  0.9634592564473152  1.0000
  C   C9        1.0  0.6586331327465447  0.2612681191761651  0.5173862971464303  1.0000
  C   C10       1.0  0.15861970156696972  0.23873570677012884  0.9826146984562457  1.0000
  C   C11       1.0  0.34136742592399133  0.7387265258823916  0.48261345147233214  1.0000
  C   C12       1.0  0.8413690154812841  0.7612731026764121  0.017388162216981598  1.0000
  O   O1        1.0  0.5913947828142342  0.5067034121853665  0.715664396903115  1.0000
  O   O2        1.0  0.09140450375752353  0.993300374406715  0.7843367509725924  1.0000
  O   O3        1.0  0.40862748580831726  0.493291310460023  0.284328194268241  1.0000
  O   O4        1.0  0.9086078968560971  0.006704821010707499  0.2156720762168973  1.0000
  O   O5        1.0  0.9207685887345036  0.5306171150715924  0.6113863799397166  1.0000
  O   O6        1.0  0.4207564159395575  0.9693895216372747  0.8886155124586992  1.0000
  O   O7        1.0  0.07924775895999403  0.46937524184075824  0.3886061513647121  1.0000
  O   O8        1.0  0.5792480901357067  0.030615709511785393  0.1113900112882504  1.0000
  O   O9        1.0  0.7036792581810334  0.2827775982571481  0.3385740537386184  1.0000
  O   O10       1.0  0.20367001998488388  0.21720849991321958  0.161423684241683  1.0000
  O   O11       1.0  0.2963173531812444  0.7172134922622673  0.6614261556545813  1.0000
  O   O12       1.0  0.7963167233327796  0.7827932839343815  0.8385723899549831  1.0000
  O   O13       1.0  0.8058037837518132  0.018070404809343195  0.3891723464015869  1.0000
  O   O14       1.0  0.30579086738372047  0.48192366412044396  0.11082673245719118  1.0000
  O   O15       1.0  0.1941790122891192  0.9819301723235578  0.6108259001548005  1.0000
  O   O16       1.0  0.6942116647710466  0.518059188175691  0.8891694133960256  1.0000
  O   O17       1.0  0.9317313183821555  0.2878953246203864  0.6906174764671604  1.0000
  O   O18       1.0  0.43171067231299537  0.2121083845450329  0.8093946315527987  1.0000
  O   O19       1.0  0.0682751612326626  0.7121028571029481  0.3093834630978662  1.0000
  O   O20       1.0  0.5682977808891395  0.7878862665087282  0.190604566494919  1.0000
  O   O21       1.0  0.36293875003227793  0.06824084643187688  0.3231929141212149  1.0000
  O   O22       1.0  0.8629371544941978  0.4317525470624658  0.1768050673061907  1.0000
  O   O23       1.0  0.6370637824793237  0.9317715831673464  0.6768034294734164  1.0000
  O   O24       1.0  0.1370969562832229  0.5682704866299912  0.8231953997046518  1.0000
