data_image0
_chemical_formula_structural       Zn2P4H12C12O16
_chemical_formula_sum              "Zn2 P4 H12 C12 O16"
_cell_length_a       9.215951657997927
_cell_length_b       10.50690208517566
_cell_length_c       10.506914683285547
_cell_angle_alpha    83.8578091221666
_cell_angle_beta     79.12888818944509
_cell_angle_gamma    79.12872913265348

_space_group_name_H-M_alt    "P 1"
_space_group_IT_number       1

loop_
  _space_group_symop_operation_xyz
  'x, y, z'

loop_
  _atom_site_type_symbol
  _atom_site_label
  _atom_site_symmetry_multiplicity
  _atom_site_fract_x
  _atom_site_fract_y
  _atom_site_fract_z
  _atom_site_occupancy
  Zn  Zn1       1.0  0.2500001317857681  0.02624741293912791  0.9737522937849405  1.0000
  Zn  Zn2       1.0  0.7500003068427149  0.9737520814702164  0.02624705320836541  1.0000
  P   P1        1.0  0.012416630168942795  0.049710085132645104  0.7911114085713962  1.0000
  P   P2        1.0  0.4875838909923614  0.20888946582846296  0.9502894850318951  1.0000
  P   P3        1.0  0.9875849087724119  0.9502894038821735  0.20888871357168887  1.0000
  P   P4        1.0  0.5124163534809013  0.7911109991555704  0.04971074320129527  1.0000
  H   H1        1.0  0.9940386771131742  0.26186158489381484  0.769666415417781  1.0000
  H   H2        1.0  0.5059615295267362  0.2303344989056413  0.7381382397720557  1.0000
  H   H3        1.0  0.005960267496931174  0.7381398548267767  0.2303348716709053  1.0000
  H   H4        1.0  0.4940398206544641  0.7696659619165375  0.26186181084550947  1.0000
  H   H5        1.0  0.27482476602929035  0.9640123767345727  0.6624668092746261  1.0000
  H   H6        1.0  0.22517444099800343  0.3375341311900685  0.0359878863698739  1.0000
  H   H7        1.0  0.7251754784439725  0.0359880882494608  0.3375334189585644  1.0000
  H   H8        1.0  0.7748248865274757  0.6624653661484745  0.9640125910044474  1.0000
  H   H9        1.0  0.7712516714466916  0.08877798857778171  0.6515807208642244  1.0000
  H   H10       1.0  0.7287471812978552  0.34841931668879056  0.9112186929097206  1.0000
  H   H11       1.0  0.22874857302657156  0.9112224764062585  0.34841950736895916  1.0000
  H   H12       1.0  0.27125215162268995  0.6515801818824087  0.08878083169920362  1.0000
  C   C1        1.0  0.1424324074511957  0.9715999714426999  0.5404211328452178  1.0000
  C   C2        1.0  0.3575677369714682  0.45957952119317724  0.028401097561925312  1.0000
  C   C3        1.0  0.8575685652096966  0.0284024329941985  0.4595787747213151  1.0000
  C   C4        1.0  0.6424314071889228  0.5404209491853819  0.971598355521479  1.0000
  C   C5        1.0  0.011469437248976498  0.023042104885512102  0.6261566953114368  1.0000
  C   C6        1.0  0.4885302081025529  0.3738433989192558  0.9769571297363555  1.0000
  C   C7        1.0  0.9885315354119156  0.976960299551379  0.37384321225509615  1.0000
  C   C8        1.0  0.5114689414529039  0.6261570726919672  0.023041370581651698  1.0000
  C   C9        1.0  0.8720390175399757  0.050329445087854204  0.584981288324677  1.0000
  C   C10       1.0  0.6279612863908852  0.4150181645816602  0.9496684453031676  1.0000
  C   C11       1.0  0.12796306082885422  0.9496729551871752  0.4150184416262448  1.0000
  C   C12       1.0  0.3720380519247256  0.58498133522221  0.05033012654035931  1.0000
  O   O1        1.0  0.9346602418115141  0.1981342495897636  0.8155859431848994  1.0000
  O   O2        1.0  0.5653397778505607  0.184413293634897  0.8018657016517352  1.0000
  O   O3        1.0  0.0653388915587456  0.8018662183234754  0.1844154154293065  1.0000
  O   O4        1.0  0.43466176109079413  0.8155861953799218  0.19813442049134983  1.0000
  O   O5        1.0  0.1775492423236287  0.029519677184282497  0.8074208779888181  1.0000
  O   O6        1.0  0.3224508705421911  0.19257897361652002  0.9704805053427991  1.0000
  O   O7        1.0  0.8224508133894801  0.9704817596071109  0.1925792787188527  1.0000
  O   O8        1.0  0.677549562691226  0.8074205195601536  0.02951979441590412  1.0000
  O   O9        1.0  0.9144374982881516  0.9671915296701028  0.8822891874601808  1.0000
  O   O10       1.0  0.5855623208718655  0.11771084180184493  0.032808843594224896  1.0000
  O   O11       1.0  0.08556255742495722  0.032809907121290394  0.11771096924748288  1.0000
  O   O12       1.0  0.4144381123615517  0.8822886513748356  0.9671914561644781  1.0000
  O   O13       1.0  0.28193928278504643  0.9413097498021941  0.5720545913652089  1.0000
  O   O14       1.0  0.21805972847881352  0.4279456748684608  0.05869134286908211  1.0000
  O   O15       1.0  0.7180609616882166  0.058690715181846494  0.4279456368679745  1.0000
  O   O16       1.0  0.7819396044417317  0.5720538237027385  0.9413081817398419  1.0000
