data_image0
_chemical_formula_structural       Cu2H48C40S4I2O6
_chemical_formula_sum              "Cu2 H48 C40 S4 I2 O6"
_cell_length_a       9.569881494680558
_cell_length_b       10.172225130535475
_cell_length_c       12.822701662445308
_cell_angle_alpha    103.7607905907553
_cell_angle_beta     103.09450050269623
_cell_angle_gamma    94.00391051223916

_space_group_name_H-M_alt    "P 1"
_space_group_IT_number       1

loop_
  _space_group_symop_operation_xyz
  'x, y, z'

loop_
  _atom_site_type_symbol
  _atom_site_label
  _atom_site_symmetry_multiplicity
  _atom_site_fract_x
  _atom_site_fract_y
  _atom_site_fract_z
  _atom_site_occupancy
  Cu  Cu1       1.0  0.5757838319291652  0.5551459461914091  0.616950376632829  1.0000
  Cu  Cu2       1.0  0.42420818489403445  0.44484850210173477  0.383043554341242  1.0000
  H   H1        1.0  0.059788844943256  0.23429943275976223  0.007423974964851277  1.0000
  H   H2        1.0  0.940208615028837  0.7657031941903083  0.992573916447185  1.0000
  H   H3        1.0  0.966468247578064  0.12339318599401138  0.8753980063654795  1.0000
  H   H4        1.0  0.033527087194109115  0.8766095115648015  0.12460500004714703  1.0000
  H   H5        1.0  0.9272813627346822  0.06456693509436918  0.0529425445923408  1.0000
  H   H6        1.0  0.0727217612227662  0.9354377723865994  0.9470605761593519  1.0000
  H   H7        1.0  0.8173855109761378  0.20003017178874674  0.0643811554213372  1.0000
  H   H8        1.0  0.1826142518291292  0.7999735202580425  0.9356212160011311  1.0000
  H   H9        1.0  0.7659406482066943  0.9978651208423411  0.1280474835542265  1.0000
  H   H10       1.0  0.23406032201121724  0.002139561526199401  0.8719529309919241  1.0000
  H   H11       1.0  0.6225012013181654  0.8118212195549218  0.16535991121065755  1.0000
  H   H12       1.0  0.3775003452965464  0.188187555746019  0.8346421237107791  1.0000
  H   H13       1.0  0.4339723226334868  0.6506164203577213  0.011691243549279213  1.0000
  H   H14       1.0  0.566022014146654  0.34937915046484846  0.9883118601588948  1.0000
  H   H15       1.0  0.3925699172996531  0.6806963743793516  0.8203364544799143  1.0000
  H   H16       1.0  0.6074308207658987  0.31929907076602143  0.1796583433120205  1.0000
  H   H17       1.0  0.5505233461468252  0.974570762714741  0.7469410675700061  1.0000
  H   H18       1.0  0.44948032862171067  0.0254226544888354  0.25305541510137186  1.0000
  H   H19       1.0  0.42639676725462994  0.8182086460065247  0.6973294988565399  1.0000
  H   H20       1.0  0.5736041398822921  0.18178790612797255  0.3026725475845709  1.0000
  H   H21       1.0  0.7022070183132172  0.7691167353544016  0.50637636156236  1.0000
  H   H22       1.0  0.297790435950958  0.23088587245143793  0.4936199656084598  1.0000
  H   H23       1.0  0.5318108819940548  0.8236694761296517  0.5153506153052305  1.0000
  H   H24       1.0  0.4681817083719794  0.17632905552376593  0.4846441539235117  1.0000
  H   H25       1.0  0.8231810060899961  0.008304997998216398  0.6225395159360261  1.0000
  H   H26       1.0  0.1768115899839628  0.9916935527994397  0.37745681753393967  1.0000
  H   H27       1.0  0.7066171870083197  0.004563107537805399  0.49047913815232397  1.0000
  H   H28       1.0  0.29338212566208455  0.9954374549839572  0.50951712973486  1.0000
  H   H29       1.0  0.6675500068238024  0.2572784804109815  0.5860054409224845  1.0000
  H   H30       1.0  0.3324494663560813  0.7427231603835549  0.41399572925204353  1.0000
  H   H31       1.0  0.7902092785206138  0.232710440192811  0.7045154227969165  1.0000
  H   H32       1.0  0.2097859760467955  0.7672840696992579  0.2954845227869924  1.0000
  H   H33       1.0  0.6040530340737861  0.2512103464974871  0.8101915954238664  1.0000
  H   H34       1.0  0.3959472249235104  0.7487892508149441  0.18980933554517065  1.0000
  H   H35       1.0  0.46657630623130336  0.2393408896613565  0.6875940851471825  1.0000
  H   H36       1.0  0.5334233763691927  0.7606546147186817  0.3124052254465751  1.0000
  H   H37       1.0  0.7405890777132241  0.6353724433157522  0.8965653157185685  1.0000
  H   H38       1.0  0.2594100801556252  0.36462706007748114  0.103427614122495  1.0000
  H   H39       1.0  0.7339312986989697  0.4847483213226837  0.943056748706397  1.0000
  H   H40       1.0  0.26606738010161723  0.5152553342376077  0.05694231431177592  1.0000
  H   H41       1.0  0.8952909027191185  0.6604833734018881  0.766144907041415  1.0000
  H   H42       1.0  0.10471863964750841  0.33952126583458403  0.2338546005177093  1.0000
  H   H43       1.0  0.12650075708013017  0.6128448912187919  0.7146176546899738  1.0000
  H   H44       1.0  0.8735148049321356  0.38715672254626543  0.285386214312311  1.0000
  H   H45       1.0  0.24991424423564004  0.42269182040986636  0.7669855603386323  1.0000
  H   H46       1.0  0.7500923468643634  0.5773068792603339  0.23302719028641405  1.0000
  H   H47       1.0  0.1413928446902517  0.27711751614910435  0.8651253327544738  1.0000
  H   H48       1.0  0.8586108756417231  0.7228913512690693  0.13488488321678457  1.0000
  C   C1        1.0  0.9524701577299555  0.19639316002482582  0.9500700146719937  1.0000
  C   C2        1.0  0.047528102329358966  0.8036074713037208  0.049931548137621455  1.0000
  C   C3        1.0  0.8597511479899823  0.12515903750427523  0.006039239738484485  1.0000
  C   C4        1.0  0.14024497259960358  0.8748416165724392  0.9939635274686582  1.0000
  C   C5        1.0  0.6653361216448772  0.9407745248574882  0.9513802670035432  1.0000
  C   C6        1.0  0.33466335724293134  0.059227135081286485  0.04862246741220841  1.0000
  C   C7        1.0  0.6869309307165281  0.92673691361567  0.05971297951787574  1.0000
  C   C8        1.0  0.3130645331715485  0.0732667569226351  0.9402863258553538  1.0000
  C   C9        1.0  0.6039299713347789  0.8219797040920866  0.08078250673562336  1.0000
  C   C10       1.0  0.39606356250418884  0.17801785277988094  0.9192161434543635  1.0000
  C   C11       1.0  0.498226290380565  0.7327411951165104  0.995488805113162  1.0000
  C   C12       1.0  0.5017779664926892  0.26725633416369016  0.004510862174726088  1.0000
  C   C13       1.0  0.47510497259511913  0.7494137506436614  0.8880556275368008  1.0000
  C   C14       1.0  0.5248977843861412  0.25058072749040855  0.1119440132588423  1.0000
  C   C15       1.0  0.5575364761209373  0.851915400446202  0.8639919427026469  1.0000
  C   C16       1.0  0.4424654978968832  0.14808113074209214  0.1360087194190882  1.0000
  C   C17       1.0  0.5339471860756078  0.8676248243986034  0.7484874021249439  1.0000
  C   C18       1.0  0.466058002854723  0.13237169181167724  0.25151301764173445  1.0000
  C   C19       1.0  0.6472902261707532  0.8403475190512566  0.5573041277368276  1.0000
  C   C20       1.0  0.35270436598722205  0.15964998815816495  0.4426907917719518  1.0000
  C   C21       1.0  0.7093955719120332  0.9867880508835535  0.5729217991841153  1.0000
  C   C22       1.0  0.29060008712684043  0.013209435379671702  0.4270717360052815  1.0000
  C   C23       1.0  0.6755155894276613  0.21526129586083428  0.6588212348301355  1.0000
  C   C24       1.0  0.3244820885269278  0.784735223391088  0.34117714336297666  1.0000
  C   C25       1.0  0.5799194992737142  0.27957462835931307  0.7312112105987296  1.0000
  C   C26       1.0  0.42008047295215795  0.7204229272729846  0.26878930124297534  1.0000
  C   C27       1.0  0.7468654024752298  0.5251912000478071  0.8733493731830323  1.0000
  C   C28       1.0  0.253133775371353  0.4748083703502458  0.1266490315023177  1.0000
  C   C29       1.0  0.8859121277608394  0.4962694637635179  0.8434954153517253  1.0000
  C   C30       1.0  0.11409172168703209  0.5037403766341411  0.15651109958013618  1.0000
  C   C31       1.0  0.9501248093322022  0.5768082554752282  0.7883159301019589  1.0000
  C   C32       1.0  0.0498872595580195  0.4231913603040525  0.21169010848988992  1.0000
  C   C33       1.0  0.07989883863856308  0.5510807350487494  0.7601188192831643  1.0000
  C   C34       1.0  0.9201025129252899  0.4489189274665363  0.23988776645201423  1.0000
  C   C35       1.0  0.14806750083048573  0.4432200168058102  0.7883412521082676  1.0000
  C   C36       1.0  0.8519419869170903  0.5567918179736961  0.2116634530777475  1.0000
  C   C37       1.0  0.0864253624758504  0.36055283058159654  0.8433811924228891  1.0000
  C   C38       1.0  0.9135738439103493  0.6394468355376188  0.15662503346857895  1.0000
  C   C39       1.0  0.9552532750538065  0.38630360296451727  0.8701395150481945  1.0000
  C   C40       1.0  0.044753574277997574  0.6136970426646612  0.12986583349806577  1.0000
  S   S1        1.0  0.6680201377186137  0.782762521874659  0.6831195832647055  1.0000
  S   S2        1.0  0.3319781769597583  0.21723091391086058  0.3168767819180331  1.0000
  S   S3        1.0  0.5810412211271583  0.4626743153817685  0.7617806588887674  1.0000
  S   S4        1.0  0.41896410262699396  0.5373231929522362  0.23821762407973782  1.0000
  I   I1        1.0  0.7112441582865474  0.4607787310011701  0.4644922653756823  1.0000
  I   I2        1.0  0.28874187313856237  0.5392188576287891  0.5355066896025704  1.0000
  O   O1        1.0  0.8844916817311201  0.30741441587008467  0.920507898207866  1.0000
  O   O2        1.0  0.1155113131104315  0.6925893186313984  0.07949892358321618  1.0000
  O   O3        1.0  0.7436305364690982  0.03739631425069229  0.9221050516798288  1.0000
  O   O4        1.0  0.25636878476319674  0.9626042769874272  0.07789356256918711  1.0000
  O   O5        1.0  0.6222239656737261  0.07296610923343388  0.626916735949827  1.0000
  O   O6        1.0  0.3777686104224999  0.9270323745594027  0.3730741226758596  1.0000
