data_image0
_chemical_formula_structural       Cd2H48C44N12O8
_chemical_formula_sum              "Cd2 H48 C44 N12 O8"
_cell_length_a       8.80735777
_cell_length_b       9.79297383197097
_cell_length_c       13.3314
_cell_angle_alpha    104.35071179117989
_cell_angle_beta     90.0
_cell_angle_gamma    90.0

_space_group_name_H-M_alt    "P 1"
_space_group_IT_number       1

loop_
  _space_group_symop_operation_xyz
  'x, y, z'

loop_
  _atom_site_type_symbol
  _atom_site_label
  _atom_site_symmetry_multiplicity
  _atom_site_fract_x
  _atom_site_fract_y
  _atom_site_fract_z
  _atom_site_occupancy
  Cd  Cd1       1.0  0.9999991177830835  1.0540294326e-06  1.9190753159999996e-07  1.0000
  Cd  Cd2       1.0  0.4999989911843912  0.0  0.5  1.0000
  H   H1        1.0  0.859053327636083  0.7387766088103547  0.06118920293928201  1.0000
  H   H2        1.0  0.3590566072803014  0.2612253848863162  0.4388113850864456  1.0000
  H   H3        1.0  0.1409457901470006  0.2612243308568836  0.9388111931789139  1.0000
  H   H4        1.0  0.6409447813313918  0.7387766088103547  0.56118995304805  1.0000
  H   H5        1.0  0.7542954622132925  0.0201983660523197  0.197855179845746  1.0000
  H   H6        1.0  0.2542987418575109  0.979801519585486  0.30214202392985356  1.0000
  H   H7        1.0  0.2456991139125719  0.9797994115266208  0.802141640114783  1.0000
  H   H8        1.0  0.7456992405112643  0.0201983660523197  0.6978581802808108  1.0000
  H   H9        1.0  0.3593949607431455  0.2518339826253921  0.1476705214628211  1.0000
  H   H10       1.0  0.8593984935847558  0.7481648489829809  0.3523287407315436  1.0000
  H   H11       1.0  0.6405996153827189  0.7481659030124135  0.8523289326390752  1.0000
  H   H12       1.0  0.1406017596126361  0.2518350366548248  0.6476692131528239  1.0000
  H   H13       1.0  0.4575231420399106  0.2374896960519948  0.9667549977655197  1.0000
  H   H14       1.0  0.9575255394672126  0.7625112436152506  0.5332423979176113  1.0000
  H   H15       1.0  0.5424725695002621  0.7625112436152506  0.0332423979176113  1.0000
  H   H16       1.0  0.0424724429015697  0.2374875879931224  0.4667583644942822  1.0000
  H   H17       1.0  0.7075992780976819  0.11724180205247589  0.914404752370892  1.0000
  H   H18       1.0  0.2076002869132907  0.8827591376147695  0.5855948936385431  1.0000
  H   H19       1.0  0.2923987042711005  0.8827580835853297  0.08559470173100435  1.0000
  H   H20       1.0  0.7923965600411833  0.1172407480230433  0.4144060606808893  1.0000
  H   H21       1.0  0.9194482853397261  0.8123742140706582  0.7168562752768394  1.0000
  H   H22       1.0  0.4194481587410266  0.1876225094788424  0.7831448534287517  1.0000
  H   H23       1.0  0.0805508324433575  0.1876256715671474  0.2831439289338249  1.0000
  H   H24       1.0  0.5805543652849678  0.8123752681000909  0.21685496696684223  1.0000
  H   H25       1.0  0.9843871710913844  0.6371270641816622  0.6618411103047065  1.0000
  H   H26       1.0  0.48438817990699323  0.3628707133972711  0.8381587100908873  1.0000
  H   H27       1.0  0.015610811277397798  0.3628728214561434  0.3381575936884288  1.0000
  H   H28       1.0  0.5156143441190082  0.6371281182111019  0.1618413022122382  1.0000
  H   H29       1.0  0.1074953493117832  0.762500703320903  0.7412006330646291  1.0000
  H   H30       1.0  0.6074943404961743  0.23749602022859762  0.7587982453146651  1.0000
  H   H31       1.0  0.8925026330569992  0.23749812828746997  0.2587978790209675  1.0000
  H   H32       1.0  0.3925070481155188  0.7625028113797754  0.2412002667709316  1.0000
  H   H33       1.0  0.8681025796457433  0.4536247557620782  0.762147415072519  1.0000
  H   H34       1.0  0.3680933697326125  0.5463730218168621  0.7378539055406035  1.0000
  H   H35       1.0  0.1319010797945595  0.5463740758462947  0.23785259723060645  1.0000
  H   H36       1.0  0.6319023418075602  0.45362580979151085  0.2621476069800508  1.0000
  H   H37       1.0  0.8239644839589602  0.4666641538956283  0.05941101216193798  1.0000
  H   H38       1.0  0.3239643573602677  0.5333346777127446  0.44058975024995556  1.0000
  H   H39       1.0  0.1760380400670414  0.5333357317421772  0.9405891920487263  1.0000
  H   H40       1.0  0.6760370312514254  0.4666662619545008  0.5594121460857693  1.0000
  H   H41       1.0  0.7923443309831626  0.3475525036264457  0.9369749506492012  1.0000
  H   H42       1.0  0.2923442043844631  0.6524463279819273  0.5630250616539242  1.0000
  H   H43       1.0  0.2076559222142293  0.6524473820113599  0.06302450345269507  1.0000
  H   H44       1.0  0.7076583196415314  0.347554611685311  0.4369768346818077  1.0000
  H   H45       1.0  0.6485486509309837  0.4687479700875343  0.9942436590784849  1.0000
  H   H46       1.0  0.1485473889179829  0.531252969579711  0.5057559869309499  1.0000
  H   H47       1.0  0.3514538730950179  0.531252969579711  0.005757487148478876  1.0000
  H   H48       1.0  0.851452864279409  0.468752186205272  0.4942459269261548  1.0000
  C   C1        1.0  0.49006979308846615  0.1364799472900131  0.2909612914997339  1.0000
  C   C2        1.0  0.9900665134442477  0.8635178302889274  0.2090377787870921  1.0000
  C   C3        1.0  0.5099327309375354  0.8635167762594946  0.7090390870970893  1.0000
  C   C4        1.0  0.0099303335102263  0.1364831093783181  0.7909633674398648  1.0000
  C   C5        1.0  0.6879577460380588  0.0723823093223857  0.1493069128110847  1.0000
  C   C6        1.0  0.1879587548536676  0.9276165222859873  0.35069159927451204  1.0000
  C   C7        1.0  0.3120391009164152  0.9276154682565547  0.8506914073669805  1.0000
  C   C8        1.0  0.8120392275151076  0.0723833633518183  0.6493086049361523  1.0000
  C   C9        1.0  0.5500060434129495  0.1366654564704746  0.18521247875049338  1.0000
  C   C10       1.0  0.0500093230571679  0.8633354831967638  0.3147856670414058  1.0000
  C   C11       1.0  0.4499862618843053  0.863334429167331  0.814786225242635  1.0000
  C   C12       1.0  0.9499886593116145  0.1366644024410419  0.6852145371692586  1.0000
  C   C13       1.0  0.46635212367443296  0.2002750788099519  0.11994751382950847  1.0000
  C   C14       1.0  0.9663556565160433  0.7997248068278537  0.380050440054859  1.0000
  C   C15       1.0  0.5336424524514314  0.7997237527984211  0.8800509982560883  1.0000
  C   C16       1.0  0.0336434612670473  0.2002729707510866  0.619949380340735  1.0000
  C   C17       1.0  0.5213334259725428  0.1931551099802604  0.02102227224184359  1.0000
  C   C18       1.0  0.0213367056167613  0.8068447756575452  0.4789764317512847  1.0000
  C   C19       1.0  0.4786600147390203  0.8068437216281126  0.9789762398437533  1.0000
  C   C20       1.0  0.978661276752014  0.1931540559508207  0.5210228304430727  1.0000
  C   C21       1.0  0.6594963156583589  0.1261641612150726  0.9911571431958988  1.0000
  C   C22       1.0  0.1594973244739677  0.8738378324816054  0.5088404443947709  1.0000
  C   C23       1.0  0.3405005312961222  0.873835724422733  0.008842310905997384  1.0000
  C   C24       1.0  0.8404995224805063  0.1261631071856399  0.4911592016146571  1.0000
  C   C25       1.0  0.9893091921029081  0.7259690971523867  0.7304724686807373  1.0000
  C   C26       1.0  0.4893090655042158  0.2740286804265537  0.7695281018236173  1.0000
  C   C27       1.0  0.010688790265867  0.274030788485419  0.2695284856386877  1.0000
  C   C28       1.0  0.5106911876931761  0.7259690971523867  0.23047096846320864  1.0000
  C   C29       1.0  0.9323715709575424  0.6802178955207552  0.8221477809949747  1.0000
  C   C30       1.0  0.4323680381159321  0.3197819901170575  0.6778539234332185  1.0000
  C   C31       1.0  0.0676275468255412  0.3197809360876178  0.17785148119938296  1.0000
  C   C32       1.0  0.5676310796671515  0.6802178955207552  0.3221477809949747  1.0000
  C   C33       1.0  0.8767033430049906  0.5466639339407635  0.8260394012368906  1.0000
  C   C34       1.0  0.3766952685061611  0.4533327896087371  0.6739617274686935  1.0000
  C   C35       1.0  0.1232980456067025  0.45333805975590735  0.17396118678883707  1.0000
  C   C36       1.0  0.6232993076197033  0.5466649879702032  0.32604034325319736  1.0000
  C   C37       1.0  0.8361542919358413  0.5584005516933388  0.9290764221536634  1.0000
  C   C38       1.0  0.336150759094231  0.4415993339444668  0.5709245321657689  1.0000
  C   C39       1.0  0.1638470966758518  0.4415993339444668  0.07092528227452989  1.0000
  C   C40       1.0  0.663846087860243  0.5584016057227785  0.429076614061195  1.0000
  C   C41       1.0  0.7719999774688375  0.45518050320732323  0.9828313786962752  1.0000
  C   C42       1.0  0.2719998508701451  0.5448183284010497  0.5171686336068575  1.0000
  C   C43       1.0  0.2280014111428557  0.544820436459915  0.017168267313159912  1.0000
  C   C44       1.0  0.7280004023272468  0.4551826112661885  0.4828332627288745  1.0000
  N   N1        1.0  0.7432251727409991  0.0687690964211001  0.054704681848519995  1.0000
  N   N2        1.0  0.2432273169709092  0.9312307892167055  0.4452917718183116  1.0000
  N   N3        1.0  0.2567694033848724  0.9312318432461453  0.9452934639433789  1.0000
  N   N4        1.0  0.7567695299835648  0.0687690964211001  0.5547091825011208  1.0000
  N   N5        1.0  0.9256828452876605  0.7685455621274571  0.9175806382908434  1.0000
  N   N6        1.0  0.425682718688968  0.23145326948090877  0.5824193740122823  1.0000
  N   N7        1.0  0.0743174079097244  0.2314553775397812  0.08241900771858468  1.0000
  N   N8        1.0  0.5743175345084239  0.7685466161568968  0.41758158030714293  1.0000
  N   N9        1.0  0.8664778017755026  0.6926680912004457  0.9803824581342224  1.0000
  N   N10       1.0  0.3664788105911114  0.3073307404079273  0.5196168040601421  1.0000
  N   N11       1.0  0.1335224514218893  0.3073317944373599  0.019617746076441688  1.0000
  N   N12       1.0  0.6335214426062734  0.6926691452298783  0.4803818999329933  1.0000
  O   O1        1.0  0.5664672800046802  0.0691443308997606  0.3444440032261724  1.0000
  O   O2        1.0  0.0664671534059877  0.930855554738045  0.15555245044065907  1.0000
  O   O3        1.0  0.4335307023640951  0.9308566087674776  0.6555526423481907  1.0000
  O   O4        1.0  0.9335274227198767  0.0691506550763705  0.8444489052152092  1.0000
  O   O5        1.0  0.3669466012847096  0.2025770790947874  0.31780876899380667  1.0000
  O   O6        1.0  0.8669478632977103  0.7974228065430182  0.18219218532561848  1.0000
  O   O7        1.0  0.6330491102554561  0.7974228065430182  0.6821936855431544  1.0000
  O   O8        1.0  0.1330512544853732  0.2025760250653477  0.817808577086275  1.0000
