data_image0
_chemical_formula_structural       Zn2H48C72N2O8
_chemical_formula_sum              "Zn2 H48 C72 N2 O8"
_cell_length_a       10.276256976177093
_cell_length_b       14.357231384885575
_cell_length_c       14.32896075924577
_cell_angle_alpha    87.09887405801074
_cell_angle_beta     77.11637019570911
_cell_angle_gamma    73.62211145766007

_space_group_name_H-M_alt    "P 1"
_space_group_IT_number       1

loop_
  _space_group_symop_operation_xyz
  'x, y, z'

loop_
  _atom_site_type_symbol
  _atom_site_label
  _atom_site_symmetry_multiplicity
  _atom_site_fract_x
  _atom_site_fract_y
  _atom_site_fract_z
  _atom_site_occupancy
  Zn  Zn1       1.0  0.13642708055006394  0.9915227697573384  0.017666877081637694  1.0000
  Zn  Zn2       1.0  0.891134779540913  0.9734755086542318  0.9812739719023684  1.0000
  H   H1        1.0  0.2243918280513669  0.1713329988574159  0.7640561878299011  1.0000
  H   H2        1.0  0.9553975911855586  0.24149769587862818  0.20077889745606825  1.0000
  H   H3        1.0  0.4423454493934997  0.7586136677725364  0.8176811267614638  1.0000
  H   H4        1.0  0.5773582175741083  0.1629399013953545  0.22085103206242002  1.0000
  H   H5        1.0  0.7795537259303204  0.24853174408806206  0.8211058654383407  1.0000
  H   H6        1.0  0.05832943876265522  0.8031675520698086  0.727877503014881  1.0000
  H   H7        1.0  0.8430050903341096  0.7515628276982511  0.1841844445881122  1.0000
  H   H8        1.0  0.21805603564669712  0.7776635919766404  0.2504599838655537  1.0000
  H   H9        1.0  0.13762661945851568  0.18510303566792888  0.3429426683496501  1.0000
  H   H10       1.0  0.5518617650752163  0.6671059451745406  0.1878952553645803  1.0000
  H   H11       1.0  0.45090552518515625  0.33657883218848633  0.7819799133307016  1.0000
  H   H12       1.0  0.5634608638816871  0.2028636625082214  0.657967694473939  1.0000
  H   H13       1.0  0.8287596608321338  0.6721531582883173  0.7997223908956173  1.0000
  H   H14       1.0  0.4645888457233339  0.7972947203871428  0.31564494587325254  1.0000
  H   H15       1.0  0.13882506423756533  0.30984869862401593  0.21485016588110284  1.0000
  H   H16       1.0  0.8197485441721426  0.7973006407323023  0.6688192006112105  1.0000
  H   H17       1.0  0.22566201057975377  0.29779646359104106  0.6379549396422277  1.0000
  H   H18       1.0  0.8315507783780233  0.37552478463640426  0.3185606855957558  1.0000
  H   H19       1.0  0.5633950078271968  0.6384305137828221  0.6845501055302989  1.0000
  H   H20       1.0  0.45153113766293285  0.29633094894840173  0.3408195898996098  1.0000
  H   H21       1.0  0.7781945860158289  0.3754713638992867  0.6959118438577079  1.0000
  H   H22       1.0  0.17655791258738407  0.6814662648930393  0.5958510112352188  1.0000
  H   H23       1.0  0.8227967267209947  0.6312494933538133  0.3145661291781322  1.0000
  H   H24       1.0  0.2039584053388098  0.6541538435117572  0.37726821598356963  1.0000
  H   H25       1.0  0.07753375599129701  0.2355693802117358  0.512999037000327  1.0000
  H   H26       1.0  0.5994238976551713  0.4948738344071869  0.23230284156798575  1.0000
  H   H27       1.0  0.3947381618451615  0.5060268436379116  0.734523828352124  1.0000
  H   H28       1.0  0.6143895318112839  0.24357854365699438  0.48696842826738873  1.0000
  H   H29       1.0  0.9139413791022263  0.4988788701204853  0.758643763493957  1.0000
  H   H30       1.0  0.41285786904825983  0.7539485515512111  0.4851493133174287  1.0000
  H   H31       1.0  0.08377877643022921  0.482399712142552  0.25540166803077824  1.0000
  H   H32       1.0  0.9035779744780968  0.7453194905354648  0.5003353967991657  1.0000
  H   H33       1.0  0.37612046860127907  0.9777815135855119  0.16248471961628747  1.0000
  H   H34       1.0  0.41320482271009956  0.8015478813259307  0.047063196002653684  1.0000
  H   H35       1.0  0.14866399098777797  0.18021119180782819  0.050642159276385684  1.0000
  H   H36       1.0  0.5830055640974691  0.2234782735798646  0.9540667338690696  1.0000
  H   H37       1.0  0.6524959764160487  0.7359377004392368  0.06877067084339923  1.0000
  H   H38       1.0  0.634950168858026  0.9411950068210898  0.134615937356827  1.0000
  H   H39       1.0  0.324977303722925  0.24711229930759515  0.8647020026596622  1.0000
  H   H40       1.0  0.5915363001622966  0.05197295697548298  0.9502244958701951  1.0000
  H   H41       1.0  0.34751053879448784  0.12488281769062576  0.17886928713748057  1.0000
  H   H42       1.0  0.3816466234171045  0.8601351292539405  0.20688014834298224  1.0000
  H   H43       1.0  0.5132439316630197  0.07217719245218747  0.8519862265418894  1.0000
  H   H44       1.0  0.5955778893121674  0.20457454668522243  0.8298626649432563  1.0000
  H   H45       1.0  0.7358771085940535  0.8198734190750654  0.8101231479355064  1.0000
  H   H46       1.0  0.6314268759802532  0.8402184515279953  0.21083012344730884  1.0000
  H   H47       1.0  0.43424170470871815  0.2964679536772081  0.12155933394326723  1.0000
  H   H48       1.0  0.48765452406281184  0.9373827991556423  0.8167666580714439  1.0000
  C   C1        1.0  0.0016693750766236456  0.4192903481307794  0.5811637899078833  1.0000
  C   C2        1.0  0.5635907139855478  0.4239822533714062  0.4120762804454756  1.0000
  C   C3        1.0  0.44503267800394747  0.5743090113698344  0.5559725103329001  1.0000
  C   C4        1.0  0.003773722308949285  0.5612998356715265  0.43287619642017466  1.0000
  C   C5        1.0  0.12705227710680592  0.2169207607623136  0.7489357302550418  1.0000
  C   C6        1.0  0.8446682682715123  0.2544820442410582  0.23086007988582946  1.0000
  C   C7        1.0  0.3850612629909803  0.7417971677319812  0.7682715801381619  1.0000
  C   C8        1.0  0.6322401255106413  0.2101329372924639  0.24254451100320298  1.0000
  C   C9        1.0  0.8766959595954238  0.26006621261781493  0.7807834312873255  1.0000
  C   C10       1.0  0.16899315816289148  0.7666147390883822  0.717396785494202  1.0000
  C   C11       1.0  0.9206330976129992  0.7304488797708969  0.2277613635641132  1.0000
  C   C12       1.0  0.1319210407816982  0.7451271085895712  0.2644046176205848  1.0000
  C   C13       1.0  0.11321303061882312  0.2616042946666752  0.362287328986568  1.0000
  C   C14       1.0  0.5333185770977166  0.6474481633229345  0.2632066935557518  1.0000
  C   C15       1.0  0.4749515077875516  0.353626329678157  0.7063745378808122  1.0000
  C   C16       1.0  0.5375797359115281  0.27863886831532614  0.6361869327829268  1.0000
  C   C17       1.0  0.8631246694515725  0.6496503909195751  0.7246610696710788  1.0000
  C   C18       1.0  0.4818597839895559  0.7212547218528655  0.3351801590917844  1.0000
  C   C19       1.0  0.11370519858919445  0.3323257020040984  0.2894332750768244  1.0000
  C   C20       1.0  0.8590481007942686  0.7199320716490261  0.6511256467641573  1.0000
  C   C21       1.0  0.12739347537721113  0.28735773516042673  0.6782400077692898  1.0000
  C   C22       1.0  0.7748144186624656  0.3295399710282395  0.29699891896797226  1.0000
  C   C23       1.0  0.4523920950433078  0.6744634336337612  0.693873708901741  1.0000
  C   C24       1.0  0.5621082526934417  0.2848587821385351  0.309661279057984  1.0000
  C   C25       1.0  0.8765107390477668  0.3311520061375362  0.7108575552753892  1.0000
  C   C26       1.0  0.2357588262684588  0.6990197903798503  0.6435635994000323  1.0000
  C   C27       1.0  0.910317823404647  0.6626992076249605  0.3003185079143336  1.0000
  C   C28       1.0  0.1231198529059086  0.6762784671550717  0.3360376054460232  1.0000
  C   C29       1.0  0.0017841984373845906  0.20187146003192413  0.8006084445650075  1.0000
  C   C30       1.0  0.7746557104316808  0.19370817763067547  0.20247527397553705  1.0000
  C   C31       1.0  0.24242732982042964  0.7880747889126171  0.7811314960531064  1.0000
  C   C32       1.0  0.030595448320575338  0.7733152062832573  0.2094031199001378  1.0000
  C   C33       1.0  0.07942090119164648  0.2895439939761317  0.4568473052551667  1.0000
  C   C34       1.0  0.5592976212357499  0.5512428558529194  0.2877717951972726  1.0000
  C   C35       1.0  0.44339968101348864  0.4490498637914726  0.68016501898326  1.0000
  C   C36       1.0  0.566177783008712  0.3011345027797602  0.5408121050707991  1.0000
  C   C37       1.0  0.9109515595532045  0.5524555490111638  0.7019524781930145  1.0000
  C   C38       1.0  0.4532261361250604  0.697345218906186  0.4299104668304139  1.0000
  C   C39       1.0  0.08241871951576478  0.42887784260515366  0.3120339556842353  1.0000
  C   C40       1.0  0.9058686544545933  0.6913831790436902  0.5567153562665865  1.0000
  C   C41       1.0  0.0019655465005926995  0.3453880547902984  0.658004868960667  1.0000
  C   C42       1.0  0.6326876132153249  0.34570125805577584  0.33801339435286337  1.0000
  C   C43       1.0  0.37813081438159923  0.6512282298781358  0.6313226108705122  1.0000
  C   C44       1.0  0.01166832523971096  0.6345634634209533  0.3556448469219405  1.0000
  C   C45       1.0  0.042616573226830184  0.3896286515336627  0.4840290650964434  1.0000
  C   C46       1.0  0.5341648557954528  0.5227384672402593  0.38569274225912414  1.0000
  C   C47       1.0  0.47369188287360936  0.4758311320011045  0.5822409222892873  1.0000
  C   C48       1.0  0.5346622626438348  0.3997024640641698  0.5099392147200632  1.0000
  C   C49       1.0  0.9567940856139857  0.5192642773585234  0.6047393311981323  1.0000
  C   C50       1.0  0.4760556612880577  0.5984805506338517  0.45861232491466103  1.0000
  C   C51       1.0  0.0436716210920452  0.4615323015326851  0.4093129707578527  1.0000
  C   C52       1.0  0.9568420459943353  0.5910060233380604  0.5298654537168375  1.0000
  C   C53       1.0  0.0012832602380898426  0.123850416969745  0.8746804303118623  1.0000
  C   C54       1.0  0.8526001791440836  0.11308869431589126  0.1305292794501725  1.0000
  C   C55       1.0  0.16587266272297538  0.8587370161516218  0.8620580263164968  1.0000
  C   C56       1.0  0.037640517086863744  0.8490295178386517  0.13324367839111065  1.0000
  C   C57       1.0  0.3252683604193081  0.18022659114194534  0.125441167041636  1.0000
  C   C58       1.0  0.4656485196782186  0.8575249210155462  0.05266059581784791  1.0000
  C   C59       1.0  0.36364382160930825  0.09419699504466908  0.9822366959684105  1.0000
  C   C60       1.0  0.5303818149429701  0.20517082675098652  0.9018614968296532  1.0000
  C   C61       1.0  0.703842766365597  0.8424458004561968  0.9669306022031918  1.0000
  C   C62       1.0  0.5944592283063344  0.8777172846348479  0.1492931286515216  1.0000
  C   C63       1.0  0.31234286414041895  0.26939902378445163  0.009690137077832613  1.0000
  C   C64       1.0  0.5223031778922119  0.901492600221701  0.8793770606350649  1.0000
  C   C65       1.0  0.6587418684946159  0.8440241644816805  0.8754002591589581  1.0000
  C   C66       1.0  0.3814407924259129  0.26214097643078554  0.9162086636781339  1.0000
  C   C67       1.0  0.6242210756918852  0.8147862604072458  0.0580621287888476  1.0000
  C   C68       1.0  0.43624090797958814  0.9014507749526856  0.1537606744607131  1.0000
  C   C69       1.0  0.2576891267435498  0.1800797578532709  0.039398332228827805  1.0000
  C   C70       1.0  0.5062651274451255  0.10176348708277057  0.9225182682798163  1.0000
  C   C71       1.0  0.44151683291728716  0.9247591094382132  0.9707399640776372  1.0000
  C   C72       1.0  0.37119464519732054  0.2589563042959213  0.09478770815240267  1.0000
  N   N1        1.0  0.33584518703403193  0.0105919087902322  0.9953130831366652  1.0000
  N   N2        1.0  0.7684759050377965  0.9049618114056484  0.9438574876827345  1.0000
  O   O1        1.0  0.1148374928243356  0.08601110935932609  0.9017382464062395  1.0000
  O   O2        1.0  0.9841906931765791  0.09932091188199618  0.10445564894624221  1.0000
  O   O3        1.0  0.23145116363256335  0.8721418484840485  0.9237920932815628  1.0000
  O   O4        1.0  0.7835009983918866  0.06474411260788318  0.09998232989968155  1.0000
  O   O5        1.0  0.8883221951825182  0.10071241012328609  0.9050442056668404  1.0000
  O   O6        1.0  0.03882313327171253  0.9010209356478213  0.8642507395428468  1.0000
  O   O7        1.0  0.9515413344235956  0.8626694954214711  0.0789192601481688  1.0000
  O   O8        1.0  0.12888271498940196  0.8950771427586374  0.12846037335929592  1.0000
