data_image0
_chemical_formula_structural       Zn2H40C36N12O12
_chemical_formula_sum              "Zn2 H40 C36 N12 O12"
_cell_length_a       9.218275184008972
_cell_length_b       8.839462116629255
_cell_length_c       12.530211862251148
_cell_angle_alpha    90.00026814096314
_cell_angle_beta     89.9992758131116
_cell_angle_gamma    108.91654567628676

_space_group_name_H-M_alt    "P 1"
_space_group_IT_number       1

loop_
  _space_group_symop_operation_xyz
  'x, y, z'

loop_
  _atom_site_type_symbol
  _atom_site_label
  _atom_site_symmetry_multiplicity
  _atom_site_fract_x
  _atom_site_fract_y
  _atom_site_fract_z
  _atom_site_occupancy
  Zn  Zn1       1.0  0.9999970894219883  0.5000025710569104  0.9999991665918769  1.0000
  Zn  Zn2       1.0  2.4088926478828155e-06  0.9999963444742617  0.5000002801858869  1.0000
  H   H1        1.0  0.544868502435996  0.14050864033075783  0.8407448398214115  1.0000
  H   H2        1.0  0.4551448172298862  0.3594987042562465  0.34073649356788843  1.0000
  H   H3        1.0  0.4551371327355085  0.8594930869148527  0.1592638813164484  1.0000
  H   H4        1.0  0.5448619577493687  0.6405066105077776  0.6592514777215541  1.0000
  H   H5        1.0  0.7189154177715694  0.9817283070209372  0.8135542546946154  1.0000
  H   H6        1.0  0.2810959729494726  0.518277473892347  0.3135512576453863  1.0000
  H   H7        1.0  0.2810868561259667  0.0182662541210519  0.18645686066106748  1.0000
  H   H8        1.0  0.7189093977474457  0.4817302504857037  0.6864446943653632  1.0000
  H   H9        1.0  0.6374065802428744  0.6915007570556355  0.8534665175543451  1.0000
  H   H10       1.0  0.3626020359673134  0.8085086930581084  0.35346765301182603  1.0000
  H   H11       1.0  0.3625844939120668  0.30849269784322086  0.1465453959228427  1.0000
  H   H12       1.0  0.6374051764046413  0.1915014140537963  0.6465362797050744  1.0000
  H   H13       1.0  0.3725204747753068  0.547698133011984  0.9231934030373239  1.0000
  H   H14       1.0  0.6274890804957706  0.9523077983979319  0.42319411589370043  1.0000
  H   H15       1.0  0.6274663867597567  0.452302550710307  0.0768153181862701  1.0000
  H   H16       1.0  0.3725208826589679  0.04769389300417259  0.5768098167973505  1.0000
  H   H17       1.0  0.1740124749364398  0.16125654574866388  0.9905030438881539  1.0000
  H   H18       1.0  0.825994009741926  0.33875104024217956  0.4904959705856058  1.0000
  H   H19       1.0  0.8259820758825499  0.8387512682315615  0.0094953023863837  1.0000
  H   H20       1.0  0.17400253210380612  0.6612459663398056  0.5095023756628976  1.0000
  H   H21       1.0  0.32665242625559904  0.22110138364103446  0.8972438277966076  1.0000
  H   H22       1.0  0.6733533403275231  0.2788988992770456  0.3972411814999788  1.0000
  H   H23       1.0  0.6733439086569462  0.7789052165748557  0.1027545184677479  1.0000
  H   H24       1.0  0.32664606763763254  0.721096884577278  0.6027523763066753  1.0000
  H   H25       1.0  0.9987952164145073  0.017757049598287698  0.836511164289348  1.0000
  H   H26       1.0  0.001215019739405051  0.48223352944362574  0.3365106153977848  1.0000
  H   H27       1.0  0.0012031671930970173  0.9822423397104385  0.16348478774097694  1.0000
  H   H28       1.0  0.9987894182232397  0.5177610137705885  0.663489326952366  1.0000
  H   H29       1.0  0.14339632259373053  0.1193510439567831  0.7470243969710921  1.0000
  H   H30       1.0  0.856620292432531  0.3806513617309192  0.2470179668178005  1.0000
  H   H31       1.0  0.8566024985134604  0.8806531376910628  0.2529747473490431  1.0000
  H   H32       1.0  0.1433869539878998  0.619338362264024  0.7529787832273983  1.0000
  H   H33       1.0  0.8775639349274514  0.606129403230362  0.8222774470303946  1.0000
  H   H34       1.0  0.12243231127779804  0.8938633249682081  0.3222707073843196  1.0000
  H   H35       1.0  0.12243667028664619  0.39387356465206835  0.1777201011373535  1.0000
  H   H36       1.0  0.8775615138002166  0.1061217142093511  0.6777244465738477  1.0000
  H   H37       1.0  0.8625180529025797  0.4214476734325671  0.8260537029424242  1.0000
  H   H38       1.0  0.1374826204438691  0.07854297189550859  0.3260530273961848  1.0000
  H   H39       1.0  0.13747600273514854  0.5785517517185638  0.17394544139251167  1.0000
  H   H40       1.0  0.862518076380141  0.9214432093697837  0.6739477130294986  1.0000
  C   C1        1.0  0.36021288598157497  0.9307286781072363  0.8963397600766996  1.0000
  C   C2        1.0  0.6397942527856841  0.5692784391643784  0.396336775572621  1.0000
  C   C3        1.0  0.6397834488775302  0.06927792211303796  0.10366497075647631  1.0000
  C   C4        1.0  0.3602052704960741  0.43072453767371843  0.6036543880313516  1.0000
  C   C5        1.0  0.507191070272654  0.012841664746666499  0.8574963294913401  1.0000
  C   C6        1.0  0.4928143950699634  0.48716576555381147  0.3574872307623522  1.0000
  C   C7        1.0  0.4928106168337151  0.9871612941833727  0.1425123916667985  1.0000
  C   C8        1.0  0.5071884895191516  0.5128443773851643  0.642497548268274  1.0000
  C   C9        1.0  0.6034819174296898  0.9222299673067693  0.8430745515029231  1.0000
  C   C10       1.0  0.3965308784763835  0.5777818333496612  0.3430738571729961  1.0000
  C   C11       1.0  0.396515326443641  0.07776583447751757  0.1569333715936807  1.0000
  C   C12       1.0  0.6034803396891419  0.4222306385639527  0.6569204986757101  1.0000
  C   C13       1.0  0.556442540378704  0.7563052147542846  0.8663143434384324  1.0000
  C   C14       1.0  0.4435679094282321  0.7436970420891527  0.3663153224074093  1.0000
  C   C15       1.0  0.4435528617260829  0.24368820430380816  0.1336967719474558  1.0000
  C   C16       1.0  0.5564373459587699  0.2563034893045709  0.6336822257349225  1.0000
  C   C17       1.0  0.41115974749646966  0.6750837731242781  0.9054243677993412  1.0000
  C   C18       1.0  0.5888429112491096  0.8249233924571443  0.4054210545990173  1.0000
  C   C19       1.0  0.5888245701889973  0.3249157326739009  0.0945843534342643  1.0000
  C   C20       1.0  0.41116029548290806  0.1750843498404606  0.5945740993507229  1.0000
  C   C21       1.0  0.31229267848083697  0.7654358941452626  0.9204239163180503  1.0000
  C   C22       1.0  0.6877204913838071  0.734567605930934  0.42041940264068955  1.0000
  C   C23       1.0  0.6877004104275741  0.2345707329546229  0.0795800164591682  1.0000
  C   C24       1.0  0.312294824151806  0.2654304441699863  0.5795725589532594  1.0000
  C   C25       1.0  0.21449438473247537  0.13230976344962636  0.9133508828866752  1.0000
  C   C26       1.0  0.7855090059062845  0.36769415598868693  0.4133458722809706  1.0000
  C   C27       1.0  0.7855019501867488  0.8676968367657165  0.0866466653065743  1.0000
  C   C28       1.0  0.2144904020588712  0.6323016278656368  0.5866476855256906  1.0000
  C   C29       1.0  0.09712275867216391  0.12747736774335286  0.8268492927389488  1.0000
  C   C30       1.0  0.902883806484468  0.3725216227040704  0.3268455990799167  1.0000
  C   C31       1.0  0.9028735185921022  0.8725256359798336  0.1731490535200919  1.0000
  C   C32       1.0  0.09712457954999112  0.6274716888251675  0.673153545178849  1.0000
  C   C33       1.0  0.03802743104825618  0.2687425645832348  0.8325791393404671  1.0000
  C   C34       1.0  0.9619713489320245  0.23124930346890685  0.3325824381097248  1.0000
  C   C35       1.0  0.9619659224883886  0.7312580653716195  0.16741920692849993  1.0000
  C   C36       1.0  0.03803346886187603  0.7687464355933712  0.6674230907382322  1.0000
  N   N1        1.0  0.2367753003820284  0.9768868755603323  0.9227182521330164  1.0000
  N   N2        1.0  0.7632328587096423  0.5231214647992173  0.4227091872714722  1.0000
  N   N3        1.0  0.7632189281604552  0.023123339072213894  0.0772856806444651  1.0000
  N   N4        1.0  0.23677742679507927  0.4768778259445411  0.5772803801344963  1.0000
  N   N5        1.0  0.12112649168240346  0.8525393503735826  0.959507280927518  1.0000
  N   N6        1.0  0.8788827779652737  0.647464230228401  0.45950071800756126  1.0000
  N   N7        1.0  0.8788687612042736  0.14746725880564773  0.0404958537685047  1.0000
  N   N8        1.0  0.12112496364309067  0.35253388259507545  0.5404944359061403  1.0000
  N   N9        1.0  0.16432940696232373  0.7250550659346754  0.9584701877395503  1.0000
  N   N10       1.0  0.8356758742800068  0.7749461484398663  0.45847000898285023  1.0000
  N   N11       1.0  0.8356640041825115  0.2749491605161722  0.0415329469613397  1.0000
  N   N12       1.0  0.16433078530916842  0.22505197334640306  0.5415291352914123  1.0000
  O   O1        1.0  0.10788285844678573  0.38235113707741425  0.8953768114574885  1.0000
  O   O2        1.0  0.892119751036539  0.117652766654551  0.3953796096667617  1.0000
  O   O3        1.0  0.8921094131307825  0.6176495018353021  0.1046183425321061  1.0000
  O   O4        1.0  0.10788761057356305  0.8823441503345747  0.6046299095267074  1.0000
  O   O5        1.0  0.9213987260997527  0.2633695905074518  0.7758680785379256  1.0000
  O   O6        1.0  0.0786034318187561  0.23661618463910367  0.2758700376038874  1.0000
  O   O7        1.0  0.07859749353627878  0.7366298167213827  0.22412787350249633  1.0000
  O   O8        1.0  0.9214027325290391  0.7633735483230096  0.7241370873706926  1.0000
  O   O9        1.0  0.8459174396427757  0.5097049442556879  0.8692112081548231  1.0000
  O   O10       1.0  0.154081968910866  0.9902866166828306  0.3692068674349613  1.0000
  O   O11       1.0  0.15408132381612918  0.490295640899454  0.1307879361599973  1.0000
  O   O12       1.0  0.8459121783634913  0.009696021848974098  0.6307922768734926  1.0000
