data_image0
_chemical_formula_structural       Mg6H54C96O18
_chemical_formula_sum              "Mg6 H54 C96 O18"
_cell_length_a       6.788558968340999
_cell_length_b       32.37369438754761
_cell_length_c       32.38207738406447
_cell_angle_alpha    119.53464584382954
_cell_angle_beta     93.99691446281031
_cell_angle_gamma    93.99221713732759

_space_group_name_H-M_alt    "P 1"
_space_group_IT_number       1

loop_
  _space_group_symop_operation_xyz
  'x, y, z'

loop_
  _atom_site_type_symbol
  _atom_site_label
  _atom_site_symmetry_multiplicity
  _atom_site_fract_x
  _atom_site_fract_y
  _atom_site_fract_z
  _atom_site_occupancy
  Mg  Mg1       1.0  2.728682029848511e-05  0.6946769080420765  0.3694006383176004  1.0000
  Mg  Mg2       1.0  0.6307493817268368  0.6304946431311154  0.32531597524396744  1.0000
  Mg  Mg3       1.0  0.305389536743263  0.6745894011954688  0.3052769471464671  1.0000
  Mg  Mg4       1.0  0.999973774959912  0.30532287686951776  0.6305996495820665  1.0000
  Mg  Mg5       1.0  0.36925168005338094  0.36950514178047905  0.6746843126557066  1.0000
  Mg  Mg6       1.0  0.6946126460424297  0.32540966841407487  0.6947226961394292  1.0000
  H   H1        1.0  0.6611120394915205  0.4460909517658251  0.6184438028817709  1.0000
  H   H2        1.0  0.6517978051407667  0.5188575191061773  0.6323455678170689  1.0000
  H   H3        1.0  0.6504937311149421  0.5447638136624137  0.5922649905862656  1.0000
  H   H4        1.0  0.6189486254684625  0.42656465217405065  0.5090168508026593  1.0000
  H   H5        1.0  0.46953762807094535  0.3718364995886745  0.4258013213347951  1.0000
  H   H6        1.0  0.6001499225196625  0.3783742552558564  0.35860253570261597  1.0000
  H   H7        1.0  0.8812466382285251  0.43917240938282726  0.37504798880753043  1.0000
  H   H8        1.0  0.668174082602505  0.6023537520919506  0.41787845444095256  1.0000
  H   H9        1.0  0.7946311667215583  0.5440992108735968  0.43869783037290944  1.0000
  H   H10       1.0  0.042907129562017636  0.3814461699102907  0.8275946216988075  1.0000
  H   H11       1.0  0.019801354223027173  0.36766018072462714  0.8865620243474481  1.0000
  H   H12       1.0  0.0590228979024729  0.4078495178033633  0.9525694146757573  1.0000
  H   H13       1.0  0.11086000834995963  0.4911271586796673  0.9174008835850458  1.0000
  H   H14       1.0  0.04476059303637928  0.5743789872534251  0.945967070412607  1.0000
  H   H15       1.0  0.24232428126508423  0.6415495532943966  0.01977533915053449  1.0000
  H   H16       1.0  0.506560670254828  0.6250130439689414  0.06413882380444859  1.0000
  H   H17       1.0  0.25052198625684247  0.5820225348018083  0.18455151851014057  1.0000
  H   H18       1.0  0.3560106294613378  0.561175224795747  0.10546735376919977  1.0000
  H   H19       1.0  0.215136314486557  0.17253733578294117  0.5539093263246357  1.0000
  H   H20       1.0  0.13268467874375742  0.11354801515005869  0.4812079595687634  1.0000
  H   H21       1.0  0.10554624824997919  0.047538730102004906  0.4553412605842126  1.0000
  H   H22       1.0  0.19202512049145778  0.0824429385142054  0.5734817252188193  1.0000
  H   H23       1.0  0.09715788488011871  0.053862267002173794  0.628119915833146  1.0000
  H   H24       1.0  0.22189565022134872  0.9801531017418837  0.6215820489690389  1.0000
  H   H25       1.0  0.44246046449369203  0.9358753331402098  0.560811704757569  1.0000
  H   H26       1.0  0.06599279489173444  0.8155227135204443  0.3976519520009704  1.0000
  H   H27       1.0  0.25079617433305407  0.8945881178272259  0.4558559330632336  1.0000
  H   H28       1.0  0.33888334708594675  0.5539063300830449  0.38155424137084987  1.0000
  H   H29       1.0  0.34821685593627194  0.4811458411976446  0.3676563741227384  1.0000
  H   H30       1.0  0.34952665794887855  0.45523918874399544  0.407736859857785  1.0000
  H   H31       1.0  0.3810573989081831  0.5734362053701572  0.4909846566597977  1.0000
  H   H32       1.0  0.530463067085549  0.6281625703015411  0.5742007705623565  1.0000
  H   H33       1.0  0.3998456315447997  0.6216233844006709  0.6413981578120059  1.0000
  H   H34       1.0  0.11874485535001618  0.5608259454656946  0.6249502176060558  1.0000
  H   H35       1.0  0.3318266290668888  0.3976453174883758  0.5821199317928176  1.0000
  H   H36       1.0  0.20536676469794204  0.4559002165592646  0.561301926239736  1.0000
  H   H37       1.0  0.9570925881895318  0.6185568335074761  0.17240661430600562  1.0000
  H   H38       1.0  0.9802050271448124  0.632341392021722  0.11343984075449506  1.0000
  H   H39       1.0  0.9409897524432509  0.5921527697455033  0.04743166016853458  1.0000
  H   H40       1.0  0.8891371563031071  0.5088736993090421  0.08260049289143012  1.0000
  H   H41       1.0  0.9552352762438402  0.4256222283587975  0.05403384544205648  1.0000
  H   H42       1.0  0.757670651009555  0.358452735117659  0.9802251649165257  1.0000
  H   H43       1.0  0.49343627275113283  0.37499031719806913  0.9358625473581199  1.0000
  H   H44       1.0  0.7494792595232695  0.41797760760756825  0.8154477129881456  1.0000
  H   H45       1.0  0.6439915087967593  0.4388267056189862  0.8945327718278121  1.0000
  H   H46       1.0  0.7848643944306845  0.8274617338490416  0.44608967751969447  1.0000
  H   H47       1.0  0.8673195202775474  0.8864521271111485  0.5187913155915213  1.0000
  H   H48       1.0  0.8944490910477543  0.9524614126037039  0.544657883590091  1.0000
  H   H49       1.0  0.8079744605399385  0.9175568465489474  0.42651946726569895  1.0000
  H   H50       1.0  0.9028505544987768  0.9461375176422919  0.371881716442637  1.0000
  H   H51       1.0  0.7781129676531436  0.0198470405036488  0.3784197621264838  1.0000
  H   H52       1.0  0.5575415356681787  0.06412337894573028  0.43918868612442447  1.0000
  H   H53       1.0  0.9340059005420471  0.18447528340822567  0.6023468023584114  1.0000
  H   H54       1.0  0.7492028739636964  0.10541059438105552  0.5441441053514849  1.0000
  C   C1        1.0  0.07206261643457176  0.38877816825075234  0.612378619761131  1.0000
  C   C2        1.0  0.878598626091069  0.40346941670892994  0.6226086790910016  1.0000
  C   C3        1.0  0.8103740191873927  0.43661135725882627  0.610629195715319  1.0000
  C   C4        1.0  0.9235017206753399  0.4566162170639884  0.589161943893707  1.0000
  C   C5        1.0  0.8462531441710581  0.4921832009679931  0.5781790074465433  1.0000
  C   C6        1.0  0.7091697261813649  0.5200335549533293  0.6022481810625705  1.0000
  C   C7        1.0  0.9248734831537961  0.49642478290014946  0.538315584236642  1.0000
  C   C8        1.0  0.08425968825679324  0.5315553476234598  0.5480782444881243  1.0000
  C   C9        1.0  0.1603246625047205  0.5351920926483515  0.5092105998674584  1.0000
  C   C10       1.0  0.6770528454052068  0.4291081608864857  0.4797102420225984  1.0000
  C   C11       1.0  0.5938172657940156  0.39875731499495254  0.4333893819363368  1.0000
  C   C12       1.0  0.6682976729717183  0.4024238802073583  0.39522107055780953  1.0000
  C   C13       1.0  0.824144081634863  0.4362962795021729  0.4042824560583469  1.0000
  C   C14       1.0  0.8153196213212511  0.5912260988249541  0.409936088617549  1.0000
  C   C15       1.0  0.8871626239932198  0.5586110309455705  0.4214736797456313  1.0000
  C   C16       1.0  0.2566397434288064  0.6141580956123035  0.3543361112081982  1.0000
  C   C17       1.0  0.4595572738751628  0.3876801821339057  0.7763158823368598  1.0000
  C   C18       1.0  0.2559530605510006  0.37740407624053773  0.780787572773086  1.0000
  C   C19       1.0  0.19986456374208933  0.38930756120355875  0.8259049523077734  1.0000
  C   C20       1.0  0.33442798895454473  0.41082669337489364  0.8673814147181036  1.0000
  C   C21       1.0  0.2682497397602149  0.4218289617633458  0.9139401470974916  1.0000
  C   C22       1.0  0.10734116093536983  0.3977892687539892  0.9177994199355978  1.0000
  C   C23       1.0  0.3867993999556988  0.461703431617849  0.9580393797491169  1.0000
  C   C24       1.0  0.5359061135245469  0.4518797515216946  0.983487205747572  1.0000
  C   C25       1.0  0.6506089522600008  0.49074257944664623  0.026055624744465496  1.0000
  C   C26       1.0  0.19822310493475478  0.5204030878539214  0.949292174210413  1.0000
  C   C27       1.0  0.16139536809848212  0.5667513851326902  0.9652825809825032  1.0000
  C   C28       1.0  0.2736979636356552  0.604906242216103  0.00718595329185949  1.0000
  C   C29       1.0  0.42027595418727526  0.5957974726276092  0.03200357253837195  1.0000
  C   C30       1.0  0.40556618286578333  0.5899718676726379  0.18136026081340614  1.0000
  C   C31       1.0  0.46576255504232494  0.5784501637415718  0.137206706288467  1.0000
  C   C32       1.0  0.9024289644915271  0.6456075824917917  0.2598818179464716  1.0000
  C   C33       1.0  0.6832933037646853  0.22370532185851025  0.6112564644601832  1.0000
  C   C34       1.0  0.4751846055064775  0.2192559367433589  0.5965476568247041  1.0000
  C   C35       1.0  0.37380036344748657  0.17414487034093903  0.5633834948634941  1.0000
  C   C36       1.0  0.4668063376851777  0.1326223189296982  0.5433914095882811  1.0000
  C   C37       1.0  0.3538406343856479  0.08606017189521253  0.5078708945021049  1.0000
  C   C38       1.0  0.1888754414979985  0.0822708143219089  0.4800433794191718  1.0000
  C   C39       1.0  0.42831261208020527  0.0419322996953682  0.5036072163751368  1.0000
  C   C40       1.0  0.5525423798530085  0.0165272763437514  0.4684509594516229  1.0000
  C   C41       1.0  0.6251752160273869  0.9740158597592841  0.46480492008809926  1.0000
  C   C42       1.0  0.247805804012728  0.05058848205838021  0.570904145337252  1.0000
  C   C43       1.0  0.19483716358933378  0.0345959917222913  0.6012340282865621  1.0000
  C   C44       1.0  0.2658489201484571  0.9927565771508852  0.5975525782647679  1.0000
  C   C45       1.0  0.3880597803958352  0.9679843525547794  0.5637012760548431  1.0000
  C   C46       1.0  0.2242448548425601  0.8186587673560695  0.40875256159021944  1.0000
  C   C47       1.0  0.32872578521386947  0.862816278597414  0.4413553809423051  1.0000
  C   C48       1.0  0.6423909967913133  0.740028395897241  0.38581826633553384  1.0000
  C   C49       1.0  0.9279379126110003  0.6112205438059775  0.38762051406874326  1.0000
  C   C50       1.0  0.12139599509603737  0.59652929566996  0.3773906762201664  1.0000
  C   C51       1.0  0.1896231996257924  0.5633866397439321  0.3893695368130707  1.0000
  C   C52       1.0  0.07648959027937972  0.5433817802609228  0.4108370101159836  1.0000
  C   C53       1.0  0.15374903999070716  0.5078158686157295  0.4218203270340694  1.0000
  C   C54       1.0  0.29084256579708523  0.4799680174192176  0.3977528449475188  1.0000
  C   C55       1.0  0.07512668752450949  0.5035732139802604  0.4616835007590226  1.0000
  C   C56       1.0  0.9157424945288994  0.46844372198608414  0.4519213987977723  1.0000
  C   C57       1.0  0.8396760436603757  0.4648069770352733  0.49078902158743887  1.0000
  C   C58       1.0  0.32295340612284923  0.5708901933761296  0.5202900355326392  1.0000
  C   C59       1.0  0.4061803003778408  0.6012413973907086  0.5666118698685095  1.0000
  C   C60       1.0  0.33169841933169397  0.5975748322007416  0.6047795418054775  1.0000
  C   C61       1.0  0.17585035830450121  0.5637020753272992  0.5957173380436416  1.0000
  C   C62       1.0  0.18467370311694256  0.4087729712032768  0.5900631148770826  1.0000
  C   C63       1.0  0.11283311682329615  0.44138696615709705  0.57852533975705  1.0000
  C   C64       1.0  0.743356002892007  0.3858399013870654  0.6456616730733487  1.0000
  C   C65       1.0  0.540444504639595  0.6123210331303284  0.22368450323122605  1.0000
  C   C66       1.0  0.7440446450931617  0.6225978544481023  0.21921310494149546  1.0000
  C   C67       1.0  0.8001362736388629  0.6106947269379787  0.17409594788855298  1.0000
  C   C68       1.0  0.6655697221939151  0.5891752372104477  0.132618027775358  1.0000
  C   C69       1.0  0.7317535181272846  0.5781722533751578  0.08605964269102637  1.0000
  C   C70       1.0  0.8926637479401054  0.6022123039889778  0.08220149691950965  1.0000
  C   C71       1.0  0.6132049261532373  0.5382999291787343  0.04196210056843349  1.0000
  C   C72       1.0  0.4640905183938744  0.5481200336121504  0.016513016659111333  1.0000
  C   C73       1.0  0.3493917080014271  0.5092593510679961  0.9739447878268307  1.0000
  C   C74       1.0  0.8017753119396503  0.47960027329065014  0.05070983639371472  1.0000
  C   C75       1.0  0.838603812790204  0.4332505455076827  0.03471842736836091  1.0000
  C   C76       1.0  0.7263002747431528  0.3950967613273945  0.9928158784925214  1.0000
  C   C77       1.0  0.5797217542090396  0.4042044580093816  0.9679964875656495  1.0000
  C   C78       1.0  0.5944298704143378  0.4100297054373669  0.8186395986398765  1.0000
  C   C79       1.0  0.5342399415830458  0.4215524818494885  0.8627934681427546  1.0000
  C   C80       1.0  0.09756430716262093  0.3543943484965694  0.7401197206909698  1.0000
  C   C81       1.0  0.3167059271558871  0.7762937478733747  0.3887428263584383  1.0000
  C   C82       1.0  0.524813507160772  0.7807438482389344  0.40345166099712776  1.0000
  C   C83       1.0  0.6262007052131011  0.8258549144415355  0.4366152490097691  1.0000
  C   C84       1.0  0.53319785583183  0.8673778234347936  0.4566091007931235  1.0000
  C   C85       1.0  0.6461572997860047  0.9139392554860066  0.49212824449998044  1.0000
  C   C86       1.0  0.8111197193041306  0.9177289707827255  0.5199555859353849  1.0000
  C   C87       1.0  0.5716834898557297  0.958066412531963  0.49639123435117943  1.0000
  C   C88       1.0  0.4474588604227991  0.9834728661689169  0.5315495072677907  1.0000
  C   C89       1.0  0.3748186452736704  0.025984283046334204  0.5351945110604887  1.0000
  C   C90       1.0  0.7521969115076031  0.9494116604060278  0.42909665201843683  1.0000
  C   C91       1.0  0.8051686877960124  0.965404508117544  0.3987660651350213  1.0000
  C   C92       1.0  0.7341582252336637  0.0072435650912652  0.4024482845839116  1.0000
  C   C93       1.0  0.6119414598799723  0.0320157899578888  0.4362991906645774  1.0000
  C   C94       1.0  0.7757586288202775  0.18133994452666974  0.5912463070963625  1.0000
  C   C95       1.0  0.6712683004864531  0.13718136097826064  0.5586434379096231  1.0000
  C   C96       1.0  0.3576084098727037  0.2599710314873676  0.6141818209133945  1.0000
  O   O1        1.0  0.41931234063550715  0.5967524213943138  0.34217444058835894  1.0000
  O   O2        1.0  0.20797639175422952  0.6481662248713748  0.3469511243195387  1.0000
  O   O3        1.0  0.8504142985510157  0.6425601025013562  0.3772696028749181  1.0000
  O   O4        1.0  0.07727453786096562  0.6576933714949005  0.2546216838082032  1.0000
  O   O5        1.0  0.8611568784077479  0.6529774741535235  0.3012724112762372  1.0000
  O   O6        1.0  0.47332878916598276  0.6226292082354304  0.26536853958883455  1.0000
  O   O7        1.0  0.8224437260043089  0.7452840351252021  0.40319392800300596  1.0000
  O   O8        1.0  0.5597358524985979  0.6986284938263339  0.3518137397382262  1.0000
  O   O9        1.0  0.20779801136550452  0.7346132733918368  0.3573858882446289  1.0000
  O   O10       1.0  0.5806845253147089  0.40324486032882595  0.6578230078847013  1.0000
  O   O11       1.0  0.7920162214537142  0.3518314147009178  0.6530467462855539  1.0000
  O   O12       1.0  0.14958327862943577  0.3574386096777146  0.6227291784876812  1.0000
  O   O13       1.0  0.9227246875553091  0.3423056983402759  0.7453788422315454  1.0000
  O   O14       1.0  0.13883617022321462  0.3470269600389528  0.6987294308525732  1.0000
  O   O15       1.0  0.5266673100177997  0.377369504043557  0.7346305287480489  1.0000
  O   O16       1.0  0.17755438253471575  0.2547157499345616  0.5968063162346695  1.0000
  O   O17       1.0  0.4402618935449283  0.3013705761345733  0.6481873820810833  1.0000
  O   O18       1.0  0.7922023364323181  0.2653850811154613  0.6426136843760659  1.0000
