data_image0
_chemical_formula_structural       CoH12C16N10O2
_chemical_formula_sum              "Co1 H12 C16 N10 O2"
_cell_length_a       6.112302888289331
_cell_length_b       7.312962511539363
_cell_length_c       11.772811131658035
_cell_angle_alpha    108.21785895987455
_cell_angle_beta     87.84994498809422
_cell_angle_gamma    94.05247051421337

_space_group_name_H-M_alt    "P 1"
_space_group_IT_number       1

loop_
  _space_group_symop_operation_xyz
  'x, y, z'

loop_
  _atom_site_type_symbol
  _atom_site_label
  _atom_site_symmetry_multiplicity
  _atom_site_fract_x
  _atom_site_fract_y
  _atom_site_fract_z
  _atom_site_occupancy
  Co  Co1       1.0  1.2283867995672185e-05  0.9999975948609147  2.7063172467281806e-06  1.0000
  H   H1        1.0  0.1185171726146308  0.7288552586092576  0.39983606218009266  1.0000
  H   H2        1.0  0.8814722169038446  0.2711590178669141  0.6001693181442462  1.0000
  H   H3        1.0  0.34543629389620634  0.6758104250871568  0.3042842545304723  1.0000
  H   H4        1.0  0.6545488200695928  0.32418632803668146  0.6957094420261426  1.0000
  H   H5        1.0  0.8280210182627669  0.8064791762249328  0.7624712859465318  1.0000
  H   H6        1.0  0.17198828448970002  0.19353774774699414  0.23753364631159707  1.0000
  H   H7        1.0  0.9647773343672413  0.7149959582154608  0.5547480892222225  1.0000
  H   H8        1.0  0.035208119086490804  0.2850268963548004  0.4452546252438552  1.0000
  H   H9        1.0  0.609594165808474  0.9334744434053022  0.6929778975698894  1.0000
  H   H10       1.0  0.3904071592307687  0.06652220991241359  0.3070182637957187  1.0000
  H   H11       1.0  0.4406285608946022  0.0160984452530641  0.8994257096725491  1.0000
  H   H12       1.0  0.5593928232491548  0.9838850516324626  0.10056966481364074  1.0000
  C   C1        1.0  0.23403479074471534  0.7069199148546516  0.07694547660994999  1.0000
  C   C2        1.0  0.7659686779680968  0.2930697724060138  0.9230587520826248  1.0000
  C   C3        1.0  0.29021818489185597  0.4038103208086666  0.08170389044310869  1.0000
  C   C4        1.0  0.7097791460089194  0.5961807265103971  0.9182955125271092  1.0000
  C   C5        1.0  0.9999577708836611  0.8334148041307401  0.7428303822055256  1.0000
  C   C6        1.0  5.230835292740755e-05  0.16659200790854817  0.2571726990284589  1.0000
  C   C7        1.0  0.08149328354937072  0.7807992115779924  0.6260883033532281  1.0000
  C   C8        1.0  0.9185030023366849  0.21921630955414173  0.3739130264429988  1.0000
  C   C9        1.0  0.3056820641741353  0.8148173318818265  0.6059296189518975  1.0000
  C   C10       1.0  0.6943126505782119  0.1851966632099078  0.3940680387692908  1.0000
  C   C11       1.0  0.4357415056916095  0.9018302948910843  0.7057811334109019  1.0000
  C   C12       1.0  0.5642612851344708  0.0981649241772757  0.2942156097507365  1.0000
  C   C13       1.0  0.3436248686575354  0.9493111518843023  0.8200345905629689  1.0000
  C   C14       1.0  0.6563874701632101  0.0506825957307697  0.1799643941752436  1.0000
  C   C15       1.0  0.41601560578436647  0.7589671757846331  0.484375657432615  1.0000
  C   C16       1.0  0.5839800081121852  0.24103814942197485  0.5156204122757798  1.0000
  N   N1        1.0  0.1630334710553711  0.8274445086453851  0.04505248158313441  1.0000
  N   N2        1.0  0.836968899850845  0.1725509390071593  0.9549519543474432  1.0000
  N   N3        1.0  0.32583878115785586  0.5903692870159745  0.1215215608776745  1.0000
  N   N4        1.0  0.6741615746321018  0.409618841007905  0.8784772961803852  1.0000
  N   N5        1.0  0.2668703445676782  0.23420603029805417  0.05440121793491669  1.0000
  N   N6        1.0  0.7331346539029366  0.7657806790727902  0.9455999105339145  1.0000
  N   N7        1.0  0.12731949436541606  0.916757260913826  0.8386665220279211  1.0000
  N   N8        1.0  0.8726959573781841  0.08323804593803892  0.16133783434479906  1.0000
  N   N9        1.0  0.282090613311837  0.7127384555238975  0.3895034463437669  1.0000
  N   N10       1.0  0.7178984135082586  0.28726696548129377  0.6104935178956623  1.0000
  O   O1        1.0  0.6191297282386402  0.7550823562325418  0.47456276947067977  1.0000
  O   O2        1.0  0.38086585631335623  0.2449214761300809  0.5254313277221598  1.0000
