data_image0
_chemical_formula_structural       Tb2U3H26C30O40
_chemical_formula_sum              "Tb2 U3 H26 C30 O40"
_cell_length_a       10.556941163563037
_cell_length_b       11.45981876559862
_cell_length_c       13.4306
_cell_angle_alpha    69.04627300858027
_cell_angle_beta     78.55741480783603
_cell_angle_gamma    63.1111844558781

_space_group_name_H-M_alt    "P 1"
_space_group_IT_number       1

loop_
  _space_group_symop_operation_xyz
  'x, y, z'

loop_
  _atom_site_type_symbol
  _atom_site_label
  _atom_site_symmetry_multiplicity
  _atom_site_fract_x
  _atom_site_fract_y
  _atom_site_fract_z
  _atom_site_occupancy
  Tb  Tb1       1.0  0.5844639464563245  0.24864350136623872  0.7427717891831308  1.0000
  Tb  Tb2       1.0  0.41553566305613987  0.7513554831204488  0.25722873049456757  1.0000
  U   U1        1.0  0.6198921879464052  0.7154908008534093  0.8410988928870894  1.0000
  U   U2        1.0  0.3801075022508229  0.2845102393282417  0.1589024760742888  1.0000
  U   U3        1.0  0.9999911627095983  0.5000025757857927  0.49998920020713206  1.0000
  H   H1        1.0  0.654516507052783  0.2114415895222237  0.5322961635908214  1.0000
  H   H2        1.0  0.34548362602872373  0.7885584228119455  0.46770544994343777  1.0000
  H   H3        1.0  0.716234815175703  0.0626945851477458  0.6196678276026192  1.0000
  H   H4        1.0  0.2837639085682184  0.9373064550339123  0.3803314583609493  1.0000
  H   H5        1.0  0.5523903107179465  0.5264460080124351  0.5903583378219894  1.0000
  H   H6        1.0  0.44760648011934717  0.473555032169223  0.40964273869294493  1.0000
  H   H7        1.0  0.7161273239297259  0.41732766339221433  0.5965341916626983  1.0000
  H   H8        1.0  0.2838685004542612  0.5826733767894368  0.4034662909911617  1.0000
  H   H9        1.0  0.3761978549970094  0.47119612219292867  0.5804885514253189  1.0000
  H   H10       1.0  0.6237965600493923  0.5288059458362113  0.4195125819313506  1.0000
  H   H11       1.0  0.2702159904155437  0.41331597466128767  0.6527285666096817  1.0000
  H   H12       1.0  0.7297825719588643  0.5866809541304292  0.3472705099232627  1.0000
  H   H13       1.0  0.4966913243788511  0.5215616767673978  0.7859333663468817  1.0000
  H   H14       1.0  0.5033121509468543  0.47843730771928966  0.21406729506996663  1.0000
  H   H15       1.0  0.4942916617808207  0.41005564244132847  0.8981784368111648  1.0000
  H   H16       1.0  0.5057122564291632  0.5899423141978701  0.1018209800418078  1.0000
  H   H17       1.0  0.7339486697754936  0.9392439475416765  0.8703993803685037  1.0000
  H   H18       1.0  0.26605102042172757  0.060757092639981594  0.12960198859288147  1.0000
  H   H19       1.0  0.8344365795623716  0.0167148557884573  0.8534323681461018  1.0000
  H   H20       1.0  0.16556222486629923  0.9832882400881645  0.14656627796441052  1.0000
  H   H21       1.0  0.09129871974573686  0.3696047046996824  0.968459964867151  1.0000
  H   H22       1.0  0.9087041513261839  0.6303911962445454  0.031537264272692815  1.0000
  H   H23       1.0  0.1543795418228555  0.10956751397082341  0.7221998291410899  1.0000
  H   H24       1.0  0.8456213156576876  0.890426331278441  0.2777998304031826  1.0000
  H   H25       1.0  0.7292991531622235  0.0010699892310768  0.4120782956834432  1.0000
  H   H26       1.0  0.2706971947907987  0.9989320787980632  0.5879255145321025  1.0000
  C   C1        1.0  0.9911380376178514  0.3432887255610879  0.8585163440936299  1.0000
  C   C2        1.0  0.008863303971224932  0.6567174538579863  0.1414824546057645  1.0000
  C   C3        1.0  0.106368136220496  0.3126259794117132  0.9139366405132776  1.0000
  C   C4        1.0  0.8936324397452892  0.6873730050749742  0.08606298388874484  1.0000
  C   C5        1.0  0.24150342566863256  0.21616352086475393  0.8951348862958496  1.0000
  C   C6        1.0  0.7584932037991549  0.7838334079269629  0.10486970363032098  1.0000
  C   C7        1.0  0.2591561658052938  0.1461465502393935  0.8224309019502059  1.0000
  C   C8        1.0  0.7408432823376643  0.8538483228573527  0.17757313113873613  1.0000
  C   C9        1.0  0.14054458471836995  0.1673417932115839  0.7755574781888015  1.0000
  C   C10       1.0  0.8594516825498957  0.8326582191225853  0.2244425044695717  1.0000
  C   C11       1.0  0.00683336226173029  0.267719322825954  0.7907750889611621  1.0000
  C   C12       1.0  0.993167898642589  0.7322848008981496  0.20922434959129532  1.0000
  C   C13       1.0  0.6276898211059531  0.0019858013395222  0.4501489797443697  1.0000
  C   C14       1.0  0.37230519819424035  0.9980193502320703  0.5498540967525473  1.0000
  C   C15       1.0  0.621347144284009  0.876022076634527  0.5079466246348048  1.0000
  C   C16       1.0  0.3786502508070768  0.12398204708958362  0.49205639502037724  1.0000
  C   C17       1.0  0.4919013641901201  0.8739047108170227  0.5587903604372073  1.0000
  C   C18       1.0  0.5080974402385507  0.1260983850595991  0.4412142422202906  1.0000
  C   C19       1.0  0.8571759364418412  0.463892237970029  0.8643580153633151  1.0000
  C   C20       1.0  0.14283245183516163  0.536108802211622  0.1356367852536948  1.0000
  C   C21       1.0  0.3604222568792038  0.1915681584147464  0.9554009244572726  1.0000
  C   C22       1.0  0.6395829899836157  0.8084267146819997  0.044599970682710884  1.0000
  C   C23       1.0  0.401597954913221  0.0484434797789746  0.7913856076368903  1.0000
  C   C24       1.0  0.5984111577628326  0.9515513933177714  0.2086124509687366  1.0000
  C   C25       1.0  0.8868919668818831  0.2939047653340552  0.7293636928134646  1.0000
  C   C26       1.0  0.1131045012163981  0.7060880520677274  0.27064068768208216  1.0000
  C   C27       1.0  0.4751631435720112  0.743038141278106  0.6220519962162356  1.0000
  C   C28       1.0  0.5248335665805329  0.2569608432085815  0.37795046472013644  1.0000
  C   C29       1.0  0.7527310070087198  0.7472132577590216  0.5126597039683889  1.0000
  C   C30       1.0  0.24726534094429548  0.25278881027011124  0.48733814970017164  1.0000
  O   O1        1.0  0.5286032348588918  0.6373682249674602  0.9560462515747901  1.0000
  O   O2        1.0  0.4714049920486048  0.3626287038242566  0.04395355159020651  1.0000
  O   O3        1.0  0.7143940176199095  0.7933769718179917  0.7306740388255903  1.0000
  O   O4        1.0  0.2856135655732999  0.2066281797536007  0.2693181436558518  1.0000
  O   O5        1.0  0.08457384428104575  0.48828203092318745  0.6110873975897277  1.0000
  O   O6        1.0  0.9154277788228028  0.5117190092584707  0.38891664823054134  1.0000
  O   O7        1.0  0.8456051350774557  0.5402140250636194  0.9188732343443604  1.0000
  O   O8        1.0  0.1544036960838255  0.4597859872705499  0.08111957714040588  1.0000
  O   O9        1.0  0.7538173611317662  0.49686866880639263  0.8087987065010297  1.0000
  O   O10       1.0  0.24619014137668674  0.5031344270702292  0.19119783867534323  1.0000
  O   O11       1.0  0.8032183639896076  0.23746771567027034  0.7755113999473127  1.0000
  O   O12       1.0  0.1967837826832692  0.7625343523588697  0.22448629404578213  1.0000
  O   O13       1.0  0.8815119422010724  0.3645795583493125  0.6306688403082178  1.0000
  O   O14       1.0  0.11848774799615569  0.6354214818323385  0.36933029494804964  1.0000
  O   O15       1.0  0.41596196043433054  0.9249774244606428  0.8133946114796018  1.0000
  O   O16       1.0  0.5840388163614632  0.0750143650936579  0.18660866619122635  1.0000
  O   O17       1.0  0.49448383475820634  0.0919789878207737  0.7441001445612728  1.0000
  O   O18       1.0  0.5055124325100594  0.9080210245133955  0.2559020718022182  1.0000
  O   O19       1.0  0.4794192798630093  0.1831603659937926  0.9117428268093307  1.0000
  O   O20       1.0  0.5205755780676712  0.8168406741878584  0.0882585511202194  1.0000
  O   O21       1.0  0.33049328042483944  0.1818334148916634  0.055639671835507415  1.0000
  O   O22       1.0  0.6695058862033533  0.8181665974425059  0.944359858700942  1.0000
  O   O23       1.0  0.4975954497979627  0.6934578621815818  0.7221717487448486  1.0000
  O   O24       1.0  0.5024112870871917  0.3065380387626533  0.2778323232495055  1.0000
  O   O25       1.0  0.43105736246188536  0.6907566789930399  0.5759157268297912  1.0000
  O   O26       1.0  0.5689347574783739  0.3092484725785525  0.42408631265229974  1.0000
  O   O27       1.0  0.7484159624397789  0.630182543205251  0.5572706155464289  1.0000
  O   O28       1.0  0.2515793383751728  0.3698174691289182  0.4427243058406347  1.0000
  O   O29       1.0  0.8700646920658456  0.7524450014537223  0.4692425633846328  1.0000
  O   O30       1.0  0.12992936078103406  0.247560150117863  0.5307547072726068  1.0000
  O   O31       1.0  0.7045345645147377  0.1572514144589547  0.6017015821821943  1.0000
  O   O32       1.0  0.29546415922917657  0.8427496257227034  0.39829844834974903  1.0000
  O   O33       1.0  0.6168687399373168  0.4302312607091708  0.5912827973377264  1.0000
  O   O34       1.0  0.3831285744690192  0.5697708073199692  0.40871862846539403  1.0000
  O   O35       1.0  0.37024644675712176  0.3998254764308485  0.6462938606966946  1.0000
  O   O36       1.0  0.629746478266938  0.6001755637508097  0.35370632951072173  1.0000
  O   O37       1.0  0.4979085199381075  0.42902559561017034  0.8200704273383934  1.0000
  O   O38       1.0  0.5020930224809774  0.5709733888765101  0.17993053549306387  1.0000
  O   O39       1.0  0.7545130949687291  0.0193810921625328  0.8257441670877627  1.0000
  O   O40       1.0  0.2454870381127705  0.9806189201716365  0.17425521274137878  1.0000
