data_image0
_chemical_formula_structural       Fe2Ni2H36C60N16O8
_chemical_formula_sum              "Fe2 Ni2 H36 C60 N16 O8"
_cell_length_a       6.934155578019344
_cell_length_b       13.46086482207481
_cell_length_c       15.628168400037545
_cell_angle_alpha    100.7681351435681
_cell_angle_beta     89.99974176059314
_cell_angle_gamma    90.00012130841282

_space_group_name_H-M_alt    "P 1"
_space_group_IT_number       1

loop_
  _space_group_symop_operation_xyz
  'x, y, z'

loop_
  _atom_site_type_symbol
  _atom_site_label
  _atom_site_symmetry_multiplicity
  _atom_site_fract_x
  _atom_site_fract_y
  _atom_site_fract_z
  _atom_site_occupancy
  Fe  Fe1       1.0  7.23534263599998e-07  1.5684857501999998e-06  0.9999977975192852  1.0000
  Fe  Fe2       1.0  3.1823760053999994e-06  0.5000035611594315  0.9999988534119597  1.0000
  Ni  Ni1       1.0  0.5000031290381414  0.7605576417763373  0.03537791095932616  1.0000
  Ni  Ni2       1.0  0.500001707749277  0.23944901322308706  0.9646237283889932  1.0000
  H   H1        1.0  0.9999973723032978  0.9716900951340152  0.1813363091010274  1.0000
  H   H2        1.0  0.9999994493935205  0.028310098414102904  0.8186594450170335  1.0000
  H   H3        1.0  5.714820971999999e-06  0.0810298370222782  0.32916167742453695  1.0000
  H   H4        1.0  0.9999717213757859  0.9189684993990069  0.6708354244119834  1.0000
  H   H5        1.0  0.9999988692366625  0.34019783257662783  0.20180311433044554  1.0000
  H   H6        1.0  0.999976320396797  0.6597993362772598  0.7981940728454122  1.0000
  H   H7        1.0  0.9999935709543164  0.22137759602471616  0.060698827057621  1.0000
  H   H8        1.0  4.0551617530999975e-06  0.7786230089827625  0.9392979998299256  1.0000
  H   H9        1.0  0.3117382919756081  0.4545321987789634  0.7029907418542366  1.0000
  H   H10       1.0  0.31170735591592086  0.545466008191859  0.29701119725900343  1.0000
  H   H11       1.0  0.6882766397652132  0.5454638691273387  0.2970072747549183  1.0000
  H   H12       1.0  0.6883061337006848  0.4545270346165608  0.7029831333606823  1.0000
  H   H13       1.0  0.2989919446947552  0.4901954807027167  0.8647249821448428  1.0000
  H   H14       1.0  0.2989740326027216  0.5098057423247084  0.1352774678009396  1.0000
  H   H15       1.0  0.7010201027755087  0.5098028558331507  0.1352733994157802  1.0000
  H   H16       1.0  0.7010336884695433  0.4901918377941711  0.8647182326001898  1.0000
  H   H17       1.0  0.4999928626551976  0.22089055713699682  0.13769591277136334  1.0000
  H   H18       1.0  0.4999888998763779  0.7791017306821431  0.8623136533130947  1.0000
  H   H19       1.0  0.4999954771618674  0.0323747902585652  0.11518588451617263  1.0000
  H   H20       1.0  0.4999891696467315  0.9676205224023137  0.8848241681638458  1.0000
  H   H21       1.0  0.4999981347965344  0.9472204410493389  0.24298714312594433  1.0000
  H   H22       1.0  0.4999937226852538  0.052777140449904905  0.7570258340099659  1.0000
  H   H23       1.0  0.5000013162002404  0.0493299869418564  0.3939003397756694  1.0000
  H   H24       1.0  0.49999775200593877  0.9506774248303599  0.6061084598912886  1.0000
  H   H25       1.0  0.5000030332219153  0.23825403387420613  0.41556039265383765  1.0000
  H   H26       1.0  0.5000061299510605  0.7617511090656207  0.5844454825407723  1.0000
  H   H27       1.0  0.3093326038771238  0.15935894321381733  0.6244841575084055  1.0000
  H   H28       1.0  0.30933812955198897  0.8406339679722807  0.3755086161787419  1.0000
  H   H29       1.0  0.6906722329019742  0.8406356123199499  0.37551425568970853  1.0000
  H   H30       1.0  0.6906638229653056  0.15936209982689323  0.6244881206857402  1.0000
  H   H31       1.0  0.3099029838087544  0.21742782441456399  0.7878659919182598  1.0000
  H   H32       1.0  0.3099012690473869  0.7825718930540048  0.21212787553694312  1.0000
  H   H33       1.0  0.6901004108392212  0.7825712683798332  0.21213315117866935  1.0000
  H   H34       1.0  0.6900977991979712  0.2174279558464391  0.7878701094566624  1.0000
  H   H35       1.0  1.892612800699999e-06  0.2457212792550436  0.8673069330216239  1.0000
  H   H36       1.0  0.9999986177775282  0.7542800819636215  0.13269001551274331  1.0000
  C   C1        1.0  0.31312978733653546  0.8577365853679239  0.04095098405297646  1.0000
  C   C2        1.0  0.31313235347149515  0.14226691599387212  0.9590511640499603  1.0000
  C   C3        1.0  0.6868750494587273  0.14226855705715016  0.9590484923606796  1.0000
  C   C4        1.0  0.6868710411783352  0.8577389827948636  0.040950353650160295  1.0000
  C   C5        1.0  0.3126163644954545  0.3372502577642748  0.9789780296240453  1.0000
  C   C6        1.0  0.3126189750029339  0.6627577806586301  0.02102676898847016  1.0000
  C   C7        1.0  0.6873913565689945  0.6627594220768956  0.02102409631983448  1.0000
  C   C8        1.0  0.6873901881912516  0.3372488743936087  0.9789755102342428  1.0000
  C   C9        1.0  0.999999792772712  0.053684571490563784  0.18911753406802495  1.0000
  C   C10       1.0  0.9999869339503815  0.9463148661005149  0.8108812978025953  1.0000
  C   C11       1.0  3.192201006599998e-06  0.1145172865878052  0.2709737681700021  1.0000
  C   C12       1.0  0.9999800125188967  0.885480293984571  0.7290276911610079  1.0000
  C   C13       1.0  3.3714878852999994e-06  0.22057346267585834  0.27818266840071004  1.0000
  C   C14       1.0  0.9999668540421494  0.7794226048044166  0.7218102292229107  1.0000
  C   C15       1.0  2.3999478387e-06  0.2591198369270984  0.20043958558935066  1.0000
  C   C16       1.0  0.9999851312203416  0.7408800117127327  0.7995552000226953  1.0000
  C   C17       1.0  0.9999997803949368  0.19292402047449997  0.12128760674022492  1.0000
  C   C18       1.0  0.9999949614510297  0.8070765844806617  0.8787085802715497  1.0000
  C   C19       1.0  7.4117047858999975e-06  0.2843209643885061  0.3606040503767219  1.0000
  C   C20       1.0  0.9999628137874551  0.7156864470658134  0.639400910046632  1.0000
  C   C21       1.0  1.4349172978699994e-05  0.334134816366344  0.4348370080860351  1.0000
  C   C22       1.0  0.9999818348253197  0.66585746986663  0.565152721750991  1.0000
  C   C23       1.0  6.808807590599998e-06  0.38052462369073226  0.5188824871821893  1.0000
  C   C24       1.0  0.9999749538369683  0.6194676623319638  0.48110468315452704  1.0000
  C   C25       1.0  1.9463145676499997e-05  0.4153312583948008  0.5973098526392564  1.0000
  C   C26       1.0  0.9999868157387366  0.5846693474368864  0.4026972122961682  1.0000
  C   C27       1.0  2.4833827012599994e-05  0.4457302623348626  0.6884251373806125  1.0000
  C   C28       1.0  0.9999900979234935  0.5542658054174582  0.3115709595930199  1.0000
  C   C29       1.0  0.17342280637475227  0.4594327327576338  0.736295503794061  1.0000
  C   C30       1.0  0.17339218644089266  0.5405631100085985  0.2637037739655669  1.0000
  C   C31       1.0  0.8265921253789869  0.5405633349433642  0.2636999533010638  1.0000
  C   C32       1.0  0.8266213031701851  0.4594306891126648  0.7362919580607115  1.0000
  C   C33       1.0  0.1672803328190468  0.47973108745799925  0.826438597085833  1.0000
  C   C34       1.0  0.16726351911847803  0.5202685321286751  0.1735613005930077  1.0000
  C   C35       1.0  0.8327259461100948  0.520266492763035  0.17355838307369  1.0000
  C   C36       1.0  0.8327499705018296  0.4797328290944591  0.8264356479290246  1.0000
  C   C37       1.0  0.49999795917161544  0.23748979137722157  0.2775927624445629  1.0000
  C   C38       1.0  0.4999996669020418  0.7625130829793958  0.7224133876908001  1.0000
  C   C39       1.0  0.49999539000271637  0.1817926000299366  0.19268541974564365  1.0000
  C   C40       1.0  0.4999964675224291  0.8182087619043158  0.8073204870960569  1.0000
  C   C41       1.0  0.49999956321936867  0.07695201865983851  0.1807943381690365  1.0000
  C   C42       1.0  0.4999908521312903  0.9230448065260646  0.8192172375616523  1.0000
  C   C43       1.0  0.4999962174121463  0.029547838307912903  0.2531708879090929  1.0000
  C   C44       1.0  0.4999884294199788  0.9704482302038713  0.7468348072709505  1.0000
  C   C45       1.0  0.5000031174977478  0.08643147483422103  0.33766313384107605  1.0000
  C   C46       1.0  0.4999988349623833  0.9135706436729905  0.6623473737901479  1.0000
  C   C47       1.0  0.500000381577493  0.19171225604451791  0.3506910530615671  1.0000
  C   C48       1.0  0.5000030130031445  0.8082845691458616  0.6493205226567796  1.0000
  C   C49       1.0  0.9999949543123134  0.1571377137358709  0.6181638278755062  1.0000
  C   C50       1.0  9.882468631899995e-06  0.8428583542182791  0.38183482862175583  1.0000
  C   C51       1.0  0.17624918665247682  0.1724524740975041  0.6617738795849988  1.0000
  C   C52       1.0  0.17625647746274348  0.8275433703226297  0.3382215534910671  1.0000
  C   C53       1.0  0.823755650129385  0.8275443500668302  0.3382248985618403  1.0000
  C   C54       1.0  0.8237512435966038  0.1724542100015611  0.6617767064240924  1.0000
  C   C55       1.0  0.17470715330323827  0.20445907468050706  0.7518302829488877  1.0000
  C   C56       1.0  0.17470801195128158  0.7955390371507534  0.24816359837982566  1.0000
  C   C57       1.0  0.8252861463751626  0.7955400183157196  0.24817141967167802  1.0000
  C   C58       1.0  0.8252852877658652  0.20446005522955346  0.751830425698657  1.0000
  C   C59       1.0  2.1962744795999995e-06  0.22047215213072496  0.7969398963815878  1.0000
  C   C60       1.0  5.606773000999997e-07  0.7795288642349476  0.20305672351430812  1.0000
  N   N1        1.0  0.19332155510604565  0.9172088897813424  0.03410110928169977  1.0000
  N   N2        1.0  0.193323810284589  0.0827930161413164  0.9658959043984939  1.0000
  N   N3        1.0  0.8066775131591439  0.082793983703219  0.9658941629176713  1.0000
  N   N4        1.0  0.8066767001126605  0.9172113698667629  0.034100890855668725  1.0000
  N   N5        1.0  0.9999988020731506  0.09125572028551693  0.11477908707452403  1.0000
  N   N6        1.0  1.7083176330999992e-06  0.9087433722512513  0.8852168566326102  1.0000
  N   N7        1.0  1.2455058502799998e-05  0.48709477757504527  0.8719298789482367  1.0000
  N   N8        1.0  0.9999967081647368  0.5129118770152559  0.12806664136791573  1.0000
  N   N9        1.0  0.19207688743528442  0.3994303872626617  0.9893821060539666  1.0000
  N   N10       1.0  0.19207790791779894  0.6005760554217757  0.01062011904205915  1.0000
  N   N11       1.0  0.8079308336402274  0.6005777799528218  0.010617217076735082  1.0000
  N   N12       1.0  0.80792981315264  0.3994305994246616  0.9893796006680023  1.0000
  N   N13       1.0  0.4999952413831252  0.3478453094512304  0.28907208100155674  1.0000
  N   N14       1.0  0.500008153244103  0.652155296122835  0.7109317845440728  1.0000
  N   N15       1.0  0.9999996931952635  0.12441913583517557  0.5232181803048094  1.0000
  N   N16       1.0  1.9564958328999992e-05  0.8755792007031786  0.47678020124894993  1.0000
  O   O1        1.0  0.5000007352365542  0.398888050357897  0.3640933271336167  1.0000
  O   O2        1.0  0.499994006572983  0.6011117989516707  0.635909776892156  1.0000
  O   O3        1.0  0.4999870037722685  0.38566356357998194  0.22201415696102347  1.0000
  O   O4        1.0  0.500036580777028  0.6143362856368738  0.7779876672803071  1.0000
  O   O5        1.0  0.15807470435766646  0.1113123613002642  0.48527976048706745  1.0000
  O   O6        1.0  0.15810209499601766  0.8886698590687131  0.5147167168423225  1.0000
  O   O7        1.0  0.8419229217330366  0.8886859754359406  0.5147211806012991  1.0000
  O   O8        1.0  0.8418969732608658  0.11132620852415442  0.4852774605108794  1.0000
