data_image0
_chemical_formula_structural       Zn8H124C124N12O44
_chemical_formula_sum              "Zn8 H124 C124 N12 O44"
_cell_length_a       10.271918857019354
_cell_length_b       18.26052680007484
_cell_length_c       26.937113734060436
_cell_angle_alpha    89.99975756316341
_cell_angle_beta     89.99998354854826
_cell_angle_gamma    90.00022130140893

_space_group_name_H-M_alt    "P 1"
_space_group_IT_number       1

loop_
  _space_group_symop_operation_xyz
  'x, y, z'

loop_
  _atom_site_type_symbol
  _atom_site_label
  _atom_site_symmetry_multiplicity
  _atom_site_fract_x
  _atom_site_fract_y
  _atom_site_fract_z
  _atom_site_occupancy
  Zn  Zn1       1.0  0.3177396594580273  0.174588296885581  0.035923774062617  1.0000
  Zn  Zn2       1.0  0.6822636568560084  0.825411184823473  0.5359221938508867  1.0000
  Zn  Zn3       1.0  0.817730304508075  0.3254115185576794  0.5359221620162486  1.0000
  Zn  Zn4       1.0  0.1822652235864766  0.6745890584038536  0.035923063426047  1.0000
  Zn  Zn5       1.0  0.0076060948195220005  0.3100784215445316  0.43609230417525424  1.0000
  Zn  Zn6       1.0  0.9923939939309817  0.6899223986197427  0.9360881098426787  1.0000
  Zn  Zn7       1.0  0.5076045736799911  0.18992150917296158  0.9360929373838118  1.0000
  Zn  Zn8       1.0  0.49239746211141994  0.8100754775731005  0.4360923026947958  1.0000
  H   H1        1.0  0.23342039119029323  0.43710588974097675  0.0145491740565191  1.0000
  H   H2        1.0  0.7665790474110495  0.5628942728540379  0.5145490811141968  1.0000
  H   H3        1.0  0.7334092383225724  0.0628955181783439  0.5145498008070604  1.0000
  H   H4        1.0  0.26658630615909124  0.9371024538916546  0.014549568072069998  1.0000
  H   H5        1.0  0.18043705505015595  0.517418494911837  0.8659706439621075  1.0000
  H   H6        1.0  0.8195660080806989  0.4825838576909689  0.3659712858081434  1.0000
  H   H7        1.0  0.6804340277363823  0.982583519965907  0.365970946604655  1.0000
  H   H8        1.0  0.3195700089179497  0.0174177373735134  0.8659728393422199  1.0000
  H   H9        1.0  0.33768832652555153  0.3012786041852279  0.8904691161672743  1.0000
  H   H10       1.0  0.6623069295834155  0.6987225004055803  0.39047063917155356  1.0000
  H   H11       1.0  0.8376784874799131  0.19872342523519393  0.3904691202523836  1.0000
  H   H12       1.0  0.16231774215540182  0.8012771317296626  0.8904698926171405  1.0000
  H   H13       1.0  0.48084084242434944  0.312956895806984  0.7339452695347717  1.0000
  H   H14       1.0  0.5191584278775635  0.6870457323082917  0.23394609898223  1.0000
  H   H15       1.0  0.9808406586684771  0.1870431355515763  0.2339475345683368  1.0000
  H   H16       1.0  0.0191605586803902  0.812957302036935  0.7339475463019198  1.0000
  H   H17       1.0  0.45983897100877874  0.33670891924049323  0.8239207262843777  1.0000
  H   H18       1.0  0.5401602302632328  0.6632920526369973  0.3239227353904681  1.0000
  H   H19       1.0  0.9598327834170918  0.16329214828006403  0.3239219458192437  1.0000
  H   H20       1.0  0.040166417860120894  0.8367104664819466  0.8239226295583109  1.0000
  H   H21       1.0  0.1005102122522672  0.45168448166168673  0.797829069475803  1.0000
  H   H22       1.0  0.8994899825684116  0.5483177481544814  0.2978298852050472  1.0000
  H   H23       1.0  0.600505184277594  0.04831706109074221  0.2978287630045457  1.0000
  H   H24       1.0  0.39949403701383085  0.9516846210996663  0.7978287067370502  1.0000
  H   H25       1.0  0.3463101064762881  0.3227528691663011  0.5177027187651005  1.0000
  H   H26       1.0  0.6536903032408644  0.6772494642825677  0.017703561890179697  1.0000
  H   H27       1.0  0.8463108291737028  0.1772515031548139  0.0177027845128777  1.0000
  H   H28       1.0  0.15368860700252904  0.822746996888867  0.5177031249129342  1.0000
  H   H29       1.0  0.12251092779147402  0.42922650762956494  0.7077849323355068  1.0000
  H   H30       1.0  0.8774854419959938  0.5707762835873639  0.20778531470131162  1.0000
  H   H31       1.0  0.6225099477420245  0.07077619208344292  0.20778456137090023  1.0000
  H   H32       1.0  0.37749226320961077  0.9292255038835084  0.7077849431971329  1.0000
  H   H33       1.0  0.1067823563612293  0.3482147789005907  0.6468408809363381  1.0000
  H   H34       1.0  0.8932169807744684  0.6517916780608389  0.1468432563796043  1.0000
  H   H35       1.0  0.6067838782009999  0.15178881415248216  0.1468413910379383  1.0000
  H   H36       1.0  0.39321643243319937  0.8482088807454106  0.6468412613504455  1.0000
  H   H37       1.0  0.0225957443458711  0.36701746646400585  0.31913834039757205  1.0000
  H   H38       1.0  0.9774034606045632  0.6329862733786199  0.8191398797056876  1.0000
  H   H39       1.0  0.5225967538320618  0.13298377371499012  0.819139508348229  1.0000
  H   H40       1.0  0.47740439815651575  0.8670150374588702  0.3191409391721293  1.0000
  H   H41       1.0  0.2632523515720635  0.24493646702217836  0.4622785599315549  1.0000
  H   H42       1.0  0.7367564788407535  0.7550647375002272  0.9622794032887396  1.0000
  H   H43       1.0  0.7632473824693093  0.25506550017088614  0.9622808622475106  1.0000
  H   H44       1.0  0.23676242146107998  0.7449329661978369  0.4622796996218241  1.0000
  H   H45       1.0  0.5278030378051853  0.3573973019063389  0.6585373469624258  1.0000
  H   H46       1.0  0.47219531681733434  0.6426052487319612  0.1585371953677424  1.0000
  H   H47       1.0  0.0278053589991458  0.1426033080370175  0.15853867962502483  1.0000
  H   H48       1.0  0.9721968897228876  0.8573959568214563  0.6585384613548014  1.0000
  H   H49       1.0  0.4603886951367572  0.20277361087573811  0.4602631749478688  1.0000
  H   H50       1.0  0.5396133221135316  0.7972237727997112  0.9602639184133038  1.0000
  H   H51       1.0  0.960386935376249  0.2972266077874366  0.9602635000140224  1.0000
  H   H52       1.0  0.039613134827106905  0.7027735140290475  0.4602647070483883  1.0000
  H   H53       1.0  0.5134215392973048  0.16977590000416848  0.4012104933504972  1.0000
  H   H54       1.0  0.4865805232602725  0.8302229471141729  0.9012096628134286  1.0000
  H   H55       1.0  0.013418920728419402  0.33022426086274254  0.9012100349065193  1.0000
  H   H56       1.0  0.9865841153582552  0.6697751338802078  0.4012119774316716  1.0000
  H   H57       1.0  0.46866822514724055  0.1064933023135026  0.4483084313429302  1.0000
  H   H58       1.0  0.5313299071719799  0.8935068940401577  0.9483088992105736  1.0000
  H   H59       1.0  0.9686719924244186  0.3935059136654289  0.9483092223967873  1.0000
  H   H60       1.0  0.03133003400181171  0.6064931874257196  0.44831070680322677  1.0000
  H   H61       1.0  0.2785585066580367  0.054228086801202814  0.388364083949412  1.0000
  H   H62       1.0  0.7214396716480991  0.945772483290497  0.8883647525395446  1.0000
  H   H63       1.0  0.7785597113174064  0.4457749222173677  0.8883632399704026  1.0000
  H   H64       1.0  0.22143749346079034  0.554225647873274  0.38836559651861075  1.0000
  H   H65       1.0  0.34536124932772344  0.1161186264991656  0.3439152798857207  1.0000
  H   H66       1.0  0.6546398836634424  0.8838827683521232  0.843916133379544  1.0000
  H   H67       1.0  0.8453600830600223  0.3838853527828405  0.8439157273385618  1.0000
  H   H68       1.0  0.15464104993446878  0.6161171373236272  0.3439167996301933  1.0000
  H   H69       1.0  0.17758638567221405  0.1242468492005386  0.36209391376723227  1.0000
  H   H70       1.0  0.8224176539625889  0.8757560752036184  0.862094401340137  1.0000
  H   H71       1.0  0.6775822431544826  0.3757577465417299  0.8620943845607698  1.0000
  H   H72       1.0  0.322416928828801  0.6242418920765402  0.362095415491666  1.0000
  H   H73       1.0  0.18932430347857124  0.44516777625339193  0.45070725201600237  1.0000
  H   H74       1.0  0.8106718799516272  0.5548345956564517  0.9507086624242191  1.0000
  H   H75       1.0  0.6893208836221093  0.054834102058194396  0.9507075306813633  1.0000
  H   H76       1.0  0.3106782203751735  0.9451633411920427  0.4507080125307539  1.0000
  H   H77       1.0  0.48126320105316717  0.5197946711442826  0.44002521266978784  1.0000
  H   H78       1.0  0.518736884675306  0.4802050292316196  0.9400238988684607  1.0000
  H   H79       1.0  0.9812588003609192  0.9802053467784474  0.9400250122846502  1.0000
  H   H80       1.0  0.0187393383038952  0.0197921630757065  0.4400248417268955  1.0000
  H   H81       1.0  0.4988857587783926  0.453657893328213  0.4884091095246034  1.0000
  H   H82       1.0  0.5011123427702558  0.546339862494989  0.9884079789327131  1.0000
  H   H83       1.0  0.9988881219237202  0.04633840030848552  0.98840904134331  1.0000
  H   H84       1.0  0.0011119266733033  0.9536571649995266  0.48840804711705493  1.0000
  H   H85       1.0  0.35044044732890706  0.5043622012529597  0.48268200201733436  1.0000
  H   H86       1.0  0.649557658613162  0.49563559027583187  0.9826813723172237  1.0000
  H   H87       1.0  0.8504380993784652  0.9956356228646115  0.9826817573185593  1.0000
  H   H88       1.0  0.14955903302801943  0.004359978144655899  0.482681988254221  1.0000
  H   H89       1.0  0.7073779234367805  0.28258030081244817  0.3322300278878814  1.0000
  H   H90       1.0  0.29262808615818875  0.717420619281839  0.8322269434751703  1.0000
  H   H91       1.0  0.2073823205165795  0.2174190697295373  0.8322317495546869  1.0000
  H   H92       1.0  0.7926227155338806  0.7825774693163512  0.33222930539994877  1.0000
  H   H93       1.0  0.698313381931989  0.2685474941974207  0.2665470649094246  1.0000
  H   H94       1.0  0.3016887839335922  0.7314516448964739  0.7665428255232313  1.0000
  H   H95       1.0  0.19831300748651867  0.23145390900013751  0.7665487462762428  1.0000
  H   H96       1.0  0.8016872113249394  0.7685463253340928  0.266546341445256  1.0000
  H   H97       1.0  0.6366484491411555  0.35151428278911834  0.2930208321943937  1.0000
  H   H98       1.0  0.36334980231014674  0.6484868817572078  0.7930175669022432  1.0000
  H   H99       1.0  0.1366494535297846  0.14848682102763186  0.7930234942833039  1.0000
  H   H100      1.0  0.8633526920181538  0.8515105101014414  0.2930201021089331  1.0000
  H   H101      1.0  0.534256610879261  0.3483435156962074  0.4307653696172551  1.0000
  H   H102      1.0  0.4657386143163933  0.6516573376605237  0.9307657965700784  1.0000
  H   H103      1.0  0.03426445167721679  0.151657053915855  0.9307687650712708  1.0000
  H   H104      1.0  0.9657346676192592  0.8483410612857514  0.4307664847050249  1.0000
  H   H105      1.0  0.5320693270966644  0.41079258328917234  0.3795415293126396  1.0000
  H   H106      1.0  0.46792983150562145  0.5892080418091369  0.8795425065975663  1.0000
  H   H107      1.0  0.03207187254369611  0.08920446751631772  0.8795447328689221  1.0000
  H   H108      1.0  0.9679292331015007  0.9107928717942642  0.37954375786615907  1.0000
  H   H109      1.0  0.4185206656421272  0.3359934082231178  0.3809935429804341  1.0000
  H   H110      1.0  0.5814755712647894  0.6640077554525663  0.8809931795633759  1.0000
  H   H111      1.0  0.9185287022906364  0.16400502295682173  0.8809953643145079  1.0000
  H   H112      1.0  0.0814724022417153  0.8359923073096099  0.38099432811471695  1.0000
  H   H113      1.0  0.9637920132711882  0.4072995929610457  0.2465525043941099  1.0000
  H   H114      1.0  0.0362004326598253  0.5927018612867982  0.7465527755598131  1.0000
  H   H115      1.0  0.4637887414853879  0.0927008702843537  0.7465545842100879  1.0000
  H   H116      1.0  0.5362056514963314  0.9072994886953796  0.2465544080955198  1.0000
  H   H117      1.0  0.79474967272386  0.4293267188519678  0.24155343104613536  1.0000
  H   H118      1.0  0.20523888293666914  0.5706764094521264  0.7415522623626529  1.0000
  H   H119      1.0  0.2947462500794913  0.0706739549692443  0.7415570590561344  1.0000
  H   H120      1.0  0.7052471732031763  0.9293247922847101  0.24155531658907847  1.0000
  H   H121      1.0  0.8568380962020683  0.3479047990948132  0.2131414434722672  1.0000
  H   H122      1.0  0.14315340182971434  0.6520957682096409  0.7131396764124105  1.0000
  H   H123      1.0  0.3568332841418852  0.1520956394892892  0.7131426102571794  1.0000
  H   H124      1.0  0.643160160940461  0.847903832545903  0.2131425932142008  1.0000
  C   C1        1.0  0.24229078275975272  0.42928878369208695  0.9746004455060273  1.0000
  C   C2        1.0  0.7577073293911526  0.5707117963667159  0.4746008409223491  1.0000
  C   C3        1.0  0.7422839611089104  0.07071196576046651  0.4746015596634621  1.0000
  C   C4        1.0  0.2577122039816615  0.9292875190317745  0.9746015829417017  1.0000
  C   C5        1.0  0.2128582965102908  0.4735845595643158  0.8904933769829738  1.0000
  C   C6        1.0  0.7871398801717646  0.5264187353988561  0.39049389643532345  1.0000
  C   C7        1.0  0.7128570126536076  0.0264155549135836  0.3904938758729983  1.0000
  C   C8        1.0  0.2871440845988574  0.9735839066451601  0.8904941400206853  1.0000
  C   C9        1.0  0.30280894073381864  0.3534484299455371  0.9046082714033973  1.0000
  C   C10       1.0  0.6971892251144781  0.6465531341288652  0.40460808429801887  1.0000
  C   C11       1.0  0.8027997179182903  0.14655398297414732  0.4046084253014754  1.0000
  C   C12       1.0  0.19719844792424376  0.8534459382111095  0.9046083016373316  1.0000
  C   C13       1.0  0.3978467139076969  0.34424392119485253  0.7477147072580124  1.0000
  C   C14       1.0  0.6021476781818719  0.6557558829202322  0.24771524640368633  1.0000
  C   C15       1.0  0.8978492364537588  0.1557547482800601  0.2477159484337577  1.0000
  C   C16       1.0  0.10215294385847073  0.8442450558365736  0.7477162326376573  1.0000
  C   C17       1.0  0.27947949862668514  0.3966692256089104  0.8174496522180945  1.0000
  C   C18       1.0  0.7205187340805211  0.6033312389891066  0.3174499579579617  1.0000
  C   C19       1.0  0.7794767944897458  0.1033309417665436  0.31744993023409757  1.0000
  C   C20       1.0  0.22052825290553812  0.8966673323215915  0.8174496799447367  1.0000
  C   C21       1.0  0.14591292307753181  0.5541821598964135  0.9612480613347287  1.0000
  C   C22       1.0  0.854088119902656  0.44581905104504216  0.461248062575784  1.0000
  C   C23       1.0  0.6459106175001922  0.9458180904925794  0.461247355847135  1.0000
  C   C24       1.0  0.3540845843107689  0.054182572815499014  0.9612480255944361  1.0000
  C   C25       1.0  0.3861819280965478  0.3574991184309583  0.798371563730555  1.0000
  C   C26       1.0  0.6138143721903687  0.642501465109099  0.29837288215614427  1.0000
  C   C27       1.0  0.8861804657517709  0.1425003050571405  0.29837247173470877  1.0000
  C   C28       1.0  0.11382264922091423  0.8574975403402263  0.7983730878606181  1.0000
  C   C29       1.0  0.26610129868767984  0.40883955721052706  0.8713373687336983  1.0000
  C   C30       1.0  0.7338978662142422  0.5911627619275778  0.37133807921753  1.0000
  C   C31       1.0  0.7660994847273629  0.09116079267592173  0.3713380529333605  1.0000
  C   C32       1.0  0.2339045478027231  0.9088382406892067  0.8713381374923586  1.0000
  C   C33       1.0  0.18514084674495726  0.42197846470057954  0.7838101594600531  1.0000
  C   C34       1.0  0.814858385297086  0.5780222096324863  0.2838105277435616  1.0000
  C   C35       1.0  0.6851369957485575  0.07802334980233641  0.2838105101530672  1.0000
  C   C36       1.0  0.314864183353265  0.9219784197926656  0.7838098058138527  1.0000
  C   C37       1.0  0.28944630903889385  0.3629227907515116  0.9558130762877112  1.0000
  C   C38       1.0  0.7105557116336101  0.6370768111928273  0.4558118012513149  1.0000
  C   C39       1.0  0.7894389683864348  0.13707817855350166  0.45581362862983343  1.0000
  C   C40       1.0  0.2105611052296226  0.8629214233840943  0.9558127338493776  1.0000
  C   C41       1.0  0.3034584116750878  0.3694129675645286  0.7139341453957115  1.0000
  C   C42       1.0  0.6965369798536473  0.6305859519053315  0.21393511791370656  1.0000
  C   C43       1.0  0.8034588147940412  0.13058734980931774  0.2139350876109063  1.0000
  C   C44       1.0  0.1965394973332266  0.8694159506960306  0.7139349181621027  1.0000
  C   C45       1.0  0.3367344992069974  0.331164321175919  0.5574868507663524  1.0000
  C   C46       1.0  0.6632658799820774  0.6688355737133379  0.0574869745508835  1.0000
  C   C47       1.0  0.8367390583919985  0.1688354012109414  0.05748731191037851  1.0000
  C   C48       1.0  0.16326132079116462  0.8311628507880258  0.5574872558792663  1.0000
  C   C49       1.0  0.09479819303409441  0.3271302487984968  0.5482665053223315  1.0000
  C   C50       1.0  0.9052012196949236  0.6728680606884864  0.0482665915322187  1.0000
  C   C51       1.0  0.594804726901664  0.17286900407818  0.04826732611749661  1.0000
  C   C52       1.0  0.40519371230274004  0.8271304006629308  0.5482668844405936  1.0000
  C   C53       1.0  0.4489482090678862  0.3378602176097516  0.5862163422141577  1.0000
  C   C54       1.0  0.5510531216147357  0.6621411410481033  0.08621612604552811  1.0000
  C   C55       1.0  0.9489507753460772  0.1621417606002709  0.08621682258333149  1.0000
  C   C56       1.0  0.0510495818044205  0.8378585027944041  0.5862167593830421  1.0000
  C   C57       1.0  0.19677837337835058  0.4086066224205638  0.7331429085758572  1.0000
  C   C58       1.0  0.8032179769458098  0.5913932725466536  0.2331439821816943  1.0000
  C   C59       1.0  0.6967775345399687  0.09139334281487521  0.2331435921071119  1.0000
  C   C60       1.0  0.30322076284757327  0.9086087426717738  0.7331432986471853  1.0000
  C   C61       1.0  0.20397743998004364  0.346749479138076  0.6306546596405695  1.0000
  C   C62       1.0  0.796023856609054  0.6532510548258658  0.1306551851514897  1.0000
  C   C63       1.0  0.7039809188956739  0.15324949788794842  0.1306544230708155  1.0000
  C   C64       1.0  0.2960213512141436  0.8467488455620612  0.6306546792542846  1.0000
  C   C65       1.0  0.31388942246648105  0.300808399899502  0.9906825272728597  1.0000
  C   C66       1.0  0.6861145185020945  0.6991882464981956  0.4906810764957825  1.0000
  C   C67       1.0  0.8138854278067668  0.1991929528830809  0.49068178753831393  1.0000
  C   C68       1.0  0.18611656611746247  0.8008069792907692  0.990681073755674  1.0000
  C   C69       1.0  0.31563137721373374  0.3552635019874729  0.6601347857216949  1.0000
  C   C70       1.0  0.6843698967570334  0.6447363005420215  0.1601364613836225  1.0000
  C   C71       1.0  0.8156357713502446  0.144736629703381  0.1601356873046029  1.0000
  C   C72       1.0  0.18436647615783391  0.8552659109738132  0.6601355597967213  1.0000
  C   C73       1.0  0.21430557790309018  0.3351853612866122  0.5795233624540757  1.0000
  C   C74       1.0  0.7856938108431138  0.6648116580625755  0.0795234846366171  1.0000
  C   C75       1.0  0.7143091360123749  0.1648117665109226  0.07952309267886191  1.0000
  C   C76       1.0  0.2856912262601768  0.8351847052123205  0.5795230119425199  1.0000
  C   C77       1.0  0.9317889555723514  0.3362887624358494  0.3262612220390936  1.0000
  C   C78       1.0  0.0682131644961856  0.6637143853757691  0.8262612858452415  1.0000
  C   C79       1.0  0.4317900642414401  0.16371332466265903  0.8262612417590488  1.0000
  C   C80       1.0  0.5682110822782462  0.8362837992229898  0.3262620086040329  1.0000
  C   C81       1.0  0.22482319662247363  0.20865169216291693  0.433108079798977  1.0000
  C   C82       1.0  0.775181762055503  0.7913491465995294  0.9331080723609729  1.0000
  C   C83       1.0  0.7248204230769629  0.29134873031212283  0.9331087929797164  1.0000
  C   C84       1.0  0.27518356205966654  0.7086482750416608  0.43310810165583297  1.0000
  C   C85       1.0  0.20201515844847506  0.4840386317417327  0.9417746547397029  1.0000
  C   C86       1.0  0.7979829788850522  0.5159621529775364  0.441775203051172  1.0000
  C   C87       1.0  0.702013802994948  0.0159616870197965  0.441775183649888  1.0000
  C   C88       1.0  0.2979833608103561  0.9840390976961046  0.9417754166110797  1.0000
  C   C89       1.0  0.43843023648794605  0.3503766628992509  0.6372689362188808  1.0000
  C   C90       1.0  0.5615710550308108  0.6496249250859594  0.1372691260978058  1.0000
  C   C91       1.0  0.9384336905670452  0.14962387884268222  0.1372690812979158  1.0000
  C   C92       1.0  0.061567600951853804  0.850377709143686  0.637268609783753  1.0000
  C   C93       1.0  0.577951356595939  0.3311404778189768  0.5608171872221135  1.0000
  C   C94       1.0  0.42205096709986384  0.6688610391976156  0.060816965615956085  1.0000
  C   C95       1.0  0.0779548311456679  0.1688603029961868  0.06081770201392089  1.0000
  C   C96       1.0  0.922046519016149  0.831139571127892  0.5608175645316322  1.0000
  C   C97       1.0  0.445611379403573  0.1601577159213576  0.432121394880113  1.0000
  C   C98       1.0  0.5543916329734984  0.8398425813605924  0.9321216431406896  1.0000
  C   C99       1.0  0.945608937982094  0.3398426460100055  0.9321215975681056  1.0000
  C   C100      1.0  0.054393100862725405  0.6601565560075998  0.43212292539440966  1.0000
  C   C101      1.0  0.2760664749213433  0.11105616912580271  0.37484028188468704  1.0000
  C   C102      1.0  0.7239365814012403  0.8889450329176898  0.8748411133963501  1.0000
  C   C103      1.0  0.7760643697941133  0.3889469187734136  0.8748410860362624  1.0000
  C   C104      1.0  0.22393479241225117  0.6110531880013925  0.3748421654216613  1.0000
  C   C105      1.0  0.24836671007228972  0.4086602057022334  0.4268985143849306  1.0000
  C   C106      1.0  0.7516333857315303  0.5913412193987498  0.9268987125954595  1.0000
  C   C107      1.0  0.7483684078859839  0.09134140203219941  0.9269001731534772  1.0000
  C   C108      1.0  0.2516326614316498  0.9086561896564618  0.42689965247752326  1.0000
  C   C109      1.0  0.4297965218745858  0.4781309071934743  0.4620654984912207  1.0000
  C   C110      1.0  0.5702035469451942  0.5218686557645923  0.9620648019869832  1.0000
  C   C111      1.0  0.9297957968312999  0.021867043076589703  0.9620666142907338  1.0000
  C   C112      1.0  0.0702042719763796  0.9781292340985744  0.4620659136023093  1.0000
  C   C113      1.0  0.712951476806218  0.30945040042097816  0.2959863138448497  1.0000
  C   C114      1.0  0.28704969295755234  0.6905518408972997  0.795983307190859  1.0000
  C   C115      1.0  0.2129527692815003  0.19055085111681086  0.7959881126706776  1.0000
  C   C116      1.0  0.7870484004655582  0.8094470091529687  0.2959859631915762  1.0000
  C   C117      1.0  0.4712947702818085  0.37606726654522765  0.4035794213231227  1.0000
  C   C118      1.0  0.5287033963553825  0.6239343039405085  0.9035802923583987  1.0000
  C   C119      1.0  0.9713005854190088  0.12393168639432164  0.9035828426748012  1.0000
  C   C120      1.0  0.028700501785287696  0.8760655030460923  0.4035813258331089  1.0000
  C   C121      1.0  0.8651521371076073  0.38432808132481006  0.24553572995162648  1.0000
  C   C122      1.0  0.13484128313342583  0.6156739268941607  0.7455355533178719  1.0000
  C   C123      1.0  0.3651480491217712  0.11567272102738711  0.7455373725659626  1.0000
  C   C124      1.0  0.6348453711104725  0.884327096663867  0.24553725182187236  1.0000
  N   N1        1.0  0.31172306765068925  0.1617276792006521  0.41421524978424173  1.0000
  N   N2        1.0  0.6882809319893539  0.83827218209359  0.9142154881694325  1.0000
  N   N3        1.0  0.81171964195007  0.33827305035603683  0.9142158282151626  1.0000
  N   N4        1.0  0.18828143710184264  0.661725715671736  0.4142163946803237  1.0000
  N   N5        1.0  0.8403533033254719  0.34369381659588777  0.2909794110966573  1.0000
  N   N6        1.0  0.15964494970059923  0.6563100988190558  0.7909780014031255  1.0000
  N   N7        1.0  0.3403524142228065  0.15630829130078183  0.7909805657864836  1.0000
  N   N8        1.0  0.6596458387868367  0.8436912430679797  0.2909805590698085  1.0000
  N   N9        1.0  0.37688509592778274  0.4212530726992299  0.4298969546698572  1.0000
  N   N10       1.0  0.6231140240496701  0.578748881335308  0.9298972028494319  1.0000
  N   N11       1.0  0.8768867074944213  0.07874824865287168  0.929899763306203  1.0000
  N   N12       1.0  0.12311241246833758  0.9212498719636528  0.4298984778038247  1.0000
  O   O1        1.0  0.06789938715442641  0.5875618163764215  0.9320295939847582  1.0000
  O   O2        1.0  0.9321055723543595  0.4124401243661637  0.4320304251679161  1.0000
  O   O3        1.0  0.5678949059151179  0.9124395415033533  0.4320297268204669  1.0000
  O   O4        1.0  0.4321022653642359  0.08756075634045861  0.9320310348050215  1.0000
  O   O5        1.0  0.9176415018956662  0.2980098862309788  0.3642664631014014  1.0000
  O   O6        1.0  0.08236156253880011  0.7019913817381679  0.8642671579367088  1.0000
  O   O7        1.0  0.41764481978307805  0.20199193310118352  0.8642660016630117  1.0000
  O   O8        1.0  0.5823543505214418  0.7980038585750793  0.3642661344430921  1.0000
  O   O9        1.0  0.18048041238340323  0.5733828739868586  0.0044320844205643  1.0000
  O   O10       1.0  0.819518060449852  0.42661680405767294  0.5044312634262909  1.0000
  O   O11       1.0  0.68047661820016  0.9266153711725669  0.5044309242195055  1.0000
  O   O12       1.0  0.3195150399379401  0.07338430686801438  0.0044313099226443  1.0000
  O   O13       1.0  0.346579306609229  0.23717451522821884  0.9714741743942239  1.0000
  O   O14       1.0  0.6534295167379156  0.7628233461865296  0.4714747718029955  1.0000
  O   O15       1.0  0.8465835359784466  0.26282429038579375  0.47147250945852187  1.0000
  O   O16       1.0  0.1534252873740201  0.7371746663003407  0.9714723531518885  1.0000
  O   O17       1.0  0.9867688183557561  0.32646742187490935  0.5712496185492384  1.0000
  O   O18       1.0  0.013231550259753505  0.6735280061696827  0.0712505411590811  1.0000
  O   O19       1.0  0.4867732984217454  0.1735287081077459  0.0712512336333475  1.0000
  O   O20       1.0  0.513229017262475  0.8264705533419419  0.5712496685394157  1.0000
  O   O21       1.0  0.19583401401097691  0.3604606356778461  0.4004673953422184  1.0000
  O   O22       1.0  0.8041670755922893  0.6395393113295287  0.9004670782635671  1.0000
  O   O23       1.0  0.6958360419306048  0.1395404747892073  0.9004692869341182  1.0000
  O   O24       1.0  0.30416699472365144  0.8604583769523801  0.400468156553309  1.0000
  O   O25       1.0  0.6808250414821586  0.3382509248262764  0.5878319440114623  1.0000
  O   O26       1.0  0.3191743408997993  0.6617487808708236  0.0878310114090226  1.0000
  O   O27       1.0  0.18083041439056302  0.1617499116484851  0.08783136551674178  1.0000
  O   O28       1.0  0.8191699415214944  0.8382503416813164  0.587830847432862  1.0000
  O   O29       1.0  0.5817656145863525  0.31882553747735903  0.514686427205099  1.0000
  O   O30       1.0  0.4182416121389068  0.6811762671588896  0.014686170643834399  1.0000
  O   O31       1.0  0.08176722642528492  0.18117608688783804  0.014686906631574502  1.0000
  O   O32       1.0  0.9182341591225339  0.8188229795919426  0.5146868049266685  1.0000
  O   O33       1.0  0.10777594968221389  0.2121728632985054  0.4196214839294825  1.0000
  O   O34       1.0  0.8922270722849817  0.7878275119228279  0.9196199890887228  1.0000
  O   O35       1.0  0.6077741255376806  0.2878241025336763  0.9196207222866234  1.0000
  O   O36       1.0  0.39222792289319847  0.7121735345480644  0.41961815209041475  1.0000
  O   O37       1.0  0.1119206029632878  0.32204677017885797  0.5015050059055426  1.0000
  O   O38       1.0  0.8880827397643786  0.6779556642656105  0.0015047081158457  1.0000
  O   O39       1.0  0.6119242510734041  0.17795554968728314  0.0015050696284362  1.0000
  O   O40       1.0  0.38807227695897234  0.8220468847520765  0.5015039019232788  1.0000
  O   O41       1.0  0.2946129852407537  0.307630982650366  0.036118853900205694  1.0000
  O   O42       1.0  0.7053893573728943  0.6923619262870916  0.5361180245005741  1.0000
  O   O43       1.0  0.7946066132458258  0.19237535275259893  0.5361183663665727  1.0000
  O   O44       1.0  0.20538988823783197  0.8076285087661859  0.0361181407837705  1.0000
