data_image0
_chemical_formula_structural       Al6P18H120C72O60
_chemical_formula_sum              "Al6 P18 H120 C72 O60"
_cell_length_a       12.304510508152516
_cell_length_b       20.764644214270245
_cell_length_c       20.764306160614947
_cell_angle_alpha    116.19392107996865
_cell_angle_beta     101.38271116485788
_cell_angle_gamma    101.39478143167723

_space_group_name_H-M_alt    "P 1"
_space_group_IT_number       1

loop_
  _space_group_symop_operation_xyz
  'x, y, z'

loop_
  _atom_site_type_symbol
  _atom_site_label
  _atom_site_symmetry_multiplicity
  _atom_site_fract_x
  _atom_site_fract_y
  _atom_site_fract_z
  _atom_site_occupancy
  Al  Al1       1.0  0.724775131936113  0.2681878792087602  0.6624779332281533  1.0000
  Al  Al2       1.0  0.45655684107703814  0.3942853428183568  0.7318387787165361  1.0000
  Al  Al3       1.0  0.06232206947036186  0.3375553852733475  0.6057827266366472  1.0000
  Al  Al4       1.0  0.27522680552741  0.7318130558405045  0.337522549150428  1.0000
  Al  Al5       1.0  0.5434436990199386  0.6057144577574363  0.2681615203213425  1.0000
  Al  Al6       1.0  0.9376776428013045  0.662444415361847  0.3942169933419207  1.0000
  P   P1        1.0  0.4430781596461273  0.24398963076149024  0.5816932843987458  1.0000
  P   P2        1.0  0.19909772160072947  0.33766412414357216  0.7560954315414816  1.0000
  P   P3        1.0  0.8614045877602761  0.4183722622337385  0.6623434368247486  1.0000
  P   P4        1.0  0.5569182354348499  0.7560101699363031  0.41830652655257683  1.0000
  P   P5        1.0  0.8009039322700673  0.662336243674261  0.24390476725440646  1.0000
  P   P6        1.0  0.13859566756607927  0.5816269710756217  0.3376570600724306  1.0000
  P   P7        1.0  0.39566576228094175  0.9104928708790471  0.3916461615903089  1.0000
  P   P8        1.0  0.48516166080505485  0.4811094657428541  0.08949959684878192  1.0000
  P   P9        1.0  0.003991817652710966  0.60834239391356  0.5188186238113841  1.0000
  P   P10       1.0  0.6043342118084709  0.08950579526887033  0.6083530888401895  1.0000
  P   P11       1.0  0.5148388804698171  0.5188903348679403  0.9105002207471029  1.0000
  P   P12       1.0  0.9960067820230237  0.3916568395145958  0.4811807149671877  1.0000
  P   P13       1.0  0.8297454557428807  0.19218601396597274  0.5242012024005688  1.0000
  P   P14       1.0  0.6374588670194896  0.33199451688838627  0.8078235975065906  1.0000
  P   P15       1.0  0.305472728937815  0.4758330689653291  0.6680357511776264  1.0000
  P   P16       1.0  0.17025731190173593  0.8078149210938932  0.47579889615332854  1.0000
  P   P17       1.0  0.36254114826410705  0.6680075526269605  0.19217812206942853  1.0000
  P   P18       1.0  0.6945286401623604  0.5241667315860636  0.3319646454775621  1.0000
  H   H1        1.0  0.9037264584354574  0.32116318101733304  0.7719698123431581  1.0000
  H   H2        1.0  0.582589676786867  0.4508365118761831  0.6789088199557581  1.0000
  H   H3        1.0  0.13183538619367846  0.22809597632673465  0.5492376596656425  1.0000
  H   H4        1.0  0.0962762862562769  0.6788360522888226  0.22803001452196275  1.0000
  H   H5        1.0  0.4174083798341855  0.5491632888778072  0.32108974190420975  1.0000
  H   H6        1.0  0.8681634958968941  0.7719038242978656  0.4507624441376165  1.0000
  H   H7        1.0  0.961265563591425  0.2993341953272762  0.7054316921326771  1.0000
  H   H8        1.0  0.6618956001662255  0.4060981713394796  0.7007149077653806  1.0000
  H   H9        1.0  0.255873670671562  0.29465388638817547  0.5939878320693308  1.0000
  H   H10       1.0  0.038735262454068116  0.7006661725499512  0.2945679276039072  1.0000
  H   H11       1.0  0.3381035666949686  0.5939021965515537  0.299284998178571  1.0000
  H   H12       1.0  0.7441265870105765  0.7053453469911801  0.4060117019438606  1.0000
  H   H13       1.0  0.41189210661804765  0.1325018731379757  0.5751476039749049  1.0000
  H   H14       1.0  0.27948108777660974  0.4426299650720155  0.8675796104123987  1.0000
  H   H15       1.0  0.836858352714657  0.4249254320293687  0.5573902966617935  1.0000
  H   H16       1.0  0.5881076056536187  0.867497927497219  0.4248521160036703  1.0000
  H   H17       1.0  0.7205189069098951  0.5573704027596166  0.1324208745908565  1.0000
  H   H18       1.0  0.16314301756341373  0.5750743685570187  0.4426096185514011  1.0000
  H   H19       1.0  0.40299449203596543  0.004611327013172702  0.5070269414822164  1.0000
  H   H20       1.0  0.39841140808674413  0.5024514210394954  0.9954226690195253  1.0000
  H   H21       1.0  0.8959441797050758  0.49291839378049934  0.4975340907547689  1.0000
  H   H22       1.0  0.5970082744307559  0.9953896080116919  0.4929736385136748  1.0000
  H   H23       1.0  0.6015894156029589  0.49754894676773626  0.004577913601046582  1.0000
  H   H24       1.0  0.10405413755582772  0.5070802724512121  0.502464482999116  1.0000
  H   H25       1.0  0.7637837399173365  0.08961417552360731  0.530955653529581  1.0000
  H   H26       1.0  0.6741154092044752  0.44135079804525656  0.9103353156739967  1.0000
  H   H27       1.0  0.23277701210489002  0.4690405491032907  0.5587012587624116  1.0000
  H   H28       1.0  0.23621708377236664  0.9103861922836245  0.469044929090991  1.0000
  H   H29       1.0  0.325885695722171  0.5586501369234185  0.08966651341325624  1.0000
  H   H30       1.0  0.7672232443993605  0.5309586842410638  0.44129875669277396  1.0000
  H   H31       1.0  0.30477788577147896  0.20988494802816152  0.46538388050403506  1.0000
  H   H32       1.0  0.09477953967523688  0.2554346706211632  0.7901866942669783  1.0000
  H   H33       1.0  0.839233454373442  0.5346517980087173  0.7445160650587537  1.0000
  H   H34       1.0  0.6952221100929137  0.7901154198384648  0.5346161230572333  1.0000
  H   H35       1.0  0.9052193424153359  0.74456513000343  0.20981340953627373  1.0000
  H   H36       1.0  0.1607679147267334  0.46534800254267594  0.25548433159643474  1.0000
  H   H37       1.0  0.43376488503166405  0.279779446611073  0.48563664927156924  1.0000
  H   H38       1.0  0.15387370284823726  0.2058034484694815  0.7202889278007232  1.0000
  H   H39       1.0  0.9479410719035073  0.5144316762893554  0.7942081843187125  1.0000
  H   H40       1.0  0.5662356550653059  0.7202203539647273  0.5143636497663094  1.0000
  H   H41       1.0  0.8461254628350616  0.7941969193865576  0.2797114595852292  1.0000
  H   H42       1.0  0.05205975296409093  0.4855686915528781  0.20579191685986584  1.0000
  H   H43       1.0  0.22449168982149098  0.105572205393841  0.42151767536103785  1.0000
  H   H44       1.0  0.11885943573378913  0.3159558395479253  0.8945494699794165  1.0000
  H   H45       1.0  0.8028213588344641  0.5784759379001232  0.6839986287913361  1.0000
  H   H46       1.0  0.7755080212722872  0.8944275952063522  0.5784825260595311  1.0000
  H   H47       1.0  0.8811399917672561  0.6840433938208366  0.10545044785845907  1.0000
  H   H48       1.0  0.19717861643283638  0.4215227282827883  0.3160001401971612  1.0000
  H   H49       1.0  0.24529671553321464  0.023535040772145504  0.41987533244110853  1.0000
  H   H50       1.0  0.22180619861460826  0.39632307867020694  0.9765321051690843  1.0000
  H   H51       1.0  0.8254077185822553  0.5801065081123512  0.6036175459197324  1.0000
  H   H52       1.0  0.7547027119678305  0.9764641925966091  0.5801245853967673  1.0000
  H   H53       1.0  0.7781926834759645  0.6036767219543864  0.023467998634167615  1.0000
  H   H54       1.0  0.17459116586410764  0.4198932925822376  0.3963815949995392  1.0000
  H   H55       1.0  0.20366739839138154  0.0250584275198662  0.33413266685082016  1.0000
  H   H56       1.0  0.17848125057856382  0.30910476889702926  0.9750882231600995  1.0000
  H   H57       1.0  0.8693562208971528  0.6658675186193436  0.6908437330296734  1.0000
  H   H58       1.0  0.7963334252983216  0.9749419402873656  0.6658679157697519  1.0000
  H   H59       1.0  0.8215173467413878  0.6908944644611312  0.024912078502460213  1.0000
  H   H60       1.0  0.1306429241890541  0.33413114755297363  0.309155419783508  1.0000
  H   H61       1.0  0.40187707525986854  0.9167735271573396  0.28102734297559817  1.0000
  H   H62       1.0  0.48505048620731367  0.36423151769962203  0.08328152753055923  1.0000
  H   H63       1.0  0.12076398748071421  0.7189359852825632  0.6356804627723561  1.0000
  H   H64       1.0  0.59812263583391  0.0832262734428539  0.7189728584449638  1.0000
  H   H65       1.0  0.5149489401158363  0.6357677156341309  0.9167188717493102  1.0000
  H   H66       1.0  0.879235442376114  0.2810632481561939  0.36431849218153184  1.0000
  H   H67       1.0  0.28158515525503713  0.9387422609949855  0.30819590392025736  1.0000
  H   H68       1.0  0.3428057965292624  0.3694457782271244  0.061357850993509495  1.0000
  H   H69       1.0  0.9733090318845964  0.6918093123275212  0.630499852201133  1.0000
  H   H70       1.0  0.7184153848419398  0.06125753958080791  0.6918043951176214  1.0000
  H   H71       1.0  0.6571939133866209  0.6305540223380747  0.9386428318690533  1.0000
  H   H72       1.0  0.02669039679433632  0.30818992107623433  0.36949958419474865  1.0000
  H   H73       1.0  0.5720452563898631  0.9451378457902707  0.31407382029094316  1.0000
  H   H74       1.0  0.6269190737665014  0.3690545864198498  0.054863762529684806  1.0000
  H   H75       1.0  0.25793525918530935  0.6858901149111459  0.6310475598551901  1.0000
  H   H76       1.0  0.42795557201141327  0.054862522156952316  0.6859248365616535  1.0000
  H   H77       1.0  0.3730817499232019  0.6309457813873822  0.9451368200908872  1.0000
  H   H78       1.0  0.7420633416683201  0.3141091185520112  0.3689512974813879  1.0000
  H   H79       1.0  0.7024600567193816  0.0122968575517035  0.3855421836621957  1.0000
  H   H80       1.0  0.6900052850026628  0.37332210401852717  0.9876047020196095  1.0000
  H   H81       1.0  0.31677526818739915  0.6143698795388843  0.6267571909246354  1.0000
  H   H82       1.0  0.2975407716818877  0.9877035103955263  0.6144564731904008  1.0000
  H   H83       1.0  0.309994709683842  0.6266782638131121  0.012395782983645638  1.0000
  H   H84       1.0  0.6832249906726346  0.38562935387546565  0.3732418616465623  1.0000
  H   H85       1.0  0.6593568020087658  0.012449265792554301  0.2990670016293037  1.0000
  H   H86       1.0  0.6469815263810617  0.2867446863225354  0.987578929622003  1.0000
  H   H87       1.0  0.3602036740794574  0.7008672465316366  0.7133679957394178  1.0000
  H   H88       1.0  0.34064265197883253  0.9875516694349074  0.7009317435713668  1.0000
  H   H89       1.0  0.3530173568874062  0.713255114337052  0.012420692739254861  1.0000
  H   H90       1.0  0.6397957557773708  0.2991319869071134  0.2866309592144701  1.0000
  H   H91       1.0  0.7819824776693312  0.21729330248907536  0.42254666881824215  1.0000
  H   H92       1.0  0.5645863208416343  0.205249173009129  0.7827075001057576  1.0000
  H   H93       1.0  0.35925040794367646  0.5774322464342916  0.7947753282596749  1.0000
  H   H94       1.0  0.2180177788349198  0.782705930855279  0.5774533466369431  1.0000
  H   H95       1.0  0.4354131296122858  0.794751762113343  0.2172926894208942  1.0000
  H   H96       1.0  0.6407490436881389  0.4225686887231746  0.20522437982497616  1.0000
  H   H97       1.0  0.786134035621835  0.12406391573170342  0.38974526759514555  1.0000
  H   H98       1.0  0.6619537926306975  0.2656374519818669  0.8759287627975565  1.0000
  H   H99       1.0  0.39628650229560947  0.61030789807036  0.7344083379457086  1.0000
  H   H100      1.0  0.21386650447513492  0.8759358848440899  0.6102550314427332  1.0000
  H   H101      1.0  0.3380459184630738  0.7343623486183263  0.1240714386230053  1.0000
  H   H102      1.0  0.6037126657434797  0.38969246985566747  0.2655910865562561  1.0000
  H   H103      1.0  0.7071530834860127  0.28780888466128124  0.463155159767666  1.0000
  H   H104      1.0  0.4191118181789832  0.1751467138200056  0.7122398165116123  1.0000
  H   H105      1.0  0.24373489131374973  0.5368786344284188  0.824768297906665  1.0000
  H   H106      1.0  0.2928466287856537  0.7121909159739135  0.5368445602109019  1.0000
  H   H107      1.0  0.5808890055107196  0.8248536539872261  0.2877607661089598  1.0000
  H   H108      1.0  0.7562656523168981  0.4631211662523711  0.17523055680523208  1.0000
  H   H109      1.0  0.6300318198170983  0.3079009046622119  0.5278115680921616  1.0000
  H   H110      1.0  0.32195136112647293  0.21971626111080414  0.6921238470035644  1.0000
  H   H111      1.0  0.10195530582838332  0.47224352105366313  0.7801672542232579  1.0000
  H   H112      1.0  0.36996789127667284  0.6920988959379814  0.4721886333284003  1.0000
  H   H113      1.0  0.6780486347379195  0.7802841067558293  0.3078761565576968  1.0000
  H   H114      1.0  0.8980441228505568  0.5277557123500927  0.21983218217262387  1.0000
  H   H115      1.0  0.5664815643267359  0.29450568569753693  0.43671962871563597  1.0000
  H   H116      1.0  0.27175809442336163  0.1420813994524082  0.7056105805566941  1.0000
  H   H117      1.0  0.12941595330561742  0.5633264518317348  0.8578218176573456  1.0000
  H   H118      1.0  0.43351814676703526  0.7054941149026632  0.5632805727049329  1.0000
  H   H119      1.0  0.7282421850337641  0.857919535645664  0.29438970658726765  1.0000
  H   H120      1.0  0.870583760143937  0.43667334883845405  0.14217742087922858  1.0000
  C   C1        1.0  0.44747210477748206  0.16573719855460917  0.43677761322643244  1.0000
  C   C2        1.0  0.28159692073403864  0.2709318564612174  0.8343262858383792  1.0000
  C   C3        1.0  0.010566994531927778  0.5632929213463669  0.7290169687720576  1.0000
  C   C4        1.0  0.5525278910869105  0.8342631693120169  0.5632223903348361  1.0000
  C   C5        1.0  0.7184027915376274  0.7290679441739768  0.1656734341401886  1.0000
  C   C6        1.0  0.9894318887365329  0.4367068793132276  0.27098265358920764  1.0000
  C   C7        1.0  0.38572964509774726  0.08764612222650921  0.40090701971713827  1.0000
  C   C8        1.0  0.2979654581965292  0.3131632964786917  0.9124169852173905  1.0000
  C   C9        1.0  0.9847217330250403  0.5991394183221885  0.6867643535591197  1.0000
  C   C10       1.0  0.6142697835811929  0.9123531111772465  0.5990924166787437  1.0000
  C   C11       1.0  0.7020334238940437  0.6868365041459016  0.08758311858586151  1.0000
  C   C12       1.0  0.015275755232657711  0.4008592479339228  0.31323412257744815  1.0000
  C   C13       1.0  0.4431263516222756  0.034604713542727  0.36816908735707427  1.0000
  C   C14       1.0  0.4084166194997678  0.3334990054796307  0.9654441081336244  1.0000
  C   C15       1.0  0.07486627546643387  0.6318418853874023  0.6664354408213669  1.0000
  C   C16       1.0  0.5568741884747013  0.9653950870330662  0.6318312116808043  1.0000
  C   C17       1.0  0.5915842030120401  0.6665013622926068  0.03455695592894157  1.0000
  C   C18       1.0  0.9251323242093009  0.36815734804075356  0.3335638979571981  1.0000
  C   C19       1.0  0.5618207818158892  0.059372267691827615  0.3739899593328459  1.0000
  C   C20       1.0  0.5023490854134636  0.31459440910396796  0.9406534398988169  1.0000
  C   C21       1.0  0.18772025432176054  0.6260152476426271  0.6853988402174592  1.0000
  C   C22       1.0  0.43817893163366495  0.9406275329783611  0.6260092792037283  1.0000
  C   C23       1.0  0.49765008144773054  0.685405958787058  0.059346466045141766  1.0000
  C   C24       1.0  0.8122775175286705  0.3739839858449231  0.3145999195018091  1.0000
  C   C25       1.0  0.6218161933838785  0.1379404661728358  0.40956184635408016  1.0000
  C   C26       1.0  0.48374199979002713  0.2715507373024054  0.8620824597924182  1.0000
  C   C27       1.0  0.21211145462058306  0.5904694913308858  0.7284382665513147  1.0000
  C   C28       1.0  0.37818323529506154  0.8620587672309199  0.5904375900418016  1.0000
  C   C29       1.0  0.5162577330787314  0.728450765016504  0.13791849475892082  1.0000
  C   C30       1.0  0.7878879752362452  0.40952974210786414  0.27156068840257314  1.0000
  C   C31       1.0  0.562982670194792  0.19073382731266264  0.43705591007359584  1.0000
  C   C32       1.0  0.37208698779349453  0.24619650333090698  0.8093122527508639  1.0000
  C   C33       1.0  0.12576433960331457  0.5629988494232449  0.7537493882847028  1.0000
  C   C34       1.0  0.4370173244917055  0.8092665405189693  0.5629445749296663  1.0000
  C   C35       1.0  0.6279130068930101  0.7538038645007321  0.19068823225239845  1.0000
  C   C36       1.0  0.8742353738462397  0.43700095124694366  0.24624985025187837  1.0000
  C   C37       1.0  0.40069957657063077  0.2260155234711476  0.484278773654374  1.0000
  C   C38       1.0  0.1745826134235529  0.25819672531702054  0.774053699914269  1.0000
  C   C39       1.0  0.916283526786408  0.5157828203490028  0.7417932578684582  1.0000
  C   C40       1.0  0.5993012471190723  0.7739848443360842  0.515721808966198  1.0000
  C   C41       1.0  0.8254173800850566  0.7418036424796169  0.22594726653098712  1.0000
  C   C42       1.0  0.08371590189253196  0.4842164130547459  0.25820617852742334  1.0000
  C   C43       1.0  0.2587919995063643  0.0593969749095749  0.39420179170664926  1.0000
  C   C44       1.0  0.19932513859964734  0.3347763941104561  0.9406974562522021  1.0000
  C   C45       1.0  0.8644768673186719  0.6058059442837377  0.6651593479948799  1.0000
  C   C46       1.0  0.7412085405906125  0.9406028256662182  0.6057985073312292  1.0000
  C   C47       1.0  0.8006742889013979  0.6652228392582984  0.059302461585673524  1.0000
  C   C48       1.0  0.1355220159497961  0.3941938563758499  0.3348402743663854  1.0000
  C   C49       1.0  0.37639787375852035  0.950764006900286  0.3298825142436711  1.0000
  C   C50       1.0  0.4255707259654571  0.37908377689094414  0.049287367925266806  1.0000
  C   C51       1.0  0.046431108431939136  0.6701045094817816  0.6208543090411636  1.0000
  C   C52       1.0  0.6236018373352579  0.049235793699907  0.6701176871768977  1.0000
  C   C53       1.0  0.5744289851283141  0.620916023709249  0.9507128334953022  1.0000
  C   C54       1.0  0.9535683202470011  0.3298947239219743  0.3791451273547182  1.0000
  C   C55       1.0  0.6264381697333262  0.0043554985541761  0.34149214020794  1.0000
  C   C56       1.0  0.6220400576690607  0.33721526539905977  0.9956369275827084  1.0000
  C   C57       1.0  0.2848593009625305  0.6584682568043335  0.662860272078589  1.0000
  C   C58       1.0  0.37356154371622796  0.9956443021160126  0.6585070983286341  1.0000
  C   C59       1.0  0.37795993701744385  0.6627851024325724  0.004363557420546812  1.0000
  C   C60       1.0  0.7151409578974964  0.3415309766100165  0.33713878049260865  1.0000
  C   C61       1.0  0.7529269730987879  0.16636233222979513  0.42692221891963555  1.0000
  C   C62       1.0  0.5864440583333489  0.26053507947592186  0.833652576432179  1.0000
  C   C63       1.0  0.32586752071715347  0.573101412149164  0.7394888033029401  1.0000
  C   C64       1.0  0.24707247735513252  0.8336386028926698  0.5730779706070167  1.0000
  C   C65       1.0  0.41355704894908035  0.7394658555627487  0.16634828977108634  1.0000
  C   C66       1.0  0.6741330205577114  0.42689838846162337  0.2605110142929447  1.0000
  C   C67       1.0  0.6197881079946227  0.2739681441806709  0.46774939920810965  1.0000
  C   C68       1.0  0.3456311981914553  0.19361489062018222  0.7260902766341244  1.0000
  C   C69       1.0  0.15178998081596265  0.5322956160563381  0.8062963105931117  1.0000
  C   C70       1.0  0.38021132186220546  0.726031089258079  0.5322495557457785  1.0000
  C   C71       1.0  0.6543690812656635  0.8063860444778825  0.2739100105098374  1.0000
  C   C72       1.0  0.8482102780440642  0.46770361735801214  0.19370274197808607  1.0000
  O   O1        1.0  0.8897960178033559  0.2850970927997168  0.7189821444307255  1.0000
  O   O2        1.0  0.6047303433730065  0.43392346478533034  0.714986390610143  1.0000
  O   O3        1.0  0.1708824523319734  0.2810917083047002  0.5661776712159535  1.0000
  O   O4        1.0  0.11020452464940415  0.7149027078460718  0.28101719172316547  1.0000
  O   O5        1.0  0.3952696513134981  0.5660769030463015  0.2850140943931194  1.0000
  O   O6        1.0  0.8291178053501653  0.7189075250746554  0.4338218627972379  1.0000
  O   O7        1.0  0.3674878645915101  0.16915277847061816  0.5750445496151712  1.0000
  O   O8        1.0  0.19843503502634258  0.4058413989909369  0.8309741193471393  1.0000
  O   O9        1.0  0.7925762467740042  0.42509385705673  0.5941817681327776  1.0000
  O   O10       1.0  0.6325115652653251  0.8308464549681389  0.4249544053387168  1.0000
  O   O11       1.0  0.8015638470642302  0.5941584016336565  0.1690259844561197  1.0000
  O   O12       1.0  0.2074237502682762  0.5749065108448974  0.4058177539864899  1.0000
  O   O13       1.0  0.5727855075670618  0.2586805870436777  0.6131680533626207  1.0000
  O   O14       1.0  0.314091410678806  0.3543991762880126  0.741356764369314  1.0000
  O   O15       1.0  0.9596569107501338  0.38690846559178044  0.6456022426798284  1.0000
  O   O16       1.0  0.42721612217296473  0.7413180789854366  0.38683235518648457  1.0000
  O   O17       1.0  0.6859085816519083  0.6456011914736236  0.25864468351792863  1.0000
  O   O18       1.0  0.040341970162543817  0.6130913349978185  0.35439834256542463  1.0000
  O   O19       1.0  0.3999756926829789  0.30896597160082007  0.6283439775817781  1.0000
  O   O20       1.0  0.09103469287943264  0.3194053962431412  0.6911541745197666  1.0000
  O   O21       1.0  0.7715778195800594  0.3716835050464836  0.6806070953119343  1.0000
  O   O22       1.0  0.6000248462361029  0.6910338289399789  0.37165680289809433  1.0000
  O   O23       1.0  0.9089666773986309  0.680594404343246  0.30884574069342813  1.0000
  O   O24       1.0  0.2284213472811345  0.6283168628445495  0.3193928106320241  1.0000
  O   O25       1.0  0.5266877825741005  0.9260667642022683  0.4266428942405226  1.0000
  O   O26       1.0  0.6005907803403473  0.5004794878113825  0.07385826464217612  1.0000
  O   O27       1.0  0.10009536431348215  0.5733726118343158  0.4994472612910385  1.0000
  O   O28       1.0  0.47331498507051606  0.0739341708575978  0.5733572043133747  1.0000
  O   O29       1.0  0.3994097597566224  0.49952031276441045  0.9261420343957026  1.0000
  O   O30       1.0  0.8999032365401406  0.42662662162883447  0.5005515960455399  1.0000
  O   O31       1.0  0.3456504886515502  0.95356780239738  0.4578787801514179  1.0000
  O   O32       1.0  0.39208645247408913  0.5042790867768403  0.046450559080334144  1.0000
  O   O33       1.0  0.8877781700102643  0.5420829525766777  0.4956269169533484  1.0000
  O   O34       1.0  0.6543508792707301  0.04643199811901871  0.5421220979457643  1.0000
  O   O35       1.0  0.6079143712156139  0.49572128103039137  0.9535500235402307  1.0000
  O   O36       1.0  0.11222043084336517  0.4579162808864723  0.5043719403832296  1.0000
  O   O37       1.0  0.3209976798220993  0.8281341259592241  0.34645513321348886  1.0000
  O   O38       1.0  0.4929627862729546  0.5183239428546572  0.17188000432560102  1.0000
  O   O39       1.0  0.9745472061493601  0.6535131849015272  0.4816229515805332  1.0000
  O   O40       1.0  0.6790056526521865  0.17186794349352402  0.6535464953897827  1.0000
  O   O41       1.0  0.5070380350609652  0.4816764248825791  0.8281215411789588  1.0000
  O   O42       1.0  0.02545084693801407  0.3464866157474731  0.5183770546054091  1.0000
  O   O43       1.0  0.8338311224914038  0.11600383004839897  0.5230793655022268  1.0000
  O   O44       1.0  0.7177552643643351  0.40705822417158544  0.8839649967150719  1.0000
  O   O45       1.0  0.3106930888970822  0.47692528729548667  0.592966874354772  1.0000
  O   O46       1.0  0.16616804319189526  0.8839965378076329  0.47692102188372576  1.0000
  O   O47       1.0  0.2822455593253678  0.5929421436356463  0.11603558590550014  1.0000
  O   O48       1.0  0.6893069057894223  0.5230750805361454  0.40703361064849014  1.0000
  O   O49       1.0  0.9566540304175392  0.23875185783344932  0.5473876166965537  1.0000
  O   O50       1.0  0.7178279973098681  0.3085786826017484  0.7612641919276439  1.0000
  O   O51       1.0  0.40925879175613733  0.45269188247378617  0.6914319034558145  1.0000
  O   O52       1.0  0.04334485049513857  0.7612479427561496  0.45261296854869215  1.0000
  O   O53       1.0  0.28217669015889163  0.6914211179220404  0.23873563231279607  1.0000
  O   O54       1.0  0.5907400903344352  0.5473079181508139  0.3085682003474374  1.0000
  O   O55       1.0  0.7618041057211826  0.23135637154761213  0.5740689662244094  1.0000
  O   O56       1.0  0.5303708871220819  0.3426867409438827  0.7686611197022584  1.0000
  O   O57       1.0  0.18770919133831393  0.42596695124944967  0.6573663766739981  1.0000
  O   O58       1.0  0.23819477636939013  0.7686434290769811  0.4259311375788499  1.0000
  O   O59       1.0  0.4696332525804223  0.6573136267657489  0.23133985338755986  1.0000
  O   O60       1.0  0.8122896931080418  0.5740328494451389  0.34263276424526606  1.0000
