data_image0
_chemical_formula_structural       Ca4H36C8Cl8O16
_chemical_formula_sum              "Ca4 H36 C8 Cl8 O16"
_cell_length_a       5.768961751554304
_cell_length_b       6.268210203855438
_cell_length_c       21.79814472115163
_cell_angle_alpha    88.32425666975858
_cell_angle_beta     90.0002217055902
_cell_angle_gamma    89.99955477152585

_space_group_name_H-M_alt    "P 1"
_space_group_IT_number       1

loop_
  _space_group_symop_operation_xyz
  'x, y, z'

loop_
  _atom_site_type_symbol
  _atom_site_label
  _atom_site_symmetry_multiplicity
  _atom_site_fract_x
  _atom_site_fract_y
  _atom_site_fract_z
  _atom_site_occupancy
  Ca  Ca1       1.0  0.24819275778266814  0.9543965895519407  0.6531465823217674  1.0000
  Ca  Ca2       1.0  0.2517997629372175  0.9543843359789009  0.15314803585369674  1.0000
  Ca  Ca3       1.0  0.7518029805239692  0.04560785476560621  0.3468537911143202  1.0000
  Ca  Ca4       1.0  0.7482081095591154  0.045607470515974975  0.8468513877736614  1.0000
  H   H1        1.0  0.7604531637378713  0.03610663996059319  0.510574859601313  1.0000
  H   H2        1.0  0.739535825558562  0.0360982971422885  0.010578469308264003  1.0000
  H   H3        1.0  0.23952004077988676  0.9638911822901123  0.4894273339588013  1.0000
  H   H4        1.0  0.2604321798864362  0.9638987386863678  0.9894296904555663  1.0000
  H   H5        1.0  0.6517099235925484  0.3316482979237493  0.5723322248603326  1.0000
  H   H6        1.0  0.8482701914884672  0.3316540781333402  0.07232898813528982  1.0000
  H   H7        1.0  0.34828234884437137  0.6683539465796643  0.4276727339829451  1.0000
  H   H8        1.0  0.1517359469502182  0.6683599357792716  0.9276714090114597  1.0000
  H   H9        1.0  0.48762279335603154  0.35809214873199824  0.5027928869192593  1.0000
  H   H10       1.0  0.012365468724425498  0.358076255426603  0.0027948772898014006  1.0000
  H   H11       1.0  0.5123885456503743  0.6419154252795566  0.4972079532014534  1.0000
  H   H12       1.0  0.9876302706097702  0.6418979465056296  0.9972049617145092  1.0000
  H   H13       1.0  0.6894934570279786  0.8086248242313658  0.5855256262287228  1.0000
  H   H14       1.0  0.8104942031370398  0.8086028367045586  0.0855255711435206  1.0000
  H   H15       1.0  0.3105005482972345  0.19139643800343006  0.4144802981431753  1.0000
  H   H16       1.0  0.18949113649435392  0.19137394989839857  0.9144788652759462  1.0000
  H   H17       1.0  0.2203645734475685  0.3820724446686725  0.5778130187449693  1.0000
  H   H18       1.0  0.2796211063690349  0.38206966006529103  0.07781333313282351  1.0000
  H   H19       1.0  0.7796311645096595  0.6179462326720683  0.4221883083207987  1.0000
  H   H20       1.0  0.7203832986068122  0.6179195009178216  0.9221819521875434  1.0000
  H   H21       1.0  0.8081937123053891  0.19870697107338486  0.6905387557727708  1.0000
  H   H22       1.0  0.6917964547130993  0.1986919879823574  0.19053896537156592  1.0000
  H   H23       1.0  0.1918020248938532  0.8013013283404932  0.309456577339617  1.0000
  H   H24       1.0  0.3082131504429029  0.8012941043264734  0.809455394068785  1.0000
  H   H25       1.0  0.9448954030351473  0.3537478241124958  0.6454073799623361  1.0000
  H   H26       1.0  0.5550971295994528  0.35373118518209185  0.14540645156490942  1.0000
  H   H27       1.0  0.05510726806300429  0.646263423320967  0.3545897967448469  1.0000
  H   H28       1.0  0.44490554198989674  0.646254846464359  0.8545883668963797  1.0000
  H   H29       1.0  0.4687801936709732  0.5341332972258712  0.7074802125203022  1.0000
  H   H30       1.0  0.0312090256373665  0.5341234621465958  0.2074794460462712  1.0000
  H   H31       1.0  0.531217278042817  0.4658618197440704  0.2925183013176209  1.0000
  H   H32       1.0  0.9687936466788115  0.4658714130225762  0.7925209034610958  1.0000
  H   H33       1.0  0.6447855548910509  0.7211553469031673  0.7151878358551473  1.0000
  H   H34       1.0  0.8552148710486803  0.7211448703086558  0.21518943319074424  1.0000
  H   H35       1.0  0.3552153832876427  0.27883534839475044  0.28480791241612746  1.0000
  H   H36       1.0  0.14479473450890618  0.2788565055579398  0.7848100142563013  1.0000
  C   C1        1.0  0.5788445171608885  0.03815461368784409  0.526089211502118  1.0000
  C   C2        1.0  0.9211537138260936  0.0381473922602069  0.026078131388949505  1.0000
  C   C3        1.0  0.42115295584375906  0.9618411909145125  0.47391619031512294  1.0000
  C   C4        1.0  0.07884722373675859  0.9618623812081355  0.9739181234990327  1.0000
  C   C5        1.0  0.514485013455463  0.2605530843380421  0.5446012064051687  1.0000
  C   C6        1.0  0.9854776795568017  0.2605303650633175  0.04459810133592871  1.0000
  C   C7        1.0  0.48551072535637724  0.7394447989770472  0.45540052793774083  1.0000
  C   C8        1.0  0.014531926872905398  0.7394735352583198  0.9554064023291462  1.0000
  Cl  Cl1       1.0  0.9761297854270481  0.7977835396871883  0.7593566841663419  1.0000
  Cl  Cl2       1.0  0.5238800661557547  0.7977843091164233  0.25935750696660886  1.0000
  Cl  Cl3       1.0  0.023871152841621796  0.20220709512704368  0.2406395230386522  1.0000
  Cl  Cl4       1.0  0.47613300583906687  0.20221577437014557  0.7406396417946656  1.0000
  Cl  Cl5       1.0  0.007460525707656998  0.6522258222406806  0.589522877931259  1.0000
  Cl  Cl6       1.0  0.49253371472604357  0.6522114402497293  0.08951961559512972  1.0000
  Cl  Cl7       1.0  0.9925456122846371  0.3477931577865476  0.4104761543350934  1.0000
  Cl  Cl8       1.0  0.5074672230650705  0.347782626274963  0.9104747638221584  1.0000
  O   O1        1.0  0.5497236871096688  0.8987788766844604  0.5791526693824525  1.0000
  O   O2        1.0  0.9502495996827349  0.8987831099990375  0.07915006338486562  1.0000
  O   O3        1.0  0.45028418441091833  0.10123224991561838  0.4208454251267427  1.0000
  O   O4        1.0  0.04975307488290069  0.10121025307774535  0.920861759465396  1.0000
  O   O5        1.0  0.3022426121764497  0.24329847727666729  0.5790528308905893  1.0000
  O   O6        1.0  0.19773657545693615  0.2433026368491511  0.07905523324785692  1.0000
  O   O7        1.0  0.6977392584881629  0.7567077430224601  0.420946169892389  1.0000
  O   O8        1.0  0.8022591625762628  0.7566973252233428  0.9209428335989145  1.0000
  O   O9        1.0  0.9386741335299148  0.20513102302292907  0.6614659820801593  1.0000
  O   O10       1.0  0.5613096397092932  0.20512102356941142  0.16146537209221634  1.0000
  O   O11       1.0  0.0613302711623547  0.794880103487813  0.3385321124726489  1.0000
  O   O12       1.0  0.43869303170360047  0.7948697927405705  0.8385294582898197  1.0000
  O   O13       1.0  0.4980322335525713  0.6840257380836975  0.6949658745143524  1.0000
  O   O14       1.0  0.0019687380335823997  0.6840222491726706  0.1949667816167207  1.0000
  O   O15       1.0  0.5019617713917128  0.3159677839090662  0.3050326353936087  1.0000
  O   O16       1.0  0.9980530023782065  0.315972263585678  0.8050363212530698  1.0000
