data_image0
_chemical_formula_structural       Cd2H20C32S4N8O8
_chemical_formula_sum              "Cd2 H20 C32 S4 N8 O8"
_cell_length_a       9.84871424687212
_cell_length_b       9.848711361277234
_cell_length_c       12.932130736451155
_cell_angle_alpha    92.68408449022272
_cell_angle_beta     92.68402778619802
_cell_angle_gamma    91.23324339338181

_space_group_name_H-M_alt    "P 1"
_space_group_IT_number       1

loop_
  _space_group_symop_operation_xyz
  'x, y, z'

loop_
  _atom_site_type_symbol
  _atom_site_label
  _atom_site_symmetry_multiplicity
  _atom_site_fract_x
  _atom_site_fract_y
  _atom_site_fract_z
  _atom_site_occupancy
  Cd  Cd1       1.0  0.5055845307011068  0.4944147262908202  0.7499996383507221  1.0000
  Cd  Cd2       1.0  0.49441448856803316  0.5055847897775222  0.25000005696416133  1.0000
  H   H1        1.0  0.6486520497168371  0.5746007615838379  0.959580698656438  1.0000
  H   H2        1.0  0.4253999045410239  0.35134813381679214  0.540419413529861  1.0000
  H   H3        1.0  0.3513479859845958  0.4253987527380547  0.040419033794457  1.0000
  H   H4        1.0  0.574600155789895  0.6486523959861187  0.45958113025690733  1.0000
  H   H5        1.0  0.7192526580204799  0.5038373618431249  0.07339222926812987  1.0000
  H   H6        1.0  0.49616272172127646  0.2807473130728867  0.4266078556450806  1.0000
  H   H7        1.0  0.2807473751193754  0.49616214991815594  0.9266090495332545  1.0000
  H   H8        1.0  0.5038373386096424  0.7192532167300312  0.5733926881416948  1.0000
  H   H9        1.0  0.4442426992994087  0.20759255071308758  0.699376338275023  1.0000
  H   H10       1.0  0.7924075812552404  0.5557581473327742  0.8006229451985687  1.0000
  H   H11       1.0  0.555759396457681  0.7924079781575345  0.3006227334332934  1.0000
  H   H12       1.0  0.2075914639241674  0.44424238549689943  0.19937678827694327  1.0000
  H   H13       1.0  0.6720974132530984  0.9142914096533867  0.9594873317210783  1.0000
  H   H14       1.0  0.08570857384314223  0.3279028126678725  0.5405136473160042  1.0000
  H   H15       1.0  0.3279015775441891  0.085707087093013  0.040513871783652185  1.0000
  H   H16       1.0  0.9142914852069879  0.6720977158547399  0.4594876696460161  1.0000
  H   H17       1.0  0.43935192019094416  0.9553988737158362  0.6730745824178044  1.0000
  H   H18       1.0  0.04460153678945031  0.5606493953805084  0.8269250069173565  1.0000
  H   H19       1.0  0.5606481414207637  0.0446016573673873  0.32692518819372646  1.0000
  H   H20       1.0  0.9553975083899644  0.43935113744916504  0.17307472655815556  1.0000
  C   C1        1.0  0.6518105031933743  0.36804388591414033  0.9567645523378017  1.0000
  C   C2        1.0  0.631957274747478  0.3481884126409723  0.5432362272237938  1.0000
  C   C3        1.0  0.3481895817670235  0.6319576593698031  0.0432368027848469  1.0000
  C   C4        1.0  0.3680427868642298  0.6518121184422511  0.456763543387737  1.0000
  C   C5        1.0  0.5662515641255297  0.20442950947801816  0.8432538011768571  1.0000
  C   C6        1.0  0.7955705860741206  0.4337467774198699  0.656745342965756  1.0000
  C   C7        1.0  0.43374847285669926  0.7955700061241799  0.15674515809879347  1.0000
  C   C8        1.0  0.2044284603860831  0.5662537566901165  0.3432536173345113  1.0000
  C   C9        1.0  0.4961162687339639  0.144613146601472  0.7552607460542474  1.0000
  C   C10       1.0  0.8553884098446074  0.5038851759185619  0.7447401154813278  1.0000
  C   C11       1.0  0.5038848080292552  0.8553873814549885  0.24473983486853967  1.0000
  C   C12       1.0  0.14461170230686093  0.49611738740701844  0.25526050462670463  1.0000
  C   C13       1.0  0.6295924989618342  0.12062631305443008  0.9167201445794928  1.0000
  C   C14       1.0  0.8793729238199646  0.37040733981717006  0.5832805150271483  1.0000
  C   C15       1.0  0.3704085259808352  0.8793721814793609  0.08328036002203017  1.0000
  C   C16       1.0  0.1206271365109544  0.6295931899857479  0.4167200287596201  1.0000
  C   C17       1.0  0.6248818362903279  0.9798048110627274  0.9032614448449576  1.0000
  C   C18       1.0  0.0201949347945316  0.37511707824748436  0.5967379726724856  1.0000
  C   C19       1.0  0.3751161678273078  0.0201947080323777  0.09673744015865537  1.0000
  C   C20       1.0  0.9798041091040872  0.6248834533018837  0.4032625339782641  1.0000
  C   C21       1.0  0.49294951054987735  0.0039817295348498994  0.7410473027604639  1.0000
  C   C22       1.0  0.9960181414378299  0.5070512693695192  0.7589518753595996  1.0000
  C   C23       1.0  0.5070505277131404  0.9960177873476538  0.25895088333994204  1.0000
  C   C24       1.0  0.003981944803363997  0.4929502771947297  0.24104870658779726  1.0000
  C   C25       1.0  0.5509638088760127  0.7711285956492161  0.7955054992006367  1.0000
  C   C26       1.0  0.22887096138861557  0.44903528773995305  0.7044923216704361  1.0000
  C   C27       1.0  0.44903521295470467  0.2288709229797376  0.20449264976375758  1.0000
  C   C28       1.0  0.7711270401674355  0.5509642287945338  0.2955081096836664  1.0000
  C   C29       1.0  0.556973049284629  0.921089771911461  0.8136224910376271  1.0000
  C   C30       1.0  0.0789102276405487  0.4430276345083757  0.6863785504572064  1.0000
  C   C31       1.0  0.4430280002875264  0.0789097381033699  0.1863788248997693  1.0000
  C   C32       1.0  0.9210898326903703  0.5569728952945423  0.3136219933295621  1.0000
  S   S1        1.0  0.7071136471410283  0.22190482197777323  0.01802738183077679  1.0000
  S   S2        1.0  0.7780962698076833  0.29288576937760513  0.4819726198589223  1.0000
  S   S3        1.0  0.2928853721281115  0.7780946940905692  0.9819723134840999  1.0000
  S   S4        1.0  0.2219048069555356  0.7071147586788626  0.518027961063865  1.0000
  N   N1        1.0  0.6836137047989368  0.492019323130755  0.9973480320239501  1.0000
  N   N2        1.0  0.5079807582083404  0.31638617820076587  0.5026527775377829  1.0000
  N   N3        1.0  0.31638628036274247  0.5079781589487737  0.0026508509304364  1.0000
  N   N4        1.0  0.4920192774930923  0.6836133361211267  0.49734695491311237  1.0000
  N   N5        1.0  0.5802342952886477  0.3422816134369739  0.8676313786483474  1.0000
  N   N6        1.0  0.6577194260238528  0.4197653309557267  0.6323694394292828  1.0000
  N   N7        1.0  0.4197646993510062  0.6577168871503359  0.13236750533065586  1.0000
  N   N8        1.0  0.342281676649641  0.5802362138620722  0.3676311796541397  1.0000
  O   O1        1.0  0.5983011499241827  0.6937733786822732  0.8641077792003314  1.0000
  O   O2        1.0  0.3062268813534033  0.4017009103692288  0.6358932228053005  1.0000
  O   O3        1.0  0.40169990092875446  0.30622613261285636  0.13589276356182717  1.0000
  O   O4        1.0  0.6937731517864519  0.5982986013920452  0.364108055996084  1.0000
  O   O5        1.0  0.4954613384607073  0.7211381576984548  0.7094816727886837  1.0000
  O   O6        1.0  0.27886229079486213  0.5045381444652718  0.7905185166933035  1.0000
  O   O7        1.0  0.5045376795276368  0.2788613570895819  0.2905187957014376  1.0000
  O   O8        1.0  0.7211377695360639  0.49546238533764597  0.20948202709346475  1.0000
