data_image0
_chemical_formula_structural       ZnH18C34N2O4F12
_chemical_formula_sum              "Zn1 H18 C34 N2 O4 F12"
_cell_length_a       6.5390292568968515
_cell_length_b       10.846732120478263
_cell_length_c       12.002167950860816
_cell_angle_alpha    106.31971430925952
_cell_angle_beta     93.53147371553912
_cell_angle_gamma    92.00068609981597

_space_group_name_H-M_alt    "P 1"
_space_group_IT_number       1

loop_
  _space_group_symop_operation_xyz
  'x, y, z'

loop_
  _atom_site_type_symbol
  _atom_site_label
  _atom_site_symmetry_multiplicity
  _atom_site_fract_x
  _atom_site_fract_y
  _atom_site_fract_z
  _atom_site_occupancy
  Zn  Zn1       1.0  0.4999988298741087  0.9999987128237248  0.5000010583336092  1.0000
  H   H1        1.0  0.4123133346373463  0.33683927444720746  0.3609062296724304  1.0000
  H   H2        1.0  0.5876837002839395  0.6631578341545818  0.6390948527780865  1.0000
  H   H3        1.0  0.0679153475116436  0.10342153241546005  0.5475632397286674  1.0000
  H   H4        1.0  0.9320817704321767  0.8965765375856736  0.4524372558855491  1.0000
  H   H5        1.0  0.6194253499133849  0.15103835544231  0.7485285933952497  1.0000
  H   H6        1.0  0.3805718486957231  0.8489606773034947  0.25147298200986506  1.0000
  H   H7        1.0  0.4822187293992427  0.31892394847260147  0.910121440469986  1.0000
  H   H8        1.0  0.5177817828488287  0.681077970744056  0.08987847919210173  1.0000
  H   H9        1.0  0.9066040486241889  0.26453822814882233  0.7007108004356793  1.0000
  H   H10       1.0  0.09339799708818929  0.735463691531578  0.2992883382957602  1.0000
  H   H11       1.0  0.9631755006208566  0.16110898067000787  0.8999733753577602  1.0000
  H   H12       1.0  0.03682186521194811  0.8388919742018358  0.10002619306115437  1.0000
  H   H13       1.0  0.7111305019139846  0.09588116088201556  0.018910261834768995  1.0000
  H   H14       1.0  0.28887154144113936  0.9041207601436976  0.9810905435238624  1.0000
  H   H15       1.0  0.546787459664486  0.2613195353006859  0.17070628497372553  1.0000
  H   H16       1.0  0.45321917701181036  0.7386823911522311  0.8292971774745227  1.0000
  H   H17       1.0  0.6393052828442904  0.49150823989946696  0.2050980275625847  1.0000
  H   H18       1.0  0.3606967593322139  0.5084936817989102  0.7949036111096462  1.0000
  C   C1        1.0  0.12891089222261337  0.15617433955239324  0.2546965638442771  1.0000
  C   C2        1.0  0.871090745448825  0.8438227690953042  0.745300509187068  1.0000
  C   C3        1.0  0.2941450998813194  0.14743394348431585  0.349819599418602  1.0000
  C   C4        1.0  0.7058502414237109  0.8525612384917309  0.6501792710671738  1.0000
  C   C5        1.0  0.43816989377593524  0.25201329841711834  0.3895815117468473  1.0000
  C   C6        1.0  0.5618289201413873  0.74798669686443  0.6104195292049042  1.0000
  C   C7        1.0  0.6153276708582922  0.25358158710824336  0.4622190645761393  1.0000
  C   C8        1.0  0.3846662176477265  0.746414557148732  0.5377816666311973  1.0000
  C   C9        1.0  0.7538352801046101  0.3788025609128239  0.4986743017336864  1.0000
  C   C10       1.0  0.2461572386249316  0.6211955070244242  0.5013277033589034  1.0000
  C   C11       1.0  0.1549878021099147  0.1519290964532231  0.6293861263036362  1.0000
  C   C12       1.0  0.8450156098430668  0.8480709015648811  0.37061423848334135  1.0000
  C   C13       1.0  0.46268473515569747  0.18038775912235389  0.7413664456379649  1.0000
  C   C14       1.0  0.537312710163775  0.819614159166811  0.25863503588544756  1.0000
  C   C15       1.0  0.3851780664638723  0.27350376071012045  0.8310954332048297  1.0000
  C   C16       1.0  0.6148209134985265  0.7264981573701231  0.16890443407432804  1.0000
  C   C17       1.0  0.18146635659730487  0.30673798325962304  0.8190803113218122  1.0000
  C   C18       1.0  0.8185357697803609  0.6932648991654417  0.1809199072005185  1.0000
  C   C19       1.0  0.0653318055594596  0.24283499469888875  0.7157484984197353  1.0000
  C   C20       1.0  0.9346671755815593  0.7571669227086985  0.284250535545823  1.0000
  C   C21       1.0  0.09065367395823637  0.4056354336816169  0.9122126056956362  1.0000
  C   C22       1.0  0.9093453890267041  0.594367445797978  0.0877866747472211  1.0000
  C   C23       1.0  0.851778446722001  0.46288460908633755  0.06852008695712193  1.0000
  C   C24       1.0  0.1482221461913653  0.5371182728749843  0.9314809124958714  1.0000
  C   C25       1.0  0.94483054307058  0.3668835575527252  0.9794560801445797  1.0000
  C   C26       1.0  0.05517013404394788  0.6331202851352769  0.020543499158513574  1.0000
  C   C27       1.0  0.8897754857427955  0.23422684414642697  0.9645375589558114  1.0000
  C   C28       1.0  0.1102250265052831  0.7657750750702305  0.03546236070628344  1.0000
  C   C29       1.0  0.7490377018346874  0.19768092688391894  0.031103637498276306  1.0000
  C   C30       1.0  0.25096587262749637  0.8023209959508573  0.9688980535568916  1.0000
  C   C31       1.0  0.6561336712602566  0.29180181670927396  0.1175175632530525  1.0000
  C   C32       1.0  0.34387143548760685  0.7082001072619091  0.8824841801850524  1.0000
  C   C33       1.0  0.7072388950854246  0.4202980335846576  0.13631202285490931  1.0000
  C   C34       1.0  0.2927632301136213  0.5797048495130638  0.8636890289810211  1.0000
  N   N1        1.0  0.3508983661555689  0.12087538097539147  0.6412442626742205  1.0000
  N   N2        1.0  0.6490988348107861  0.8791236504250931  0.3587556461036954  1.0000
  O   O1        1.0  0.6808317741688228  0.16720828794785797  0.5049521623065516  1.0000
  O   O2        1.0  0.31916526428833697  0.8327888186359474  0.49504642020316686  1.0000
  O   O3        1.0  0.28362400760205725  0.04284782831826559  0.37653788292830365  1.0000
  O   O4        1.0  0.7163699662837428  0.9571492759927337  0.6234605948155335  1.0000
  F   F1        1.0  0.1040412872717624  0.27790897019232824  0.24893810113841403  1.0000
  F   F2        1.0  0.8959590589312397  0.7220910262256338  0.7510629921962818  1.0000
  F   F3        1.0  0.9432651593437525  0.10517113770804086  0.2693865147770964  1.0000
  F   F4        1.0  0.05673777215337589  0.8948230818240713  0.7306048713236991  1.0000
  F   F5        1.0  0.18669184295805508  0.08606604692892719  0.1480654733421218  1.0000
  F   F6        1.0  0.8133162524103739  0.9139349138797567  0.8519319618165753  1.0000
  F   F7        1.0  0.7325847291983933  0.4419645730627763  0.6134238013327221  1.0000
  F   F8        1.0  0.26740915577175167  0.5580315732121831  0.3865794298154129  1.0000
  F   F9        1.0  0.9545406224924093  0.3527391304426145  0.48893114865480664  1.0000
  F   F10       1.0  0.04545036866594639  0.6472589336675794  0.5110674708004481  1.0000
  F   F11       1.0  0.7092959435512469  0.46206585460492255  0.4356615049580341  1.0000
  F   F12       1.0  0.29069665584357546  0.53793317607699  0.5643415799254541  1.0000
