data_image0
_chemical_formula_structural       Zn2H18C33N2O11
_chemical_formula_sum              "Zn2 H18 C33 N2 O11"
_cell_length_a       9.641552952166254
_cell_length_b       10.893968543451711
_cell_length_c       10.84746727057924
_cell_angle_alpha    79.63556117518479
_cell_angle_beta     74.57509397917444
_cell_angle_gamma    81.14691999983545

_space_group_name_H-M_alt    "P 1"
_space_group_IT_number       1

loop_
  _space_group_symop_operation_xyz
  'x, y, z'

loop_
  _atom_site_type_symbol
  _atom_site_label
  _atom_site_symmetry_multiplicity
  _atom_site_fract_x
  _atom_site_fract_y
  _atom_site_fract_z
  _atom_site_occupancy
  Zn  Zn1       1.0  0.3548438339296567  0.513946257521667  0.5376993322580577  1.0000
  Zn  Zn2       1.0  0.6673803268604886  0.48524857294011525  0.4698774617090394  1.0000
  H   H1        1.0  0.1326595317790122  0.8837913049925062  0.09411763929487901  1.0000
  H   H2        1.0  0.45182750350156914  0.11430177403757111  0.3042384695369122  1.0000
  H   H3        1.0  0.6905694043692421  0.9256111145126837  0.3099614082050978  1.0000
  H   H4        1.0  0.7622150478533883  0.04208137200878778  0.49877642011926343  1.0000
  H   H5        1.0  0.676251503293301  0.38169444191086643  0.8859575971532082  1.0000
  H   H6        1.0  0.26743379855613364  0.6533416842060831  0.79209562130459  1.0000
  H   H7        1.0  0.09592906127164723  0.8191137032633691  0.8959333590647419  1.0000
  H   H8        1.0  0.6147001228750286  0.9465863710798031  0.7858005690882311  1.0000
  H   H9        1.0  0.24647190750555126  0.8812823271046356  0.24217947117687552  1.0000
  H   H10       1.0  0.9315893467194131  0.7648618545539919  0.3197627141358624  1.0000
  H   H11       1.0  0.6786603467654473  0.41362590971779406  0.10893985164501177  1.0000
  H   H12       1.0  0.7772853855769952  0.26312237851456644  0.600988933489731  1.0000
  H   H13       1.0  0.8705009474164243  0.11183797333018225  0.7689393509421265  1.0000
  H   H14       1.0  0.08059453866313507  0.15400109285496907  0.8421691662229946  1.0000
  H   H15       1.0  0.20389822092738533  0.3461675320698205  0.743069631497093  1.0000
  H   H16       1.0  0.1329862212811079  0.6794995860730921  0.42916914936181183  1.0000
  H   H17       1.0  0.3479311265234699  0.07173455793037677  0.6903830884929364  1.0000
  H   H18       1.0  0.27572387852492136  0.9555240328855775  0.5041706248112803  1.0000
  C   C1        1.0  0.4848896647791321  0.480561766784689  0.7514155505774909  1.0000
  C   C2        1.0  0.3856587189560514  0.6058505166700954  0.9412946790656989  1.0000
  C   C3        1.0  0.4866499160720396  0.5109029021483877  0.880299100722212  1.0000
  C   C4        1.0  0.5237631413155911  0.26125262773556557  0.493436462575133  1.0000
  C   C5        1.0  0.5958635877421302  0.4491111802470015  0.9367693865523778  1.0000
  C   C6        1.0  0.5997359716966459  0.46902925071074736  0.059711272381392164  1.0000
  C   C7        1.0  0.5009771202536583  0.5571436005391349  0.12427902103649302  1.0000
  C   C8        1.0  0.8692694084596367  0.2802977390603941  0.633305491413843  1.0000
  C   C9        1.0  0.9222678506359543  0.1970414452713456  0.7260235562047229  1.0000
  C   C10       1.0  0.0421386039208826  0.2206432803822764  0.7672486859971387  1.0000
  C   C11       1.0  0.11123395656005636  0.3262842798914035  0.7133534396718205  1.0000
  C   C12       1.0  0.6149525679347504  0.960227217230788  0.394144574845278  1.0000
  C   C13       1.0  0.06043017037096382  0.412658722039403  0.6166318339267535  1.0000
  C   C14       1.0  0.936301482856031  0.39096614392287443  0.5769574875379463  1.0000
  C   C15       1.0  0.9544853919522895  0.5765766099446381  0.4342688954915915  1.0000
  C   C16       1.0  0.4965903479623464  0.5493858570631928  0.2646005837586927  1.0000
  C   C17       1.0  0.07551565178690821  0.5978547459376458  0.4742786211243912  1.0000
  C   C18       1.0  0.5182857183816268  0.7364657524866729  0.5066759921400888  1.0000
  C   C19       1.0  0.4232350666373392  0.039152562713283594  0.6047978953175389  1.0000
  C   C20       1.0  0.5561040036723385  0.9350034821855362  0.6082765370329498  1.0000
  C   C21       1.0  0.5162438420264834  0.873955945236496  0.5026451405762771  1.0000
  C   C22       1.0  0.3839021393037499  0.976464963738529  0.5014585484489374  1.0000
  C   C23       1.0  0.6545408978566059  0.022931097022322385  0.49731561275656594  1.0000
  C   C24       1.0  0.48153699711647857  0.062032428864753825  0.3911737525404178  1.0000
  C   C25       1.0  0.601943990820871  0.8762218901044961  0.7263090578777353  1.0000
  C   C26       1.0  0.3404167504495065  0.8123312730850427  0.2037657471297721  1.0000
  C   C27       1.0  0.916258409443344  0.6649250516575548  0.322024467249861  1.0000
  C   C28       1.0  0.5224923565442907  0.12452660951348796  0.49581684772933704  1.0000
  C   C29       1.0  0.27590405291071113  0.6755917129217935  0.8833299334679555  1.0000
  C   C30       1.0  0.18150169894828846  0.7693753050149469  0.9405487580606859  1.0000
  C   C31       1.0  0.20028583992392868  0.8035436067007354  0.05338456122148471  1.0000
  C   C32       1.0  0.3102912916649104  0.7426866990375984  0.11078150810574529  1.0000
  C   C33       1.0  0.39941355405728995  0.6351275547880206  0.06156841556052938  1.0000
  N   N1        1.0  0.886272841861938  0.47477665230420746  0.48407390193384725  1.0000
  N   N2        1.0  0.13000805665637932  0.5163959866205446  0.5602346298231782  1.0000
  O   O1        1.0  0.36300586180588107  0.4739963163814664  0.7283327140958564  1.0000
  O   O2        1.0  0.4555344826306253  0.8087219475632637  0.23308611005001006  1.0000
  O   O3        1.0  0.8826194322058001  0.6288081523964381  0.23535204687467376  1.0000
  O   O4        1.0  0.6072648241407135  0.46373512444510817  0.6726810781109479  1.0000
  O   O5        1.0  0.40160573265974625  0.32764794598261904  0.5128569146262408  1.0000
  O   O6        1.0  0.647374204958119  0.3000449689099227  0.47353125208683633  1.0000
  O   O7        1.0  0.3716755068833494  0.5613238805647499  0.34239390369108963  1.0000
  O   O8        1.0  0.6161244211186772  0.5195290777133792  0.2962222590190892  1.0000
  O   O9        1.0  0.39694697333452933  0.6915897090418922  0.5432615134668667  1.0000
  O   O10       1.0  0.6424790696004126  0.6749071807614725  0.47405251565677997  1.0000
  O   O11       1.0  0.6278455209496414  0.7636503075405658  0.7606485157170298  1.0000
