data_image0
_chemical_formula_structural       Zn6H44C60O32
_chemical_formula_sum              "Zn6 H44 C60 O32"
_cell_length_a       7.549612213639557
_cell_length_b       13.759599370258261
_cell_length_c       17.48612104899461
_cell_angle_alpha    89.99880499162234
_cell_angle_beta     90.00046053195571
_cell_angle_gamma    100.71626148475373

_space_group_name_H-M_alt    "P 1"
_space_group_IT_number       1

loop_
  _space_group_symop_operation_xyz
  'x, y, z'

loop_
  _atom_site_type_symbol
  _atom_site_label
  _atom_site_symmetry_multiplicity
  _atom_site_fract_x
  _atom_site_fract_y
  _atom_site_fract_z
  _atom_site_occupancy
  Zn  Zn1       1.0  0.2992112113094051  0.9939065860690873  0.0415052995297529  1.0000
  Zn  Zn2       1.0  0.7008109994797067  0.006110282875390298  0.5415083328401309  1.0000
  Zn  Zn3       1.0  0.6046491629240476  0.8545759331150363  0.0944495265482459  1.0000
  Zn  Zn4       1.0  0.3953622797084647  0.14543368123845107  0.5944503681683173  1.0000
  Zn  Zn5       1.0  0.04993848233895189  0.1645734266117245  0.9769524007922  1.0000
  Zn  Zn6       1.0  0.9500539058271538  0.83541757715124  0.4769547797237763  1.0000
  H   H1        1.0  0.4254852988915515  0.9896507938449588  0.8117289746383776  1.0000
  H   H2        1.0  0.5745212059534239  0.010351804147511202  0.3117372815940769  1.0000
  H   H3        1.0  0.45666802395886913  0.7765662062035474  0.6359262030027182  1.0000
  H   H4        1.0  0.5433291241648063  0.2234342314175777  0.1359269091198883  1.0000
  H   H5        1.0  0.5484072615719383  0.7058641043899313  0.8714011193471407  1.0000
  H   H6        1.0  0.4515861495113426  0.2941318110692492  0.3714026386007561  1.0000
  H   H7        1.0  0.6795938267556277  0.6878486589121234  0.6222599031502014  1.0000
  H   H8        1.0  0.32038882319530865  0.3121565902277013  0.1222583872692837  1.0000
  H   H9        1.0  0.7164764563068927  0.5247340631482728  0.5732458578381525  1.0000
  H   H10       1.0  0.2835194469607599  0.4752738961665912  0.0732426868599632  1.0000
  H   H11       1.0  0.4091450568494678  0.382829111173123  0.7628683044144537  1.0000
  H   H12       1.0  0.590862585762217  0.617171771706765  0.2628598659938958  1.0000
  H   H13       1.0  0.38273937680751385  0.5466356569211397  0.8159410095417527  1.0000
  H   H14       1.0  0.6172542382204254  0.4533638935190822  0.3159359170528687  1.0000
  H   H15       1.0  0.05184160376637688  0.9922103868725783  0.2652680639086853  1.0000
  H   H16       1.0  0.9481665717722336  0.007791913930219596  0.7652702070120795  1.0000
  H   H17       1.0  0.9444958706880441  0.20740618024038326  0.4280394009426587  1.0000
  H   H18       1.0  0.055509465334267795  0.7925904917549218  0.9280450551551453  1.0000
  H   H19       1.0  0.02115227028203038  0.28537860892470224  0.189792222164165  1.0000
  H   H20       1.0  0.9788585552319586  0.7146278336356459  0.6897977627835274  1.0000
  H   H21       1.0  0.8168333629207751  0.3329257413807838  0.4356573383599454  1.0000
  H   H22       1.0  0.18315575911704934  0.667061880593515  0.935670635729956  1.0000
  H   H23       1.0  0.8462776716198871  0.507057797916083  0.4739692057982622  1.0000
  H   H24       1.0  0.15369921088092295  0.49292294511779733  0.9739778193057731  1.0000
  H   H25       1.0  0.16481479728125228  0.5990231784303217  0.2742380185165699  1.0000
  H   H26       1.0  0.8351725410912394  0.40097966581745237  0.7742424820406342  1.0000
  H   H27       1.0  0.12845376783572954  0.42576626964110176  0.23233242473315838  1.0000
  H   H28       1.0  0.871541293554429  0.5742420721168456  0.732342182193797  1.0000
  H   H29       1.0  0.6963312694129513  0.10116276868261308  0.0101312640567031  1.0000
  H   H30       1.0  0.3036775494016906  0.8988245791047546  0.5101417528751  1.0000
  H   H31       1.0  0.7551222886538723  0.1757123026043033  0.9363893548332881  1.0000
  H   H32       1.0  0.2448851206082948  0.8242745323260079  0.436400921879013  1.0000
  H   H33       1.0  0.2722843382621034  0.7752329079219606  0.09215692777649309  1.0000
  H   H34       1.0  0.7277300355319838  0.22477380009624426  0.5921627630586244  1.0000
  H   H35       1.0  0.2158723170133569  0.8609137832985566  0.1464637707088485  1.0000
  H   H36       1.0  0.7841394477707766  0.13909006304669452  0.646468344523754  1.0000
  H   H37       1.0  0.3822491051854654  0.1491886181652333  0.9192667783538013  1.0000
  H   H38       1.0  0.6177561423751  0.8508082778787979  0.4192660435541029  1.0000
  H   H39       1.0  0.45786601907009566  0.22052156881780857  0.9857230302460565  1.0000
  H   H40       1.0  0.5421521782856046  0.7794477097652645  0.48570833433843313  1.0000
  H   H41       1.0  0.8792948424798366  0.7717919929622495  0.0776293373883448  1.0000
  H   H42       1.0  0.12071709574330916  0.22820842912584985  0.5776244446738588  1.0000
  H   H43       1.0  0.9371845622183484  0.8782228012914359  0.0385638697647792  1.0000
  H   H44       1.0  0.06283619711862089  0.1217823042417976  0.5385519423809342  1.0000
  C   C1        1.0  0.4867002260441494  0.850208049906243  0.8499319478763638  1.0000
  C   C2        1.0  0.5132931708044737  0.14979285369405904  0.3499331847095277  1.0000
  C   C3        1.0  0.4483213411062862  0.9170294318476307  0.794690380943983  1.0000
  C   C4        1.0  0.5516810203467273  0.08297360736482058  0.2946934164885988  1.0000
  C   C5        1.0  0.4414688884773879  0.8907246310405339  0.7175911525905435  1.0000
  C   C6        1.0  0.558538806477976  0.1092788869445229  0.2175949246897915  1.0000
  C   C7        1.0  0.46736234636425417  0.7965673905927202  0.6961949987718512  1.0000
  C   C8        1.0  0.5326318941887749  0.20343669418766552  0.1961959955719834  1.0000
  C   C9        1.0  0.5039347366045064  0.7279786073325101  0.7503036785808064  1.0000
  C   C10       1.0  0.49605506038059116  0.27202114357518065  0.25030228209503486  1.0000
  C   C11       1.0  0.5160330658279333  0.7564421605949008  0.8277786248548152  1.0000
  C   C12       1.0  0.4839577664647619  0.24355635200821274  0.3277782247443497  1.0000
  C   C13       1.0  0.48715519286123754  0.8813900451487982  0.9323124566472388  1.0000
  C   C14       1.0  0.5128440233774113  0.11861170775361529  0.4323136307636446  1.0000
  C   C15       1.0  0.41655561517944045  0.9630275324414513  0.6573678988276512  1.0000
  C   C16       1.0  0.5834620115084517  0.036981207046125085  0.1573689378997543  1.0000
  C   C17       1.0  0.5276411166704306  0.6294681218904543  0.722809005699105  1.0000
  C   C18       1.0  0.47234651844975417  0.3705345540441486  0.2228082014478829  1.0000
  C   C19       1.0  0.6186648359735469  0.6213464758048983  0.6534244870292838  1.0000
  C   C20       1.0  0.3813270887142934  0.3786609240418031  0.15342266391792242  1.0000
  C   C21       1.0  0.6405831591388491  0.5295466343635198  0.6256398118717499  1.0000
  C   C22       1.0  0.3594082311133987  0.47046073521978826  0.1256341220455539  1.0000
  C   C23       1.0  0.5643775140860186  0.4428778047567546  0.6646164443413909  1.0000
  C   C24       1.0  0.4356138125415753  0.5571233900426833  0.16461188535874527  1.0000
  C   C25       1.0  0.4703000340117497  0.4502234360707077  0.7329538479362228  1.0000
  C   C26       1.0  0.5296933053391227  0.5497760120088486  0.2329491618573627  1.0000
  C   C27       1.0  0.45596182935074836  0.5423763570153994  0.7626394694448777  1.0000
  C   C28       1.0  0.5440304853845248  0.45762233518507134  0.2626386297254442  1.0000
  C   C29       1.0  0.5781735423713883  0.34328151776049504  0.6333650696070379  1.0000
  C   C30       1.0  0.4218213886654283  0.6567241691609028  0.13335597231129984  1.0000
  C   C31       1.0  0.04873030433443399  0.13822636652965767  0.22034570528008857  1.0000
  C   C32       1.0  0.9512811356753869  0.8617763352738164  0.7203527437815751  1.0000
  C   C33       1.0  0.033328018630093895  0.06705386316934178  0.2777969676231322  1.0000
  C   C34       1.0  0.966679722355188  0.9329503388080693  0.7777988903126029  1.0000
  C   C35       1.0  0.9890236811566167  0.09240372664270069  0.3517599227785126  1.0000
  C   C36       1.0  0.010978238168306075  0.9075948970018856  0.8517566771858895  1.0000
  C   C37       1.0  0.9709610771431655  0.18920346909527552  0.3690316546003203  1.0000
  C   C38       1.0  0.029044733601182236  0.8107939676663917  0.8690374912734242  1.0000
  C   C39       1.0  0.9842017924224177  0.26157820914512797  0.3118485913990696  1.0000
  C   C40       1.0  0.015800996341326378  0.7384251316478724  0.811853852137034  1.0000
  C   C41       1.0  0.016914378304605297  0.23316102463933666  0.23676532429898603  1.0000
  C   C42       1.0  0.9830942729742133  0.7668442227627921  0.7367728836763305  1.0000
  C   C43       1.0  0.10021094774788247  0.11354740597882079  0.1412026574992709  1.0000
  C   C44       1.0  0.8997887970017684  0.886460293503795  0.6412073985293958  1.0000
  C   C45       1.0  0.9524423600063087  0.014315630730933998  0.4105602751603001  1.0000
  C   C46       1.0  0.047567788782224285  0.9856844400615756  0.9105615955440172  1.0000
  C   C47       1.0  0.9760475343189794  0.3651089212015463  0.33164571663146347  1.0000
  C   C48       1.0  0.023940434925087548  0.6348887569756839  0.8316561325397344  1.0000
  C   C49       1.0  0.8935120967342413  0.3900729604897036  0.3992589930772894  1.0000
  C   C50       1.0  0.10647268678331294  0.6099155969097437  0.8992712463537629  1.0000
  C   C51       1.0  0.9093436683833998  0.48850079672702407  0.42133343606830204  1.0000
  C   C52       1.0  0.09063578783268156  0.5114864656215374  0.9213478187826708  1.0000
  C   C53       1.0  0.012306024479840907  0.5642756800541374  0.3779042560070351  1.0000
  C   C54       1.0  0.9876655072387805  0.4357178830918969  0.8779149671233597  1.0000
  C   C55       1.0  0.08671914267893038  0.5404017661299818  0.3087697501845739  1.0000
  C   C56       1.0  0.9132587680288392  0.4595987314687804  0.8087803854698806  1.0000
  C   C57       1.0  0.06552536620498019  0.44246995067972966  0.2854440158032006  1.0000
  C   C58       1.0  0.9344586222136966  0.5575340929092932  0.7854519763688259  1.0000
  C   C59       1.0  0.0515836692788624  0.6684883930040184  0.4062945582017221  1.0000
  C   C60       1.0  0.9484051045752789  0.33150367907186506  0.9062999782190317  1.0000
  O   O1        1.0  0.5610835114932939  0.8337225591285529  0.9818625571474726  1.0000
  O   O2        1.0  0.4389187476288468  0.16628532539050409  0.4818621236253691  1.0000
  O   O3        1.0  0.7745142675381513  0.11395972476845628  0.9646448739689788  1.0000
  O   O4        1.0  0.22548187038785963  0.8860197461447112  0.4646599377852567  1.0000
  O   O5        1.0  0.40821622550932096  0.9537905085788126  0.945920234560738  1.0000
  O   O6        1.0  0.591781497539003  0.04621385962427379  0.4459245823942197  1.0000
  O   O7        1.0  0.2773708039809789  0.85241281467772  0.09856538741544801  1.0000
  O   O8        1.0  0.7226515254565766  0.14759741783636568  0.5985673223345103  1.0000
  O   O9        1.0  0.3715531293955506  0.0442882850957389  0.6768033246904607  1.0000
  O   O10       1.0  0.6284802731400488  0.9557228943243741  0.1768014804251621  1.0000
  O   O11       1.0  0.3641281770017385  0.16405783671770993  0.9729594939484018  1.0000
  O   O12       1.0  0.6358674316540344  0.8359273435115712  0.4729596371490956  1.0000
  O   O13       1.0  0.44843576554413267  0.9428184199252879  0.5873851884624911  1.0000
  O   O14       1.0  0.5515784036401642  0.05719951106263469  0.0873863583814511  1.0000
  O   O15       1.0  0.8733938769447531  0.8414447990740751  0.0832543612176622  1.0000
  O   O16       1.0  0.12661969616957686  0.15855621707510886  0.5832449108777169  1.0000
  O   O17       1.0  0.7179348512844185  0.33122159191054823  0.5966076860229208  1.0000
  O   O18       1.0  0.2820723870708903  0.6687872340296153  0.0965933341279026  1.0000
  O   O19       1.0  0.44119505697528166  0.2747297597975802  0.6468629566373991  1.0000
  O   O20       1.0  0.5588044904537949  0.72527705560406  0.1468606434058373  1.0000
  O   O21       1.0  0.17318336783958435  0.037785906249453695  0.1326194531409897  1.0000
  O   O22       1.0  0.8268258639785273  0.9622190373404892  0.6326215578779113  1.0000
  O   O23       1.0  0.07033164034977087  0.17261385673941018  0.0886272831826886  1.0000
  O   O24       1.0  0.9296579551181093  0.8273826189966441  0.5886285197299586  1.0000
  O   O25       1.0  0.9199439955629813  0.9248234540339125  0.3881630055600311  1.0000
  O   O26       1.0  0.08006485791426597  0.0751779303141049  0.8881616229156108  1.0000
  O   O27       1.0  0.9493175806530514  0.03746037925035489  0.48207050821591213  1.0000
  O   O28       1.0  0.05069435852239932  0.9625371240992563  0.9820762216642295  1.0000
  O   O29       1.0  0.9232808965608184  0.6971585019519679  0.4439679894236974  1.0000
  O   O30       1.0  0.0767039789149635  0.3028355752050373  0.9439703008221016  1.0000
  O   O31       1.0  0.20544932387407744  0.720137744310037  0.3927905480108578  1.0000
  O   O32       1.0  0.7945324922975487  0.2798502428192434  0.892791136426993  1.0000
