data_image0
_chemical_formula_structural       Hg4H36C48Br8N8F4
_chemical_formula_sum              "Hg4 H36 C48 Br8 N8 F4"
_cell_length_a       4.03603608039469
_cell_length_b       18.83355830826223
_cell_length_c       18.825802041526316
_cell_angle_alpha    105.16197366754686
_cell_angle_beta     90.79675921812415
_cell_angle_gamma    94.87589699100353

_space_group_name_H-M_alt    "P 1"
_space_group_IT_number       1

loop_
  _space_group_symop_operation_xyz
  'x, y, z'

loop_
  _atom_site_type_symbol
  _atom_site_label
  _atom_site_symmetry_multiplicity
  _atom_site_fract_x
  _atom_site_fract_y
  _atom_site_fract_z
  _atom_site_occupancy
  Hg  Hg1       1.0  0.1893118019278361  0.4229791373442922  0.5573706274265574  1.0000
  Hg  Hg2       1.0  0.8105591354823218  0.5770308887557151  0.44263056675699625  1.0000
  Hg  Hg3       1.0  0.1672767118586904  0.9699174003871676  0.6053504172011015  1.0000
  Hg  Hg4       1.0  0.8327519151777948  0.0300851819604731  0.3946675921624987  1.0000
  H   H1        1.0  0.3397343408692137  0.2625473187341143  0.576246386815697  1.0000
  H   H2        1.0  0.6602542440882003  0.7374655322912035  0.42375333783343894  1.0000
  H   H3        1.0  0.29747813561636594  0.1816905542664955  0.6630266797468207  1.0000
  H   H4        1.0  0.7025557058775719  0.8183239975443967  0.33697471886961233  1.0000
  H   H5        1.0  0.8029842481487678  0.3513951921029489  0.8123828755412674  1.0000
  H   H6        1.0  0.19700588634692198  0.6486033809724744  0.18762174849856447  1.0000
  H   H7        1.0  0.8659273917521734  0.4259550672036171  0.7186015090395088  1.0000
  H   H8        1.0  0.13401277906230288  0.5740423388711732  0.28139996328698647  1.0000
  H   H9        1.0  0.1753776839707372  0.16742748037744096  0.784440432891344  1.0000
  H   H10       1.0  0.8246721067489133  0.8325838096957554  0.2155644557269482  1.0000
  H   H11       1.0  0.5749065417711847  0.27156013484337643  0.9773632948571206  1.0000
  H   H12       1.0  0.4250713670231292  0.7284504393747468  0.022629437237597482  1.0000
  H   H13       1.0  0.504217523575548  0.20187072843926054  0.0740371210106971  1.0000
  H   H14       1.0  0.49566480999696694  0.7981297834110634  0.9259473731616196  1.0000
  H   H15       1.0  0.9266737952743681  0.017084403716509707  0.9298325999216672  1.0000
  H   H16       1.0  0.07325927351477904  0.9829195395118406  0.07016146434165196  1.0000
  H   H17       1.0  0.005813024835589402  0.0868511731321604  0.8350226405702015  1.0000
  H   H18       1.0  0.9941929762692182  0.9131556111579185  0.16497509058326904  1.0000
  H   H19       1.0  0.507404370651507  0.9417101718106906  0.7576343556517173  1.0000
  H   H20       1.0  0.4926634460847055  0.0582792554707297  0.24238792562839953  1.0000
  H   H21       1.0  0.5965472884911946  0.8402502569940468  0.8180523245758734  1.0000
  H   H22       1.0  0.403541874737364  0.15972359861903127  0.18195282917339733  1.0000
  H   H23       1.0  0.9233280448939425  0.6959569161693793  0.6509630417579828  1.0000
  H   H24       1.0  0.07666086286965883  0.30404500438863385  0.3490461413362026  1.0000
  H   H25       1.0  0.8740496113590058  0.8017860658032917  0.5960076297449106  1.0000
  H   H26       1.0  0.12594723790641638  0.1982236421493582  0.404008864319401  1.0000
  H   H27       1.0  0.14060080726767413  0.6462544965939613  0.743178891868723  1.0000
  H   H28       1.0  0.859436391068421  0.3537307083129377  0.25680660852394505  1.0000
  H   H29       1.0  0.8785505546099586  0.703391819455078  0.9347613352828572  1.0000
  H   H30       1.0  0.12146274360904391  0.2966022832772098  0.0652348158029028  1.0000
  H   H31       1.0  0.9613266806073214  0.599755469163121  0.9926422194474397  1.0000
  H   H32       1.0  0.03872923498474281  0.4002397502417879  0.007352260180113008  1.0000
  H   H33       1.0  0.39762592473486086  0.4483673283729033  0.8119473128683765  1.0000
  H   H34       1.0  0.6023987251153003  0.5516239917324057  0.1880449937545591  1.0000
  H   H35       1.0  0.309333061351836  0.550426098858466  0.7545844442464043  1.0000
  H   H36       1.0  0.6906678834700911  0.44956797466800674  0.24540952493874352  1.0000
  C   C1        1.0  0.22258575529853178  0.28007120823353654  0.6291655508058793  1.0000
  C   C2        1.0  0.7773913333359489  0.7199377882333452  0.3708352789080465  1.0000
  C   C3        1.0  0.19883673388514475  0.23555070608080803  0.6775995645341623  1.0000
  C   C4        1.0  0.8012112489610742  0.764462234434525  0.32240520246246956  1.0000
  C   C5        1.0  0.04809643679212172  0.260875774624644  0.7451238949423311  1.0000
  C   C6        1.0  0.9519340508354401  0.7391305156512756  0.2548780595976153  1.0000
  C   C7        1.0  0.922848372622326  0.3305021900886301  0.7604924848736088  1.0000
  C   C8        1.0  0.0771703327903951  0.6695057729923024  0.2395125008706884  1.0000
  C   C9        1.0  0.9581922920404723  0.3715057032835746  0.7092040180351517  1.0000
  C   C10       1.0  0.04177041095889686  0.6284983169972805  0.2907960281901936  1.0000
  C   C11       1.0  0.024444066308177494  0.21491781520631997  0.7969084142451448  1.0000
  C   C12       1.0  0.9756184234550602  0.7850879468869463  0.20309353556039864  1.0000
  C   C13       1.0  0.8027416102756532  0.18545754928316432  0.9010817672862359  1.0000
  C   C14       1.0  0.19726010430903082  0.8145508835841968  0.09891583180863253  1.0000
  C   C15       1.0  0.654870862915921  0.21611811212310533  0.9680374751665538  1.0000
  C   C16       1.0  0.345118057728918  0.7838891866868493  0.03195766119818436  1.0000
  C   C17       1.0  0.6132916006451765  0.1775053570170257  0.02152910367343709  1.0000
  C   C18       1.0  0.3866523534482624  0.8225007586404659  0.9784607721359959  1.0000
  C   C19       1.0  0.7153831005200573  0.10671284098795299  0.005885987722073994  1.0000
  C   C20       1.0  0.2845194629324084  0.893288810514349  0.9941010004912271  1.0000
  C   C21       1.0  0.8539108677506418  0.0730563832290372  0.9395454005036258  1.0000
  C   C22       1.0  0.14604811873974197  0.9269503258656966  0.060447872916064606  1.0000
  C   C23       1.0  0.8980333246222116  0.11279890099827843  0.8871312285871369  1.0000
  C   C24       1.0  0.10199297607626784  0.8872089881510874  0.11286526960454063  1.0000
  C   C25       1.0  0.38301288941524786  0.8861601670639272  0.7363136817965666  1.0000
  C   C26       1.0  0.6170471644814556  0.1138341400936795  0.2637007701761148  1.0000
  C   C27       1.0  0.430849460747048  0.83002781049764  0.7696329449385075  1.0000
  C   C28       1.0  0.5692297462856429  0.16995815250103866  0.23037150831090256  1.0000
  C   C29       1.0  0.26756241745144405  0.7593628409872367  0.7390165184701303  1.0000
  C   C30       1.0  0.7324406820615224  0.24062468668557097  0.26098430547533263  1.0000
  C   C31       1.0  0.05862396583740558  0.7494242486352932  0.6764034716075003  1.0000
  C   C32       1.0  0.9414144398821023  0.2505710372417482  0.323599453824869  1.0000
  C   C33       1.0  0.029476327560189548  0.8082497828657652  0.645618615875371  1.0000
  C   C34       1.0  0.9705376677857132  0.19175333077776466  0.354398406423357  1.0000
  C   C35       1.0  0.3110006509167036  0.6957203513863848  0.7678331503746348  1.0000
  C   C36       1.0  0.6890162888332226  0.30426439055391796  0.23216330711598224  1.0000
  C   C37       1.0  0.5794969849550354  0.6350889749918238  0.84279531915773  1.0000
  C   C38       1.0  0.420503669881775  0.36490458090153055  0.15720223661542573  1.0000
  C   C39       1.0  0.7692908257816313  0.647466759707882  0.908884019567459  1.0000
  C   C40       1.0  0.23071501657906876  0.35252734737060354  0.09111316506538707  1.0000
  C   C41       1.0  0.817548376899289  0.5903704053895779  0.9411880463140176  1.0000
  C   C42       1.0  0.1824513669746395  0.40962095571175894  0.05881054508702727  1.0000
  C   C43       1.0  0.6795315528522182  0.5199088748490084  0.9048281367552276  1.0000
  C   C44       1.0  0.3204779550508476  0.4800819064932825  0.09516662897608799  1.0000
  C   C45       1.0  0.4990476413516305  0.5047674412921523  0.8382004874255812  1.0000
  C   C46       1.0  0.5009684114468556  0.4952211409119229  0.16179428038653745  1.0000
  C   C47       1.0  0.4493314461303442  0.5624032757231207  0.806960728765766  1.0000
  C   C48       1.0  0.5506771209325265  0.4375853257383042  0.19303666988033535  1.0000
  Br  Br1       1.0  0.5591509663505576  0.3386112319624317  0.47217353133421364  1.0000
  Br  Br2       1.0  0.44074843125538615  0.6614075770430646  0.5278220274204131  1.0000
  Br  Br3       1.0  0.8432614788324599  0.5269218652050824  0.6208162204416394  1.0000
  Br  Br4       1.0  0.15665066469046712  0.47308600774623955  0.37918725165587824  1.0000
  Br  Br5       1.0  0.7264082293200929  0.9038094172631901  0.5061434946783123  1.0000
  Br  Br6       1.0  0.27363496438803747  0.09618595684008109  0.49386850292039225  1.0000
  Br  Br7       1.0  0.6041737602051284  0.06215817379864318  0.6886409953541133  1.0000
  Br  Br8       1.0  0.3959487173762569  0.9378487080804662  0.31135829119393316  1.0000
  N   N1        1.0  0.10788553732750468  0.3470524108534646  0.6450256178190726  1.0000
  N   N2        1.0  0.8920777866496227  0.652953286586289  0.35497697936640543  1.0000
  N   N3        1.0  0.8371118640615193  0.23055766042121217  0.8526041818575364  1.0000
  N   N4        1.0  0.1629312968255406  0.7694491617824825  0.14739477070811094  1.0000
  N   N5        1.0  0.18896735399027167  0.8752981730240139  0.6748632888988053  1.0000
  N   N6        1.0  0.8110872264906489  0.1247011103119178  0.3251534603537465  1.0000
  N   N7        1.0  0.5368642638123405  0.6977088952789076  0.8175127969502114  1.0000
  N   N8        1.0  0.4631406177899606  0.3022830418594751  0.18248808545534698  1.0000
  F   F1        1.0  0.6757896834502617  0.06803093840367322  0.058134192024454  1.0000
  F   F2        1.0  0.3239783470838233  0.931962258288955  0.9418426828036457  1.0000
  F   F3        1.0  0.7255159119753787  0.46227499127437016  0.9344395565444116  1.0000
  F   F4        1.0  0.2745401688282244  0.5377140986374586  0.06554753223915812  1.0000
