data_image0
_chemical_formula_structural       Co6H24C48N24O12F12
_chemical_formula_sum              "Co6 H24 C48 N24 O12 F12"
_cell_length_a       12.500117487837665
_cell_length_b       13.877063930499988
_cell_length_c       13.877068524799803
_cell_angle_alpha    111.38738825064198
_cell_angle_beta     107.47990228769622
_cell_angle_gamma    107.48031920581776

_space_group_name_H-M_alt    "P 1"
_space_group_IT_number       1

loop_
  _space_group_symop_operation_xyz
  'x, y, z'

loop_
  _atom_site_type_symbol
  _atom_site_label
  _atom_site_symmetry_multiplicity
  _atom_site_fract_x
  _atom_site_fract_y
  _atom_site_fract_z
  _atom_site_occupancy
  Co  Co1       1.0  0.7636907149141693  0.7580160435592377  0.517205123397851  1.0000
  Co  Co2       1.0  0.24655617907953337  0.24083350666529668  0.4828635128269668  1.0000
  Co  Co3       1.0  0.2465561940232349  0.4828639746067936  0.24083280042484034  1.0000
  Co  Co4       1.0  0.005728070984822779  0.7591700504517501  0.24203156493706493  1.0000
  Co  Co5       1.0  0.7636916022741145  0.5172077886027252  0.7580187588260047  1.0000
  Co  Co6       1.0  0.005726519078379511  0.24203171889566732  0.7591703693866098  1.0000
  H   H1        1.0  0.7490743572484461  0.5236895074340141  0.36473715931956013  1.0000
  H   H2        1.0  0.38434428204733  0.158956052121134  0.6353392212013277  1.0000
  H   H3        1.0  0.3843431877858308  0.6353382445957435  0.15895312947992582  1.0000
  H   H4        1.0  0.2253995032681643  0.8410244412248458  0.47641873863006606  1.0000
  H   H5        1.0  0.7490797071398845  0.36474248509023255  0.5236948814300462  1.0000
  H   H6        1.0  0.22539688797458973  0.4764193486942148  0.8410237462337237  1.0000
  H   H7        1.0  0.6077301420327715  0.8113733840850799  0.34170037072701115  1.0000
  H   H8        1.0  0.26603308890572913  0.4696385913531812  0.6582528242752163  1.0000
  H   H9        1.0  0.26603433907800417  0.6582563413196566  0.4696367178756162  1.0000
  H   H10       1.0  0.7963419697921879  0.5303635375507268  0.1886062864718171  1.0000
  H   H11       1.0  0.6077310596770076  0.3416980969609895  0.8113744081234628  1.0000
  H   H12       1.0  0.7963412078231542  0.1886062400803894  0.5303624845602928  1.0000
  H   H13       1.0  0.6749990247135784  0.8782850373752851  0.6898184594807051  1.0000
  H   H14       1.0  0.98521886765117  0.1884112252928958  0.3102069849832604  1.0000
  H   H15       1.0  0.985218920673084  0.3102120427916901  0.18841289309843745  1.0000
  H   H16       1.0  0.7967278687496631  0.8114854445549041  0.12171389379045656  1.0000
  H   H17       1.0  0.6749949045941294  0.6898199545370006  0.8782856417771685  1.0000
  H   H18       1.0  0.7967253212513156  0.1217149677433014  0.8114888551406381  1.0000
  H   H19       1.0  0.03623263488641727  0.8254301021209685  0.6893407299961609  1.0000
  H   H20       1.0  0.346942096863387  0.13609193329680377  0.3106779425311075  1.0000
  H   H21       1.0  0.3469352772736656  0.3106738610443998  0.13608727185678055  1.0000
  H   H22       1.0  0.2108461395744142  0.8639055780423204  0.17455291346358587  1.0000
  H   H23       1.0  0.03623376371722031  0.6893439601080544  0.8254326113796467  1.0000
  H   H24       1.0  0.21084517638667682  0.17455297455337163  0.8639059358198795  1.0000
  C   C1        1.0  0.5100992735205025  0.5870853031517383  0.3546992192170962  1.0000
  C   C2        1.0  0.15541114084937394  0.23240869125560695  0.6453261041743162  1.0000
  C   C3        1.0  0.15541122870411778  0.6453247871208561  0.2324067888323569  1.0000
  C   C4        1.0  0.9229749849279968  0.7675750213904777  0.4129033819841368  1.0000
  C   C5        1.0  0.5101034023288591  0.3547034268358757  0.587089435304172  1.0000
  C   C6        1.0  0.922973342983596  0.4129037906882617  0.7675756560895126  1.0000
  C   C7        1.0  0.6517386223311163  0.5102640055304662  0.33351870292224123  1.0000
  C   C8        1.0  0.3182470976262977  0.1767828329841024  0.6665431153680219  1.0000
  C   C9        1.0  0.3182471656228927  0.6665430680361553  0.17678078541159445  1.0000
  C   C10       1.0  0.1414632175197  0.8232108014098362  0.4897857616244466  1.0000
  C   C11       1.0  0.6517447237652192  0.33352466652749513  0.5102689272038319  1.0000
  C   C12       1.0  0.1414629005379879  0.48978828162683646  0.8232125872979381  1.0000
  C   C13       1.0  0.8467064752119315  0.999994678856787  0.6099813757801018  1.0000
  C   C14       1.0  0.23686640513242446  0.3900580753337195  0.3900549736749711  1.0000
  C   C15       1.0  0.8467089950307455  0.6099799934492225  0.9999929012097015  1.0000
  C   C16       1.0  0.6786691425549877  0.8956014334567685  0.4181967875096576  1.0000
  C   C17       1.0  0.26054359497216245  0.4774030683666056  0.5817937118516456  1.0000
  C   C18       1.0  0.2605441813383537  0.5817971640625431  0.4774018613209919  1.0000
  C   C19       1.0  0.7830507131491232  0.5226082800316121  0.1043792052118917  1.0000
  C   C20       1.0  0.6786692999637652  0.4181941873430761  0.8956010350377854  1.0000
  C   C21       1.0  0.7830491277441781  0.10437935207033176  0.5226091494514052  1.0000
  C   C22       1.0  0.7675806332872455  0.6731454450167149  0.6731465859021173  1.0000
  C   C23       1.0  0.09452316059216764  0.9999740904945823  0.3268890107950853  1.0000
  C   C24       1.0  0.09452213938330083  0.3268880003638869  0.9999726251904448  1.0000
  C   C25       1.0  0.6946298587321563  0.8149675260023768  0.710734534428184  1.0000
  C   C26       1.0  0.9839573921369575  0.10418180325318359  0.28924973297681333  1.0000
  C   C27       1.0  0.983957129712273  0.28925155823485943  0.1041844068891322  1.0000
  C   C28       1.0  0.8797102355416371  0.895721429735261  0.18500140410559152  1.0000
  C   C29       1.0  0.6946278212530784  0.7107356938475604  0.8149676575103372  1.0000
  C   C30       1.0  0.879707195415115  0.1850005982445992  0.8957217439817954  1.0000
  C   C31       1.0  0.03728646690273513  0.8155346929048193  0.6080253497426753  1.0000
  C   C32       1.0  0.4292963387270774  0.2075288736751162  0.39199496458922317  1.0000
  C   C33       1.0  0.4292908524140912  0.3919914477510601  0.2075242745794696  1.0000
  C   C34       1.0  0.22178650772900005  0.7924929550079797  0.18446304570176156  1.0000
  C   C35       1.0  0.03728593132111514  0.6080271641910855  0.8155375946045711  1.0000
  C   C36       1.0  0.22178513589395982  0.18446419385273322  0.7924931918966466  1.0000
  C   C37       1.0  0.5511066151108538  0.4038981294886811  0.24249830243526563  1.0000
  C   C38       1.0  0.3086426061213245  0.16141794175999277  0.7575483580907729  1.0000
  C   C39       1.0  0.3086421962483143  0.7575490995620201  0.16141677332716842  1.0000
  C   C40       1.0  0.14720792211642222  0.8385730556273074  0.5961421983697336  1.0000
  C   C41       1.0  0.5511126329897067  0.2425031915687157  0.4039025401023936  1.0000
  C   C42       1.0  0.14720832309556905  0.5961439070777815  0.8385757382177347  1.0000
  C   C43       1.0  0.6920611690572754  0.9999911865352332  0.4219167366339605  1.0000
  C   C44       1.0  0.27027302039766  0.5780921739691038  0.5780894615859609  1.0000
  C   C45       1.0  0.6920610726216196  0.4219158061012891  0.9999911221247048  1.0000
  C   C46       1.0  0.6706450798561008  0.7947667264842196  0.7947650104418148  1.0000
  C   C47       1.0  0.8759422148578154  0.9999490249464388  0.20517404639052494  1.0000
  C   C48       1.0  0.8759426399879898  0.20517465484722663  0.9999513148177287  1.0000
  N   N1        1.0  0.6316307411769131  0.5999106461012715  0.3869000375777603  1.0000
  N   N2        1.0  0.24475247739462694  0.21305004659753013  0.6131517870865935  1.0000
  N   N3        1.0  0.24475208339542576  0.6131507890270881  0.21304703720159066  1.0000
  N   N4        1.0  0.03169476412703198  0.7869357082035578  0.4001044756934321  1.0000
  N   N5        1.0  0.6316352278168366  0.38690446754960556  0.5999140306571887  1.0000
  N   N6        1.0  0.03169368385584902  0.40010657704161906  0.7869367914300299  1.0000
  N   N7        1.0  0.7534933175829437  0.895682999800904  0.5102081343481047  1.0000
  N   N8        1.0  0.24335340353819393  0.38548477120620817  0.4897933124529459  1.0000
  N   N9        1.0  0.24335341457810233  0.4897951178140901  0.38548384281588005  1.0000
  N   N10       1.0  0.8578002277424445  0.6145355399336694  0.10429761536443738  1.0000
  N   N11       1.0  0.7534940532395566  0.51020606766064  0.8956830336958037  1.0000
  N   N12       1.0  0.8577997298276898  0.1043004003704411  0.614538437075254  1.0000
  N   N13       1.0  0.7417104192747461  0.755559847727156  0.6516354551082273  1.0000
  N   N14       1.0  0.09016041167473078  0.10388886816902952  0.3483814835440456  1.0000
  N   N15       1.0  0.0901587506342238  0.34838208214836897  0.1038892258715691  1.0000
  N   N16       1.0  0.9862122780801528  0.8960406444908673  0.24443382275558903  1.0000
  N   N17       1.0  0.7417089620801463  0.65163596792182  0.7555618581105538  1.0000
  N   N18       1.0  0.9862093198687207  0.2444327025324071  0.8960414763831895  1.0000
  N   N19       1.0  0.9281587265831632  0.7805269337709221  0.5184024977478574  1.0000
  N   N20       1.0  0.4097835640655346  0.2621143346199731  0.4815948398174897  1.0000
  N   N21       1.0  0.4097786977388722  0.4815910016746728  0.2621095134198371  1.0000
  N   N22       1.0  0.1476681285288919  0.7378802323703582  0.219469188111475  1.0000
  N   N23       1.0  0.9281592855745585  0.5184045389744013  0.7805287405245384  1.0000
  N   N24       1.0  0.1476673808927274  0.21947083408924334  0.7378819017688516  1.0000
  O   O1        1.0  0.49063189502537335  0.669529872539421  0.40789786325765937  1.0000
  O   O2        1.0  0.08275518738906841  0.2616779721389761  0.5921264686769305  1.0000
  O   O3        1.0  0.08275565207014782  0.5921239101608933  0.26167706906709753  1.0000
  O   O4        1.0  0.8210426841075389  0.7382889452257474  0.3304160053190444  1.0000
  O   O5        1.0  0.49063746023586663  0.40790299345237463  0.6695341746394663  1.0000
  O   O6        1.0  0.8210412375031096  0.3304169863019695  0.7382903764699621  1.0000
  O   O7        1.0  0.9196079425015212  0.9999912142044494  0.6947659172772447  1.0000
  O   O8        1.0  0.2250873887866618  0.3053204423031914  0.30531787977160724  1.0000
  O   O9        1.0  0.9196102400255554  0.694761600251347  0.9999886925494368  1.0000
  O   O10       1.0  0.8130033436772167  0.6183975306610209  0.6184003138674754  1.0000
  O   O11       1.0  0.1946783329923605  0.9999560501100291  0.3816893677674146  1.0000
  O   O12       1.0  0.19467754584149327  0.3816880922056213  0.9999554552283741  1.0000
  F   F1        1.0  0.5716599152241669  0.31308610342429694  0.18834049549866455  1.0000
  F   F2        1.0  0.3833469316404958  0.1247181469521905  0.8116729528517157  1.0000
  F   F3        1.0  0.38334690333400095  0.8116734330204808  0.12471747002052785  1.0000
  F   F4        1.0  0.258602349792348  0.8752076954649299  0.6869539150548577  1.0000
  F   F5        1.0  0.5716686087332903  0.188344472297466  0.31309352845711663  1.0000
  F   F6        1.0  0.2586018172305701  0.6869554752402108  0.8752087117676055  1.0000
  F   F7        1.0  0.6165110986958383  0.9999811322946286  0.3283316369094749  1.0000
  F   F8        1.0  0.2883101575918445  0.6716609979228637  0.6716610006416631  1.0000
  F   F9        1.0  0.6165112407847533  0.3283318622198835  0.9999826482045436  1.0000
  F   F10       1.0  0.623618519256894  0.8554087325082663  0.8554055080392972  1.0000
  F   F11       1.0  0.7682568556750482  0.9999324329597529  0.14449669831289927  1.0000
  F   F12       1.0  0.7682559067931791  0.14450017701527426  0.9999367893287499  1.0000
