data_image0
_chemical_formula_structural       ZnSiH24C24N12F6
_chemical_formula_sum              "Zn1 Si1 H24 C24 N12 F6"
_cell_length_a       7.806131311079917
_cell_length_b       13.857265179064937
_cell_length_c       13.857190678077883
_cell_angle_alpha    89.99992553422791
_cell_angle_beta     89.99961791486234
_cell_angle_gamma    90.0003438140077

_space_group_name_H-M_alt    "P 1"
_space_group_IT_number       1

loop_
  _space_group_symop_operation_xyz
  'x, y, z'

loop_
  _atom_site_type_symbol
  _atom_site_label
  _atom_site_symmetry_multiplicity
  _atom_site_fract_x
  _atom_site_fract_y
  _atom_site_fract_z
  _atom_site_occupancy
  Zn  Zn1       1.0  0.5000938087111423  0.5000032224324825  0.5000113274039321  1.0000
  Si  Si1       1.0  5.8663897476700017e-05  0.49998433376489965  0.5000057845486338  1.0000
  H   H1        1.0  0.24740069321622127  0.6582518812550759  0.5483086523796742  1.0000
  H   H2        1.0  0.7526771546579029  0.658304758837666  0.4516791578963292  1.0000
  H   H3        1.0  0.2474213543887488  0.3417407174410343  0.451658676074963  1.0000
  H   H4        1.0  0.7526454446108136  0.3416946041676496  0.5483793392485123  1.0000
  H   H5        1.0  0.24743610444019745  0.45169229301152564  0.6582784070246531  1.0000
  H   H6        1.0  0.7526535863014134  0.5483283788001644  0.6583250111135539  1.0000
  H   H7        1.0  0.24744999536018505  0.5483291714984944  0.34171850881605076  1.0000
  H   H8        1.0  0.7526139281030171  0.4516341803392122  0.3416930739284039  1.0000
  H   H9        1.0  0.7906782793009128  0.918576972689543  0.4301976503587852  1.0000
  H   H10       1.0  0.8942565883190667  0.8096905893031802  0.42152765693240457  1.0000
  H   H11       1.0  0.20923579709867826  0.9185123917764316  0.5698085848238108  1.0000
  H   H12       1.0  0.10572806991936552  0.809601831874332  0.578476554692962  1.0000
  H   H13       1.0  0.7906256191903298  0.08141818923747479  0.5698809082531824  1.0000
  H   H14       1.0  0.8942190750162882  0.190310696939612  0.5785497856197633  1.0000
  H   H15       1.0  0.20926547445724  0.08148296412739599  0.43015239410382816  1.0000
  H   H16       1.0  0.10576284847697791  0.19039966792449556  0.42147904515626056  1.0000
  H   H17       1.0  0.7906876669762539  0.5698007649917968  0.9185847482485342  1.0000
  H   H18       1.0  0.8942466887542369  0.5784758831750382  0.8096988387476427  1.0000
  H   H19       1.0  0.2092593505998579  0.43017699135042875  0.9185260491813094  1.0000
  H   H20       1.0  0.1057643717222803  0.4215207775420565  0.8096203390106067  1.0000
  H   H21       1.0  0.7906623489340207  0.4301041916578754  0.08144185175066808  1.0000
  H   H22       1.0  0.8942161639820299  0.4214460223330078  0.19033314011986133  1.0000
  H   H23       1.0  0.2092982867090569  0.569830632552808  0.08147967174468107  1.0000
  H   H24       1.0  0.10580981437955472  0.578506701515323  0.1903886625407765  1.0000
  C   C1        1.0  0.35828183516135687  0.7009950048707696  0.5267636425034323  1.0000
  C   C2        1.0  0.35070115446036004  0.8019954410022977  0.5262382322964712  1.0000
  C   C3        1.0  0.4999765534089137  0.854343702596026  0.5000074891520399  1.0000
  C   C4        1.0  0.6492782985886338  0.8020313417322101  0.47375588620005255  1.0000
  C   C5        1.0  0.6417772509269142  0.7010265508645261  0.4732241122756732  1.0000
  C   C6        1.0  0.4999514710113219  0.9557461064047744  0.5000124748404174  1.0000
  C   C7        1.0  0.49994791127738847  0.04424085360049189  0.5000210052337619  1.0000
  C   C8        1.0  0.4999574170685578  0.1456490306085669  0.5000324856754828  1.0000
  C   C9        1.0  0.3507046584279294  0.19799678620327657  0.4737611769837357  1.0000
  C   C10       1.0  0.35828513701997616  0.29899652639511487  0.4732292430908202  1.0000
  C   C11       1.0  0.6417491818740118  0.29896882797203256  0.5268247040642676  1.0000
  C   C12       1.0  0.6492542871020889  0.19796550582515948  0.5262957881585422  1.0000
  C   C13       1.0  0.3582783271702823  0.4732255620188823  0.7010018490081505  1.0000
  C   C14       1.0  0.35068883394734485  0.47374795314269136  0.801979040419418  1.0000
  C   C15       1.0  0.49999694278488255  0.499991445723751  0.8542974245459616  1.0000
  C   C16       1.0  0.6493312833588194  0.5262501608395665  0.8020094685771466  1.0000
  C   C17       1.0  0.6417929301093539  0.5267863945231569  0.7010301403370817  1.0000
  C   C18       1.0  0.4999758537437131  0.49998488497120513  0.9557400642035885  1.0000
  C   C19       1.0  0.49996836506275605  0.49996815790010624  0.04426815816247399  1.0000
  C   C20       1.0  0.4999805831384379  0.49995582405863814  0.14571151940744184  1.0000
  C   C21       1.0  0.3506939200930362  0.5262442740181684  0.19802902866862124  1.0000
  C   C22       1.0  0.358283520778329  0.5267674125175148  0.2990018612998283  1.0000
  C   C23       1.0  0.6417655288173024  0.47317434552071086  0.2989840369086778  1.0000
  C   C24       1.0  0.649310191043405  0.4736968935509438  0.19800612325679615  1.0000
  N   N1        1.0  0.5000408202558334  0.6535234135696656  0.4999931865770008  1.0000
  N   N2        1.0  0.5000327842327792  0.34647437139076226  0.5000200870426281  1.0000
  N   N3        1.0  0.5000442324766681  0.5000103389800827  0.6535698697296934  1.0000
  N   N4        1.0  0.5000383393246893  0.4999823944970316  0.34643835234718506  1.0000
  N   N5        1.0  0.8001024208327012  0.8491873802165272  0.4529519288768852  1.0000
  N   N6        1.0  0.1998531930434311  0.8491227970044761  0.5470493448723557  1.0000
  N   N7        1.0  0.8000558875891814  0.1508070920231502  0.5471323670168926  1.0000
  N   N8        1.0  0.1998718122223195  0.15087036214153227  0.45291383474351216  1.0000
  N   N9        1.0  0.8001113131808354  0.5470524701709607  0.8491926134267087  1.0000
  N   N10       1.0  0.19988775654780264  0.4529340361753356  0.84913247727939  1.0000
  N   N11       1.0  0.8000738970668524  0.45285251840941493  0.15082817753851424  1.0000
  N   N12       1.0  0.19990386288354506  0.5470728342793122  0.1508667845504519  1.0000
  F   F1        1.0  0.22307310363071056  0.4999969797264043  0.4999995867947219  1.0000
  F   F2        1.0  0.7770812065765824  0.49998565086637115  0.5000122433871181  1.0000
  F   F3        1.0  7.501116576240001e-05  0.587395577772625  0.41256881296927617  1.0000
  F   F4        1.0  9.612056860680001e-05  0.4125831928547896  0.5874384261370407  1.0000
  F   F5        1.0  9.576820155390003e-05  0.5874228866137586  0.5874116115931755  1.0000
  F   F6        1.0  8.304970971550002e-05  0.4125486675899097  0.4126042872671291  1.0000
