data_image0
_chemical_formula_structural       Tb2H42C56O24
_chemical_formula_sum              "Tb2 H42 C56 O24"
_cell_length_a       9.155596903746243
_cell_length_b       14.047640577942705
_cell_length_c       16.258203390780213
_cell_angle_alpha    85.21823490452945
_cell_angle_beta     77.46333149371584
_cell_angle_gamma    72.53469110758601

_space_group_name_H-M_alt    "P 1"
_space_group_IT_number       1

loop_
  _space_group_symop_operation_xyz
  'x, y, z'

loop_
  _atom_site_type_symbol
  _atom_site_label
  _atom_site_symmetry_multiplicity
  _atom_site_fract_x
  _atom_site_fract_y
  _atom_site_fract_z
  _atom_site_occupancy
  Tb  Tb1       1.0  0.22464452288515707  0.5307940179602468  0.4975841163230186  1.0000
  Tb  Tb2       1.0  0.7753574392925486  0.46920956822419413  0.5024142148080133  1.0000
  H   H1        1.0  0.23494558628758727  0.7263801915071895  0.5144010820736896  1.0000
  H   H2        1.0  0.7650505525245636  0.27361893052397335  0.4855982894229386  1.0000
  H   H3        1.0  0.3997986865987783  0.6766609059407717  0.4583406044464198  1.0000
  H   H4        1.0  0.6002020800791072  0.3233404292956267  0.5416611089064605  1.0000
  H   H5        1.0  0.09737962989631654  0.6882438358420088  0.3790296467869824  1.0000
  H   H6        1.0  0.9026178019849381  0.3117597806300267  0.6209649434177396  1.0000
  H   H7        1.0  0.9936851389587813  0.6123426343411824  0.38026761405421905  1.0000
  H   H8        1.0  0.006314442267949969  0.38765873140322077  0.6197287096924529  1.0000
  H   H9        1.0  0.602269520055529  0.5336368436422063  0.7660779912649289  1.0000
  H   H10       1.0  0.3977358222678405  0.4663518111499911  0.23392280504078405  1.0000
  H   H11       1.0  0.14842267616639038  0.658666578389884  0.7057655024716213  1.0000
  H   H12       1.0  0.8515888725062836  0.3413355176905456  0.294228042791815  1.0000
  H   H13       1.0  0.12854802372383733  0.29454409106016044  0.7442885577118334  1.0000
  H   H14       1.0  0.871444755656242  0.7054550370777904  0.25571123367169696  1.0000
  H   H15       1.0  0.5174783894559313  0.18231109760867537  0.5407858284634913  1.0000
  H   H16       1.0  0.4825191809996382  0.8176924587549552  0.4592204352747658  1.0000
  H   H17       1.0  0.49864821761202177  0.6065982279082079  0.911337843594481  1.0000
  H   H18       1.0  0.5013562146259927  0.3933949095780634  0.08866152332644363  1.0000
  H   H19       1.0  0.04517594242577858  0.7357507140934206  0.8493877994348866  1.0000
  H   H20       1.0  0.9548341505513278  0.2642521304230172  0.1506058756859332  1.0000
  H   H21       1.0  0.1746721161173781  0.12270449487139248  0.8098517515239794  1.0000
  H   H22       1.0  0.8253160724471654  0.8772998621406389  0.19014824904975575  1.0000
  H   H23       1.0  0.5617467793014654  0.012059628585348  0.6041501697094702  1.0000
  H   H24       1.0  0.4382478870563489  0.9879454214866997  0.3958569681400661  1.0000
  H   H25       1.0  0.3465214903034093  0.831917314646127  0.863288378902567  1.0000
  H   H26       1.0  0.6534787845732382  0.1680825488066517  0.13670980824343107  1.0000
  H   H27       1.0  0.07520278755877281  0.7956638471166289  0.10940881562433453  1.0000
  H   H28       1.0  0.9248068859676623  0.20433003608285827  0.8905879981906679  1.0000
  H   H29       1.0  0.6768766528491031  0.9183593909490426  0.7745703479982852  1.0000
  H   H30       1.0  0.32311908168242093  0.08163822133528954  0.22543287004948098  1.0000
  H   H31       1.0  0.36535412281843094  0.8377926480006297  0.64765151722726  1.0000
  H   H32       1.0  0.6346454875818425  0.1622087050893697  0.35234726410541134  1.0000
  H   H33       1.0  0.35038881927705734  0.997232472846392  0.9025196557356384  1.0000
  H   H34       1.0  0.6496069617700614  0.0027674050759785  0.09747786246656891  1.0000
  H   H35       1.0  0.07595181267389961  0.9650092787718381  0.1483944703253499  1.0000
  H   H36       1.0  0.9240530748984384  0.03498534631605571  0.8516053508199449  1.0000
  H   H37       1.0  0.899021250140983  0.7811927463944813  0.7031865805360838  1.0000
  H   H38       1.0  0.10097494701824423  0.21880635032787407  0.29681770613255765  1.0000
  H   H39       1.0  0.5887587613394133  0.6975265046418998  0.5779171886193097  1.0000
  H   H40       1.0  0.4112432984075767  0.30247932503537106  0.422079743441671  1.0000
  H   H41       1.0  0.27680965866607465  0.20456981999939225  0.013364298817286603  1.0000
  H   H42       1.0  0.7231854770295456  0.7954292534497686  0.9866450429856713  1.0000
  C   C1        1.0  0.44133786600342967  0.5501126003858658  0.6417177601057844  1.0000
  C   C2        1.0  0.558678533680535  0.44988126743643164  0.35827882833190483  1.0000
  C   C3        1.0  0.2955766103555746  0.3499760035013111  0.5977049813268778  1.0000
  C   C4        1.0  0.7044234626724017  0.6500268340267114  0.4022948686266761  1.0000
  C   C5        1.0  0.3808394828108419  0.5919515170353692  0.7282448385352326  1.0000
  C   C6        1.0  0.6191666221414635  0.408045349509763  0.2717534435777155  1.0000
  C   C7        1.0  0.32056715827166476  0.24971889173695427  0.638255548064599  1.0000
  C   C8        1.0  0.6794240073244852  0.7502839399306539  0.36174972236287334  1.0000
  C   C9        1.0  0.48035430064466317  0.5770553980587892  0.7855711574987866  1.0000
  C   C10       1.0  0.5196492282180999  0.4229347610606311  0.21442791536989605  1.0000
  C   C11       1.0  0.22387417128961568  0.6483652585520333  0.7513177914594992  1.0000
  C   C12       1.0  0.7761365177681229  0.3516338401799501  0.24867914613070505  1.0000
  C   C13       1.0  0.22280892302005376  0.23222075508726198  0.7138607797428096  1.0000
  C   C14       1.0  0.777184034156541  0.7677805817439279  0.2861443709321918  1.0000
  C   C15       1.0  0.4424590856968749  0.1695320641712854  0.5998082027793572  1.0000
  C   C16       1.0  0.5575373649480041  0.8304714942279434  0.40019820092120295  1.0000
  C   C17       1.0  0.4234688926720552  0.6177928053517263  0.8656312983811035  1.0000
  C   C18       1.0  0.5765321874272759  0.3822003350777408  0.13436910282322864  1.0000
  C   C19       1.0  0.16617063535953486  0.6901905768805536  0.8308593437069121  1.0000
  C   C20       1.0  0.8338381499617  0.3098077795222097  0.16913788391280354  1.0000
  C   C21       1.0  0.2473073008990667  0.13723081734525522  0.7504145337616708  1.0000
  C   C22       1.0  0.7526786699242577  0.8627735342471682  0.249587589926172  1.0000
  C   C23       1.0  0.46741625739257137  0.0738849144257401  0.6349105339167382  1.0000
  C   C24       1.0  0.532579752504759  0.9261171500446681  0.36509664435245553  1.0000
  C   C25       1.0  0.26689804911638504  0.6739959539263797  0.8871281948996669  1.0000
  C   C26       1.0  0.7331097279669336  0.3259971837803022  0.11286952334135245  1.0000
  C   C27       1.0  0.3695825963375299  0.05798505030750791  0.7105771917686428  1.0000
  C   C28       1.0  0.6304060840282587  0.9420207784881499  0.2894263350119816  1.0000
  C   C29       1.0  0.21137659786111146  0.8040873957921305  0.9847151544484944  1.0000
  C   C30       1.0  0.7886307317645561  0.19591170904664074  0.015282203028611713  1.0000
  C   C31       1.0  0.5108630564506456  0.886587388616462  0.7122989681606671  1.0000
  C   C32       1.0  0.48913176070214337  0.11341470952553583  0.2877022061058058  1.0000
  C   C33       1.0  0.2885542144038382  0.8605511000913925  0.9258224301035867  1.0000
  C   C34       1.0  0.7114520856870357  0.13945025343941353  0.07417305386927356  1.0000
  C   C35       1.0  0.1347162360195142  0.8412848828305712  0.06521373500149961  1.0000
  C   C36       1.0  0.8652884497041454  0.1587127163325732  0.934787748951351  1.0000
  C   C37       1.0  0.6584293420171006  0.8707643939489035  0.7305789700772749  1.0000
  C   C38       1.0  0.3415643772051524  0.12923769673789562  0.2694241873410094  1.0000
  C   C39       1.0  0.48305371004986597  0.8242061931266706  0.6590149800203022  1.0000
  C   C40       1.0  0.5169456766215815  0.17579814352937725  0.34098362093041606  1.0000
  C   C41       1.0  0.289753787513554  0.9536558087079571  0.9480980761366528  1.0000
  C   C42       1.0  0.7102453675524033  0.046344056780412805  0.05190025097165573  1.0000
  C   C43       1.0  0.13592194501151067  0.9344973980726792  0.0865246221448714  1.0000
  C   C44       1.0  0.8640765668749425  0.06549648966479542  0.9134766632756524  1.0000
  C   C45       1.0  0.7823365646262771  0.7935199282508381  0.6909155827770732  1.0000
  C   C46       1.0  0.217657154595976  0.20648216243596815  0.3090875746412109  1.0000
  C   C47       1.0  0.6072318039083554  0.746096462410087  0.6209127780518672  1.0000
  C   C48       1.0  0.3927661197741373  0.2539086258455683  0.37908533835973673  1.0000
  C   C49       1.0  0.21382930658960916  0.9918017242535772  0.0282193773289521  1.0000
  C   C50       1.0  0.7861693028661277  0.008194406976734602  0.9717805090215282  1.0000
  C   C51       1.0  0.7582117585444623  0.7315714879331453  0.634920528857599  1.0000
  C   C52       1.0  0.24178538850560463  0.26843285279409923  0.36507835201772565  1.0000
  C   C53       1.0  0.2132128835146716  0.0901974801311027  0.0530938310593143  1.0000
  C   C54       1.0  0.786783530079994  0.9097986361888105  0.9469100215947821  1.0000
  C   C55       1.0  0.8933025331422044  0.6530444859787468  0.588478742874429  1.0000
  C   C56       1.0  0.10669984790289526  0.34696060362531983  0.411516970498461  1.0000
  O   O1        1.0  0.3465696929591502  0.5688813308830448  0.5919433523586122  1.0000
  O   O2        1.0  0.6534243940768008  0.43112228536858777  0.4080528865260222  1.0000
  O   O3        1.0  0.2846722266010956  0.6946821611970152  0.4602194041066312  1.0000
  O   O4        1.0  0.715327726977442  0.30531844232897515  0.539780001727465  1.0000
  O   O5        1.0  0.030743189691001788  0.6597351115188205  0.5831143194525552  1.0000
  O   O6        1.0  0.9692617455634861  0.3402766950017551  0.4168787599751056  1.0000
  O   O7        1.0  0.09498188014864443  0.6196210409382273  0.389135255904975  1.0000
  O   O8        1.0  0.9050248533963907  0.3803818096850052  0.6108588391027469  1.0000
  O   O9        1.0  0.1647939223295793  0.4179748730722964  0.618315601916116  1.0000
  O   O10       1.0  0.8352024699682161  0.5820287106357399  0.38168588661243064  1.0000
  O   O11       1.0  0.41569085758080604  0.5000109893531575  0.37828331958071004  1.0000
  O   O12       1.0  0.5843109772707961  0.49998290809552515  0.6217144739703997  1.0000
  O   O13       1.0  0.40306448350336405  0.36855981325285125  0.5393791917320884  1.0000
  O   O14       1.0  0.5969325878575731  0.6314422744907591  0.4606229314027814  1.0000
  O   O15       1.0  0.130642664455806  0.4176951568366789  0.446170556800368  1.0000
  O   O16       1.0  0.8693634483731715  0.5823091644421725  0.5538278187730442  1.0000
  O   O17       1.0  0.20582075723887527  0.7110788339051054  0.9687584229892753  1.0000
  O   O18       1.0  0.7941873192623988  0.28891357321916195  0.0312362333741447  1.0000
  O   O19       1.0  0.38611327885713104  0.965767475842995  0.749407034938642  1.0000
  O   O20       1.0  0.6138743029948445  0.03423088760014541  0.25059899592982765  1.0000
  O   O21       1.0  0.1581025065098416  0.12538455897754372  0.12383856012853305  1.0000
  O   O22       1.0  0.8418878162301341  0.8746100957367348  0.8761624661301894  1.0000
  O   O23       1.0  0.28142695347744967  0.14202578366265334  0.9890485947856078  1.0000
  O   O24       1.0  0.7185793511515328  0.8579732820849133  0.010956889808326762  1.0000
