data_image0
_chemical_formula_structural       CoH28C26N6O6
_chemical_formula_sum              "Co1 H28 C26 N6 O6"
_cell_length_a       8.880993384824208
_cell_length_b       9.821653820224157
_cell_length_c       11.299796354640293
_cell_angle_alpha    63.80676001938721
_cell_angle_beta     87.96181603609493
_cell_angle_gamma    71.7514356416697

_space_group_name_H-M_alt    "P 1"
_space_group_IT_number       1

loop_
  _space_group_symop_operation_xyz
  'x, y, z'

loop_
  _atom_site_type_symbol
  _atom_site_label
  _atom_site_symmetry_multiplicity
  _atom_site_fract_x
  _atom_site_fract_y
  _atom_site_fract_z
  _atom_site_occupancy
  Co  Co1       1.0  0.5000026589924148  0.5000015063140567  0.5000004102558293  1.0000
  H   H1        1.0  0.2570398917877271  0.9361919788529321  0.8283150060962399  1.0000
  H   H2        1.0  0.7429467941428172  0.0638229455743939  0.1716844922367073  1.0000
  H   H3        1.0  0.06832332448543349  0.005483322867704005  0.875918890585936  1.0000
  H   H4        1.0  0.9316624783672441  0.9945207659909845  0.12408210122308813  1.0000
  H   H5        1.0  0.03328617828731956  0.7369274728034229  0.9436272659826415  1.0000
  H   H6        1.0  0.9667200541643339  0.2630694874618414  0.05638025473599834  1.0000
  H   H7        1.0  0.22087274570993998  0.668984591455832  0.8927051155162502  1.0000
  H   H8        1.0  0.7791287160838892  0.33102321095449133  0.10729488256470182  1.0000
  H   H9        1.0  0.5946203264965673  0.6064580214845494  0.2324904711006681  1.0000
  H   H10       1.0  0.4053860213905481  0.393548626724261  0.7675071657140721  1.0000
  H   H11       1.0  0.4693148220751199  0.6922700593129251  0.006890244769721097  1.0000
  H   H12       1.0  0.5306933711960867  0.30773780650790883  0.9931068739166662  1.0000
  H   H13       1.0  0.023989375029898962  0.6863718320312916  0.1739309693775865  1.0000
  H   H14       1.0  0.9760181017445151  0.31363481736407567  0.8260675183786502  1.0000
  H   H15       1.0  0.1653907933669672  0.5979588018028184  0.38903867785845136  1.0000
  H   H16       1.0  0.8346193349741426  0.4020466597450395  0.610960182883879  1.0000
  H   H17       1.0  0.9355951884944883  0.9716390005351488  0.7036717609859479  1.0000
  H   H18       1.0  0.0643972118016904  0.028355488808834706  0.2963326864241651  1.0000
  H   H19       1.0  0.04956483126745331  0.10257021864072872  0.635290394224981  1.0000
  H   H20       1.0  0.950425620010023  0.8974266937399734  0.36470964944800244  1.0000
  H   H21       1.0  0.16573281691257352  0.5570686313898037  0.5809982683783802  1.0000
  H   H22       1.0  0.8342707221259646  0.44292957301419733  0.41900089431061355  1.0000
  H   H23       1.0  0.9883278405990339  0.7420476244812166  0.6548471816249872  1.0000
  H   H24       1.0  0.011672500448433725  0.2579433200839887  0.34515572306222003  1.0000
  H   H25       1.0  0.3442031505662727  0.9748630943899242  0.5939340820762594  1.0000
  H   H26       1.0  0.6557864327403992  0.025139807807804008  0.40606813366035516  1.0000
  H   H27       1.0  0.5089608054641773  0.7815847569856089  0.5170601332264796  1.0000
  H   H28       1.0  0.4910304345557606  0.2184266191032975  0.4829352695590785  1.0000
  C   C1        1.0  0.13770001008533947  0.9233927431651524  0.8367310537871689  1.0000
  C   C2        1.0  0.8622894881851195  0.07661377466299511  0.16326978899220992  1.0000
  C   C3        1.0  0.15275198465067769  0.7492536041089581  0.9342298916089574  1.0000
  C   C4        1.0  0.8472506910666623  0.2507505838574957  0.0657723303707272  1.0000
  C   C5        1.0  0.4692667550470874  0.6225588797821474  0.21488611764793566  1.0000
  C   C6        1.0  0.5307347020971419  0.37744892888274967  0.7851129932059565  1.0000
  C   C7        1.0  0.3970648559376075  0.6724331700486915  0.08922640192940175  1.0000
  C   C8        1.0  0.6029440584799914  0.3275759059430285  0.9107702349141962  1.0000
  C   C9        1.0  0.23395899791515978  0.6959418769885416  0.06893259171807396  1.0000
  C   C10       1.0  0.7660470505152687  0.30406233330129606  0.9310695214049218  1.0000
  C   C11       1.0  0.1512553343036203  0.669648915121286  0.18009962185553963  1.0000
  C   C12       1.0  0.8487558332389826  0.3303601694981141  0.8198978296439919  1.0000
  C   C13       1.0  0.23115899039049748  0.6183363840738849  0.303609072220759  1.0000
  C   C14       1.0  0.7688484910335163  0.38167025906689395  0.6963903027625378  1.0000
  C   C15       1.0  0.05784143910165079  0.9767422515132723  0.6975722634292508  1.0000
  C   C16       1.0  0.9421509472457287  0.0232522565944535  0.3024295222996756  1.0000
  C   C17       1.0  0.2020596363271991  0.652622906753635  0.581665258052098  1.0000
  C   C18       1.0  0.7979442872042314  0.34737411993892664  0.418330801285869  1.0000
  C   C19       1.0  0.1036641119370857  0.7555893616852032  0.6274937748984402  1.0000
  C   C20       1.0  0.8963279563551937  0.2444027335218665  0.3725089382304958  1.0000
  C   C21       1.0  0.1522018460580058  0.8733582705568494  0.6366159397933587  1.0000
  C   C22       1.0  0.8477972192777585  0.12663987280972583  0.3633878041732004  1.0000
  C   C23       1.0  0.2999227458466933  0.8834915753682966  0.5931523999456018  1.0000
  C   C24       1.0  0.7000678044157952  0.116501702618244  0.40685167836579694  1.0000
  C   C25       1.0  0.39216865394569583  0.7778974282937983  0.5475171154499137  1.0000
  C   C26       1.0  0.6078283062477395  0.22211035060659165  0.4524821405462376  1.0000
  N   N1        1.0  0.38854290022293725  0.59279675335155  0.32271384392026903  1.0000
  N   N2        1.0  0.6114668203772667  0.4072099171806515  0.6772836840377752  1.0000
  N   N3        1.0  0.34603250776103783  0.6611559814354281  0.5426513546425298  1.0000
  N   N4        1.0  0.6539650162969152  0.3388433759835295  0.4573493183711862  1.0000
  N   N5        1.0  0.7665987172173487  0.6970286077184653  0.4287995824045651  1.0000
  N   N6        1.0  0.23340265373239788  0.3029659724274437  0.5712001385857236  1.0000
  O   O1        1.0  0.6422366455483798  0.6775028754536407  0.3918480482035633  1.0000
  O   O2        1.0  0.357758356327146  0.32250733899262946  0.6081450296013315  1.0000
  O   O3        1.0  0.7630026659878695  0.73783152357926  0.5204929845707015  1.0000
  O   O4        1.0  0.236997719407654  0.26217270579616786  0.47950132493655667  1.0000
  O   O5        1.0  0.889667571813149  0.6743757811042602  0.371398108924538  1.0000
  O   O6        1.0  0.11034156150596175  0.325592306527426  0.6286149995184616  1.0000
