data_image0
_chemical_formula_structural       Zn2H44C60N6O16
_chemical_formula_sum              "Zn2 H44 C60 N6 O16"
_cell_length_a       7.278260806690388
_cell_length_b       12.164246308039324
_cell_length_c       16.627
_cell_angle_alpha    91.22136188113137
_cell_angle_beta     101.44196568502956
_cell_angle_gamma    101.81102553870672

_space_group_name_H-M_alt    "P 1"
_space_group_IT_number       1

loop_
  _space_group_symop_operation_xyz
  'x, y, z'

loop_
  _atom_site_type_symbol
  _atom_site_label
  _atom_site_symmetry_multiplicity
  _atom_site_fract_x
  _atom_site_fract_y
  _atom_site_fract_z
  _atom_site_occupancy
  Zn  Zn1       1.0  0.0808262108781221  0.636129135416823  0.2278346386114052  1.0000
  Zn  Zn2       1.0  0.9191726913157723  0.3638708714002803  0.7721658675968968  1.0000
  H   H1        1.0  0.6983961825717415  0.2956224119369537  0.1699322265548986  1.0000
  H   H2        1.0  0.3016074091909005  0.7043750700271687  0.8300656403483302  1.0000
  H   H3        1.0  0.80305775940532  0.9655113566377054  0.22168744552065792  1.0000
  H   H4        1.0  0.1969458323573221  0.0344861253264099  0.7783116242453829  1.0000
  H   H5        1.0  0.4841481370438387  0.0305136899608129  0.29436746456593  1.0000
  H   H6        1.0  0.5158496692318266  0.969487158473953  0.7056335610325704  1.0000
  H   H7        1.0  0.05489114182444871  0.6261357672958283  0.0417441313994544  1.0000
  H   H8        1.0  0.9451122717074938  0.3738650811389306  0.9582549753867511  1.0000
  H   H9        1.0  0.7022234744453117  0.1161491287075833  0.0247395625775297  1.0000
  H   H10       1.0  0.29777420416521483  0.8838475116388692  0.9752565748624208  1.0000
  H   H11       1.0  0.1380713343281244  0.054484644215669696  0.2939927865781655  1.0000
  H   H12       1.0  0.8619317733079797  0.9455153626014337  0.7060068819523266  1.0000
  H   H13       1.0  0.7034324434090777  0.1485598248790012  0.355641053199264  1.0000
  H   H14       1.0  0.29656365515667465  0.8514401819381021  0.6443598109837794  1.0000
  H   H15       1.0  0.2520895229497242  0.8712291380294701  0.2128398727520064  1.0000
  H   H16       1.0  0.7479107810582377  0.1287708687876332  0.78716015375322  1.0000
  H   H17       1.0  0.3846000453035785  0.6471964076747909  0.3876341466158451  1.0000
  H   H18       1.0  0.6154030623325255  0.35280359914231246  0.6123661233460496  1.0000
  H   H19       1.0  0.534134410662034  0.17534683183158964  0.8913371105034429  1.0000
  H   H20       1.0  0.46586156023857944  0.8246489668972075  0.1086594669524601  1.0000
  H   H21       1.0  0.47362854618596373  0.5699342230492732  0.2343869572447801  1.0000
  H   H22       1.0  0.5263694383204084  0.43006325891484215  0.7656134299021532  1.0000
  H   H23       1.0  0.7670032343504332  0.9288370253895692  0.5564696956334032  1.0000
  H   H24       1.0  0.2329954896127546  0.0711663478981848  0.4435326518892921  1.0000
  H   H25       1.0  0.6503502525807079  0.4973733146848147  0.14104791599712738  1.0000
  H   H26       1.0  0.3496415634432708  0.5026149094850183  0.8589541968603811  1.0000
  H   H27       1.0  0.21382042970601844  0.5586102574043394  0.9377926176058082  1.0000
  H   H28       1.0  0.7861825502649467  0.4413855413244576  0.06220817708020832  1.0000
  H   H29       1.0  0.2073276908619732  0.12449713429897  0.1282020393568644  1.0000
  H   H30       1.0  0.7926769462533301  0.8755070806064396  0.8717978276092495  1.0000
  H   H31       1.0  0.6295185555382687  0.7953160665164631  0.4767515380502658  1.0000
  H   H32       1.0  0.3704809584473097  0.2046856235359655  0.5232490475322891  1.0000
  H   H33       1.0  0.9813940101339185  0.09404740728048469  0.6411287702755502  1.0000
  H   H34       1.0  0.01861343060952692  0.9059568076249321  0.35887194157864133  1.0000
  H   H35       1.0  0.9142167749552144  0.3031666726609359  0.4498302055644956  1.0000
  H   H36       1.0  0.08578554265849898  0.6968350173914927  0.5501682177491035  1.0000
  H   H37       1.0  0.04431866700434739  0.188754642808135  0.995342476578827  1.0000
  H   H38       1.0  0.9556862760068016  0.8112504137149443  0.004658031505826392  1.0000
  H   H39       1.0  0.5447449755799382  0.35741734716651047  0.303792611167502  1.0000
  H   H40       1.0  0.4552526524650204  0.6425868677389062  0.6962084514511702  1.0000
  H   H41       1.0  0.943254214358646  0.691790361124248  0.3650240802765481  1.0000
  H   H42       1.0  0.0567442037087034  0.3082121705458363  0.6349752204019836  1.0000
  H   H43       1.0  0.8213440838824158  0.7051081190109442  0.2765562827341768  1.0000
  H   H44       1.0  0.1786509187651149  0.2948927294238217  0.7234426951134337  1.0000
  C   C1        1.0  0.579055887727705  0.928985991715777  0.3946705238527883  1.0000
  C   C2        1.0  0.42094112852557697  0.0710165399543143  0.605330459391631  1.0000
  C   C3        1.0  0.036333502129806995  0.4188487035659989  0.24943884283312195  1.0000
  C   C4        1.0  0.9636649159375423  0.5811538281040924  0.7505634650024433  1.0000
  C   C5        1.0  0.4489583611650119  0.5206061702499198  0.0295262244161094  1.0000
  C   C6        1.0  0.5510394956762213  0.4793871036258892  0.9704746874549314  1.0000
  C   C7        1.0  0.18626295458030032  0.2247758787504068  0.856020451500143  1.0000
  C   C8        1.0  0.8137348516953651  0.7752249696843592  0.1439787698041428  1.0000
  C   C9        1.0  0.7949402984026079  0.2425053964223594  0.1968806034114579  1.0000
  C   C10       1.0  0.2050625033376505  0.7574937687770813  0.8031196268633138  1.0000
  C   C11       1.0  0.8544829618914562  0.05673849631504879  0.2264549767822785  1.0000
  C   C12       1.0  0.14551813213889633  0.9432598272667363  0.7735456935084457  1.0000
  C   C13       1.0  0.1054894296630451  0.22422546079932457  0.2738236805746368  1.0000
  C   C14       1.0  0.8945111802407553  0.7757753876354414  0.7261775884805317  1.0000
  C   C15       1.0  0.4705654759406244  0.9474839063133302  0.3183269146034533  1.0000
  C   C16       1.0  0.529431234416812  0.0525177837390984  0.6816734275224333  1.0000
  C   C17       1.0  0.2794846081301827  0.18514578627261358  0.9353083886572975  1.0000
  C   C18       1.0  0.7205142940637117  0.8148542205444899  0.0646891103939709  1.0000
  C   C19       1.0  0.9802444771896504  0.2926321443831483  0.23890948355442282  1.0000
  C   C20       1.0  0.019754119108398496  0.7073670208162923  0.7610921858295683  1.0000
  C   C21       1.0  0.7122667638951513  0.0233708808617052  0.44749922758266086  1.0000
  C   C22       1.0  0.28773244419458877  0.9766299675730606  0.5525025211755832  1.0000
  C   C23       1.0  0.18797508795270093  0.5969122772111746  0.06039831077678309  1.0000
  C   C24       1.0  0.8120288097057866  0.4030860463706034  0.9396020015391926  1.0000
  C   C25       1.0  0.5581307787650545  0.1322122434083823  0.01771544325612951  1.0000
  C   C26       1.0  0.44186860755538504  0.867785238555733  0.9822826598935066  1.0000
  C   C27       1.0  0.040203551064493595  0.10716486016357149  0.2673544836086208  1.0000
  C   C28       1.0  0.9597984606533743  0.8928359882711945  0.7326463057434722  1.0000
  C   C29       1.0  0.3070731831906173  0.2706196344282361  0.318139028299754  1.0000
  C   C30       1.0  0.6929240112933712  0.7293795307712045  0.6818601136302789  1.0000
  C   C31       1.0  0.46248120970457773  0.11717169416716192  0.0830368368282208  1.0000
  C   C32       1.0  0.5375201902216133  0.8828274710322788  0.9169602645611833  1.0000
  C   C33       1.0  0.7588172053731697  0.1312208178023084  0.41866085863262015  1.0000
  C   C34       1.0  0.2411826145082543  0.8687817138677829  0.5813391652056552  1.0000
  C   C35       1.0  0.3391362336292474  0.8588901814839147  0.2720376299824352  1.0000
  C   C36       1.0  0.6608629744604857  0.1411106669508513  0.7279629159129968  1.0000
  C   C37       1.0  0.413795465241492  0.7337820327621856  0.3696978572198192  1.0000
  C   C38       1.0  0.5862051446623154  0.2662188156725804  0.630302810403947  1.0000
  C   C39       1.0  0.4648141319052854  0.1647466573761491  0.943759980825817  1.0000
  C   C40       1.0  0.535184158496925  0.835251666205636  0.05623804028260789  1.0000
  C   C41       1.0  0.4202125298187696  0.5653448819372784  0.16811743028291204  1.0000
  C   C42       1.0  0.5797857605834409  0.4346534416444996  0.8318841994139561  1.0000
  C   C43       1.0  0.7330488384706513  0.1257242128504643  0.1911435530392183  1.0000
  C   C44       1.0  0.26695505918783624  0.8742741107313137  0.808856157845355  1.0000
  C   C45       1.0  0.7954390797918122  0.0099024734134758  0.5294475229008597  1.0000
  C   C46       1.0  0.2045596441713755  0.9901008998742782  0.4705530203276069  1.0000
  C   C47       1.0  0.5186835189865349  0.5243134960519171  0.114764229588296  1.0000
  C   C48       1.0  0.4813123242489397  0.4756780945885595  0.8852370826115674  1.0000
  C   C49       1.0  0.27843630724040486  0.5585580771092822  0.002776115479711899  1.0000
  C   C50       1.0  0.7215655768123241  0.4414385632371776  0.9972264014593151  1.0000
  C   C51       1.0  0.2772784479984338  0.1359178859750614  0.0759008424230174  1.0000
  C   C52       1.0  0.7227269791392601  0.8640846456950299  0.9240996683285873  1.0000
  C   C53       1.0  0.550584339455682  0.8178916186873835  0.41903493881346077  1.0000
  C   C54       1.0  0.4494137727158289  0.1821100713650452  0.5809655250407603  1.0000
  C   C55       1.0  0.9144002027157114  0.1022169899274843  0.5773049154559331  1.0000
  C   C56       1.0  0.08560272668968594  0.8977863833602697  0.4226953915261333  1.0000
  C   C57       1.0  0.8782046050162009  0.2187801945248751  0.471329855381228  1.0000
  C   C58       1.0  0.12179771259751253  0.7812214955275536  0.5286703722265855  1.0000
  C   C59       1.0  0.18729581659783182  0.1711303273439526  0.002003605079430302  1.0000
  C   C60       1.0  0.8127065010158817  0.8288713627084761  0.9979966225283832  1.0000
  N   N1        1.0  0.2567514614607802  0.6008863958120969  0.1420078378367648  1.0000
  N   N2        1.0  0.7432510343836399  0.3991119277696882  0.8579929541822935  1.0000
  N   N3        1.0  0.307662886167833  0.7538226325345505  0.2977467598230916  1.0000
  N   N4        1.0  0.692335710130223  0.2461765326648901  0.7022537066980874  1.0000
  N   N5        1.0  0.954546898265626  0.2057426953196924  0.5500003709480197  1.0000
  N   N6        1.0  0.045456821162154895  0.7942589947327363  0.4499987755253159  1.0000
  O   O1        1.0  0.8873724652379809  0.6505611950882724  0.30997484709889284  1.0000
  O   O2        1.0  0.11262393922361723  0.34943965334649363  0.6900248539084686  1.0000
  O   O3        1.0  0.9347065426361993  0.4721719154078272  0.1982047689948558  1.0000
  O   O4        1.0  0.06528955592955299  0.5278280914092761  0.8017954937567779  1.0000
  O   O5        1.0  0.17406793860339317  0.46619306353553464  0.3056931452265985  1.0000
  O   O6        1.0  0.8259279817316596  0.5338103097522122  0.694307154545207  1.0000
  O   O7        1.0  0.042563486275490406  0.2701761019202564  0.8586519745554142  1.0000
  O   O8        1.0  0.9574351100225655  0.7298230632791842  0.1413472891029528  1.0000
  O   O9        1.0  0.2535528392231612  0.21215245543502448  0.7925719588801101  1.0000
  O   O10       1.0  0.7464435652384438  0.7878483929997344  0.2074265392644321  1.0000
  O   O11       1.0  0.5451038973085787  0.0756058810663021  0.1555361186263227  1.0000
  O   O12       1.0  0.4549007903722995  0.9243907592801506  0.8444618303181173  1.0000
  O   O13       1.0  0.41899322999510963  0.3248677840808298  0.268882325852168  1.0000
  O   O14       1.0  0.5810043980498564  0.6751364308245869  0.7311181353350946  1.0000
  O   O15       1.0  0.3706962877877302  0.2529717536695131  0.3895719362671812  1.0000
  O   O16       1.0  0.6293038885550928  0.7470240450592769  0.6104292163935696  1.0000
