data_image0
_chemical_formula_structural       Cd4H40C44S12N12O20
_chemical_formula_sum              "Cd4 H40 C44 S12 N12 O20"
_cell_length_a       8.392502231
_cell_length_b       12.550544939287628
_cell_length_c       15.7
_cell_angle_alpha    113.35694210084759
_cell_angle_beta     90.0
_cell_angle_gamma    90.0

_space_group_name_H-M_alt    "P 1"
_space_group_IT_number       1

loop_
  _space_group_symop_operation_xyz
  'x, y, z'

loop_
  _atom_site_type_symbol
  _atom_site_label
  _atom_site_symmetry_multiplicity
  _atom_site_fract_x
  _atom_site_fract_y
  _atom_site_fract_z
  _atom_site_occupancy
  Cd  Cd1       1.0  0.46078391087174  0.3305927007990874  0.7966421394835379  1.0000
  Cd  Cd2       1.0  0.9607849694952293  0.16940889509564272  0.7033597994207382  1.0000
  Cd  Cd3       1.0  0.5392146317559892  0.6694087551901475  0.20335927737379927  1.0000
  Cd  Cd4       1.0  0.0392159562119971  0.8305916929934726  0.2966407054323383  1.0000
  H   H1        1.0  0.1944676277798862  0.2472161404275965  0.031172574456988393  1.0000
  H   H2        1.0  0.6944686864033827  0.25278285176679566  0.46882662843448486  1.0000
  H   H3        1.0  0.8055332979273402  0.7527827118612935  0.9688267433302258  1.0000
  H   H4        1.0  0.3055322393038508  0.7472177363223268  0.5311738764185917  1.0000
  H   H5        1.0  0.344248940361112  0.3400128886499871  0.10134039687219598  1.0000
  H   H6        1.0  0.8442499989846013  0.1599852356442852  0.398659804843028  1.0000
  H   H7        1.0  0.6557507938063694  0.6599868315390154  0.8986604698619585  1.0000
  H   H8        1.0  0.1557509267226322  0.8400136166446048  0.601339512944179  1.0000
  H   H9        1.0  0.5018133905813897  0.0744337175839789  0.3889926552085541  1.0000
  H   H10       1.0  0.0018147150373977  0.4255661425105189  0.1110074596871868  1.0000
  H   H11       1.0  0.49818634358609154  0.9255660026050239  0.6110082115256007  1.0000
  H   H12       1.0  0.9981874022095809  0.5744335776784838  0.888992133161615  1.0000
  H   H13       1.0  0.3894726399864794  0.027992382417082205  0.46345627494888925  1.0000
  H   H14       1.0  0.8894725070702236  0.4720083455775352  0.03654411500844648  1.0000
  H   H15       1.0  0.6105270941810017  0.9720090735721527  0.536545141908455  1.0000
  H   H16       1.0  0.1105272270972577  0.52799224251158  0.9634557529019501  1.0000
  H   H17       1.0  0.306039835236831  0.2827852908507893  0.602740965142047  1.0000
  H   H18       1.0  0.8060397023205752  0.21721456924371552  0.8972597866963666  1.0000
  H   H19       1.0  0.6939598989306504  0.7172126935379881  0.3972599884115908  1.0000
  H   H20       1.0  0.193958840307161  0.7827868867455194  0.10273971933295198  1.0000
  H   H21       1.0  0.3062316731363879  0.3516392785938436  0.4760856315320083  1.0000
  H   H22       1.0  0.8062315402201321  0.1483605815006612  0.023914483363732583  1.0000
  H   H23       1.0  0.6937680610310935  0.6483561020945815  0.5239132229515064  1.0000
  H   H24       1.0  0.1937681939473563  0.8516417423886864  0.9760859346698538  1.0000
  H   H25       1.0  0.6906998461779708  0.5855635287564169  0.6209004147555817  1.0000
  H   H26       1.0  0.1907011706339787  0.9144377873273158  0.8790998431121436  1.0000
  H   H27       1.0  0.3092963133702611  0.4144361914325856  0.3790985411505474  1.0000
  H   H28       1.0  0.8092985635335026  0.08556280076179952  0.12090066174092579  1.0000
  H   H29       1.0  0.6739491803895561  0.503813413200902  0.7398666973207353  1.0000
  H   H30       1.0  0.1739505048455641  0.9961879028828378  0.7601335605469969  1.0000
  H   H31       1.0  0.3260481706984279  0.4961871748882203  0.2601325336469883  1.0000
  H   H32       1.0  0.8260492293219173  0.0038126852062845  0.23986630736340686  1.0000
  H   H33       1.0  0.770714123388359  0.4195585379127778  0.8582627190062125  1.0000
  H   H34       1.0  0.2707142563046148  0.0804413221817271  0.6417373958895282  1.0000
  H   H35       1.0  0.2292856107791224  0.5804403143761121  0.14173723572367433  1.0000
  H   H36       1.0  0.7292866694026117  0.9195583980072757  0.3582628339019536  1.0000
  H   H37       1.0  0.6523132016311308  0.5067903105962018  0.9366006044460916  1.0000
  H   H38       1.0  0.15231452608713875  0.9932101375874183  0.5634000153027188  1.0000
  H   H39       1.0  0.3476853409966054  0.4932102774929206  0.06339990040697771  1.0000
  H   H40       1.0  0.8476863996200947  0.006790450501696902  0.4366004895503579  1.0000
  C   C1        1.0  0.3757794651934461  0.2902388170405317  0.9540375890109372  1.0000
  C   C2        1.0  0.8757781407374381  0.2097601751538534  0.5459622508232087  1.0000
  C   C3        1.0  0.6242238435932774  0.7097617710485835  0.04596227889945938  1.0000
  C   C4        1.0  0.12422159343004319  0.7902404129352689  0.4540382540298608  1.0000
  C   C5        1.0  0.3234482309665765  0.2646748191459167  0.036317815381373485  1.0000
  C   C6        1.0  0.8234480980503207  0.23532243724824303  0.4636808373869101  1.0000
  C   C7        1.0  0.6765538862804021  0.7353240331429731  0.9636808654631607  1.0000
  C   C8        1.0  0.17655282765691274  0.7646772829407598  0.5363187554618917  1.0000
  C   C9        1.0  0.3468572208712004  0.14877370195551984  0.1445976419815693  1.0000
  C   C10       1.0  0.846860662574187  0.3512226865385203  0.3554020096104651  1.0000
  C   C11       1.0  0.6531413217565358  0.8512242824332574  0.8554020376867228  1.0000
  C   C12       1.0  0.1531426462125438  0.6487761657503626  0.6445979451194146  1.0000
  C   C13       1.0  0.2690401429575715  0.1284014825503093  0.2835500383962994  1.0000
  C   C14       1.0  0.7690435846605579  0.3716001133444209  0.21645126356529687  1.0000
  C   C15       1.0  0.7309595912099098  0.871602577139271  0.7164515667031424  1.0000
  C   C16       1.0  0.2309609156659178  0.628398738944462  0.783548691164583  1.0000
  C   C17       1.0  0.397371356981175  0.023346513100158  0.3921902396659789  1.0000
  C   C18       1.0  0.8973724156046643  0.47665334699433975  0.10780987522976201  1.0000
  C   C19       1.0  0.6026283771863064  0.9766540749889572  0.6078109021297706  1.0000
  C   C20       1.0  0.1026285101025692  0.5233463731946628  0.8921897176190399  1.0000
  C   C21       1.0  0.4232182372118132  0.8962205639082655  0.32775432574363345  1.0000
  C   C22       1.0  0.9232181042955501  0.6037790163752349  0.17224538200090928  1.0000
  C   C23       1.0  0.5767826884954204  0.10378089208096242  0.6722477280563837  1.0000
  C   C24       1.0  0.0767828214116832  0.3962198359136551  0.8277539357862975  1.0000
  C   C25       1.0  0.39088342304903984  0.34856517638563395  0.6029546754699666  1.0000
  C   C26       1.0  0.8908820985930319  0.1514338158087511  0.8970451643641794  1.0000
  C   C27       1.0  0.6091163111184412  0.6514319401030235  0.3970440921940578  1.0000
  C   C28       1.0  0.1091152524949521  0.8485659043802514  0.10295442848462238  1.0000
  C   C29       1.0  0.3920320673668698  0.3883792262725052  0.5321811312620284  1.0000
  C   C30       1.0  0.892031934450614  0.1116215017221123  0.9678186217526344  1.0000
  C   C31       1.0  0.6079664752608663  0.6116178902161522  0.467817636401996  1.0000
  C   C32       1.0  0.1079666081771222  0.8883808221672355  0.03218179628095189  1.0000
  C   C33       1.0  0.4991634061800951  0.4762827536451298  0.5361624876236348  1.0000
  C   C34       1.0  0.9991632732638323  0.0237162385492553  0.963837352210511  1.0000
  C   C35       1.0  0.5008363279873862  0.523713494943415  0.4638372788641475  1.0000
  C   C36       1.0  0.0008376524433942  0.9762852174399796  0.03616215381880734  1.0000
  C   C37       1.0  0.6037865538221254  0.517640797837025  0.6120878321305412  1.0000
  C   C38       1.0  0.10378668673838827  0.982359650346595  0.8879127876182693  1.0000
  C   C39       1.0  0.3962131803453559  0.4823571865517451  0.3879124844804237  1.0000
  C   C40       1.0  0.896213047429093  0.0176409377425202  0.11208708029212737  1.0000
  C   C41       1.0  0.595792513647531  0.47265493116339746  0.6796382078700773  1.0000
  C   C42       1.0  0.0957926465637868  0.027346664731339804  0.820362457148846  1.0000
  C   C43       1.0  0.4042048374404529  0.5273447890256052  0.32036202192140445  1.0000
  C   C44       1.0  0.9042058960639423  0.9726547912578952  0.17963768582314527  1.0000
  S   S1        1.0  0.4269465650857569  0.1399245923804529  0.040033878306111596  1.0000
  S   S2        1.0  0.9269464321695011  0.3600735319138196  0.45996759729447223  1.0000
  S   S3        1.0  0.5730531690817244  0.8600751278085499  0.9599663514853701  1.0000
  S   S4        1.0  0.0730533019979873  0.6399253203750704  0.5400336313207674  1.0000
  S   S5        1.0  0.408819670887496  0.057162505290556  0.19716542631446285  1.0000
  S   S6        1.0  0.9088266872097319  0.4428356190037164  0.3028366862287938  1.0000
  S   S7        1.0  0.591177680200488  0.9428372148984466  0.8028360773623645  1.0000
  S   S8        1.0  0.0911766215769987  0.5571632332851735  0.6971632685010931  1.0000
  S   S9        1.0  0.2181518633664794  0.092457399277329  0.3764564516761268  1.0000
  S   S10       1.0  0.7181517304502236  0.40754072501694344  0.12354502392445704  1.0000
  S   S11       1.0  0.7818478708010019  0.9075431888117864  0.6235459640049754  1.0000
  S   S12       1.0  0.2818480037172577  0.592456391471714  0.8764543806822473  1.0000
  N   N1        1.0  0.2336490293391762  0.22248706244384664  0.19045435275547357  1.0000
  N   N2        1.0  0.7336465133434158  0.2775145334508906  0.3095469492061298  1.0000
  N   N3        1.0  0.7663530879078024  0.7775135256452756  0.8095467890402759  1.0000
  N   N4        1.0  0.26635322082406526  0.7224869225383443  0.6904538307085345  1.0000
  N   N5        1.0  0.1909799909351975  0.2113796767689067  0.27022328645720245  1.0000
  N   N6        1.0  0.6909810495586866  0.2886227870259432  0.22977829056599566  1.0000
  N   N7        1.0  0.8090197432322838  0.7886235150205607  0.7297786805233314  1.0000
  N   N8        1.0  0.309022259228044  0.7113769331630594  0.7702219392254859  1.0000
  N   N9        1.0  0.4907261132189475  0.3899917846866359  0.6757883740465758  1.0000
  N   N10       1.0  0.9907259803026918  0.1100080754078689  0.824211740849158  1.0000
  N   N11       1.0  0.5092724294087816  0.6100061997021342  0.32421130562171635  1.0000
  N   N12       1.0  0.0092725623250445  0.8899925126812536  0.17578812706123867  1.0000
  O   O1        1.0  0.3516889145525184  0.3936447762717137  0.9596142611595935  1.0000
  O   O2        1.0  0.8516887816362626  0.1063542159226714  0.5403855786745523  1.0000
  O   O3        1.0  0.648310819614963  0.6063558118174086  0.04038433286545737  1.0000
  O   O4        1.0  0.1483121440709709  0.893646372166444  0.4596155631211971  1.0000
  O   O5        1.0  0.4360773341806947  0.21130330155876462  0.8834309281707318  1.0000
  O   O6        1.0  0.9360748181849345  0.2886965585357403  0.6165691867250017  1.0000
  O   O7        1.0  0.5639283576855334  0.7886946828300125  0.11657129926825853  1.0000
  O   O8        1.0  0.06392729906204409  0.7113066332537274  0.3834295955421466  1.0000
  O   O9        1.0  0.5613022040792117  0.8564585880283104  0.33230424625864424  1.0000
  O   O10       1.0  0.0613023369954675  0.6435418601553026  0.16769764737551895  1.0000
  O   O11       1.0  0.4386975300882696  0.1435420000608048  0.6676981694224579  1.0000
  O   O12       1.0  0.9386985887117589  0.3564578600337001  0.8323032193586356  1.0000
  O   O13       1.0  0.3168125461055951  0.8343505683926083  0.27389632840370126  1.0000
  O   O14       1.0  0.8168088385700898  0.6656490118908921  0.22610210545549583  1.0000
  O   O15       1.0  0.6831883796016383  0.1656508875966196  0.7261044515109703  1.0000
  O   O16       1.0  0.1831873209781492  0.3343498403979908  0.7738959384463653  1.0000
  O   O17       1.0  0.6609447155713255  0.4536105989345174  0.8691936141278587  1.0000
  O   O18       1.0  0.1609448484875813  0.0463901290601001  0.6308061388867967  1.0000
  O   O19       1.0  0.33905501859615567  0.5463899891546049  0.13080625378253788  1.0000
  O   O20       1.0  0.8390548856799  0.9536104590290153  0.36919436596627253  1.0000
