data_image0
_chemical_formula_structural       Cd4H56C48N4O24
_chemical_formula_sum              "Cd4 H56 C48 N4 O24"
_cell_length_a       10.921006292494893
_cell_length_b       11.222078312055922
_cell_length_c       11.222014792446453
_cell_angle_alpha    82.98617294140239
_cell_angle_beta     86.48293737623935
_cell_angle_gamma    86.48381189922227

_space_group_name_H-M_alt    "P 1"
_space_group_IT_number       1

loop_
  _space_group_symop_operation_xyz
  'x, y, z'

loop_
  _atom_site_type_symbol
  _atom_site_label
  _atom_site_symmetry_multiplicity
  _atom_site_fract_x
  _atom_site_fract_y
  _atom_site_fract_z
  _atom_site_occupancy
  Cd  Cd1       1.0  0.005307298457928796  0.3723661011933857  0.23571008020673637  1.0000
  Cd  Cd2       1.0  0.5053080622332473  0.23570829972688756  0.37237207926214216  1.0000
  Cd  Cd3       1.0  0.4026818740389402  0.7642313900376152  0.5383270164279708  1.0000
  Cd  Cd4       1.0  0.9026780277410466  0.5383299279469042  0.7642322447225639  1.0000
  H   H1        1.0  0.3014106018151494  0.54121748472528  0.48019395722624836  1.0000
  H   H2        1.0  0.8014130372790118  0.48019509470375965  0.5412155940988869  1.0000
  H   H3        1.0  0.1920546162754135  0.6372305822035146  0.49324422757197084  1.0000
  H   H4        1.0  0.6920552244522469  0.49324476640173026  0.6372287610444688  1.0000
  H   H5        1.0  0.5751770117872398  0.9488704275765513  0.5478795201789168  1.0000
  H   H6        1.0  0.07517854762239298  0.5478810160619075  0.9488704440658396  1.0000
  H   H7        1.0  0.598194706724037  0.849018008584963  0.6588578583228539  1.0000
  H   H8        1.0  0.09819553590196511  0.6588594368207052  0.8490176068358083  1.0000
  H   H9        1.0  0.17646727119969796  0.43486551134721907  0.3987355112708002  1.0000
  H   H10       1.0  0.6764780798009511  0.3987374668483381  0.4348540408882259  1.0000
  H   H11       1.0  0.06487137520667119  0.5305302815702077  0.4096610085118114  1.0000
  H   H12       1.0  0.5648813175872149  0.40965900339279654  0.5305233143834158  1.0000
  H   H13       1.0  0.8461166151991933  0.3159460544125068  0.06843189951946729  1.0000
  H   H14       1.0  0.3461215460079429  0.06843181901813722  0.31594579838759534  1.0000
  H   H15       1.0  0.8261753220954303  0.21953452730342346  0.1861350541496378  1.0000
  H   H16       1.0  0.3261782360676122  0.186137067708529  0.2195363945530104  1.0000
  H   H17       1.0  0.8520344592008725  0.2862847783877028  0.4875589744413489  1.0000
  H   H18       1.0  0.352030780401094  0.4875585227213081  0.2862906808913266  1.0000
  H   H19       1.0  0.028652115994482596  0.9624584683597489  0.6629902317120653  1.0000
  H   H20       1.0  0.5286466901454504  0.6629901964938583  0.9624537392458308  1.0000
  H   H21       1.0  0.629340466206898  0.6056809178474081  0.456639931512882  1.0000
  H   H22       1.0  0.12933797612073764  0.4566411794027657  0.6056882740709426  1.0000
  H   H23       1.0  0.6032492112351447  0.8950286238979288  0.09425284385677912  1.0000
  H   H24       1.0  0.10324859975807499  0.09425983378478967  0.8950342432050391  1.0000
  H   H25       1.0  0.8586992958892805  0.12636134104457136  0.6618162604587354  1.0000
  H   H26       1.0  0.35869711702785884  0.66181697444253  0.12636911460766953  1.0000
  H   H27       1.0  0.7674698093912794  0.725417183912718  0.0973864690244923  1.0000
  H   H28       1.0  0.26746808624335466  0.09738856763800639  0.7254193436631837  1.0000
  H   H29       1.0  0.573321466242426  0.3288797411936599  0.7232024790538105  1.0000
  H   H30       1.0  0.07331884320714717  0.7232057055893434  0.3288821284604779  1.0000
  H   H31       1.0  0.3711379858291651  0.16764992636754528  0.03678627871460801  1.0000
  H   H32       1.0  0.8711446634668717  0.0367891032735983  0.16765324473323778  1.0000
  H   H33       1.0  0.156496550520167  0.1308616859495402  0.3167595095298168  1.0000
  H   H34       1.0  0.6564890396337262  0.3167624343038611  0.13086499295565804  1.0000
  H   H35       1.0  0.7160373154877959  0.0338181202165018  0.9835084613584258  1.0000
  H   H36       1.0  0.21604129923912302  0.9835084613983228  0.033816963596301305  1.0000
  H   H37       1.0  0.6032240379828268  0.11282100592509887  0.07032541712958819  1.0000
  H   H38       1.0  0.103226397324768  0.07032193982931999  0.11282231015844961  1.0000
  H   H39       1.0  0.7087851566646178  0.1934005795256297  0.9688584159550898  1.0000
  H   H40       1.0  0.2087878248466879  0.9688579492665141  0.1934001081616401  1.0000
  H   H41       1.0  0.6982993437082213  0.030703287244342892  0.7634171935713283  1.0000
  H   H42       1.0  0.19829853441929401  0.7634144755157736  0.030702283913804296  1.0000
  H   H43       1.0  0.7044021058240162  0.1899312782807812  0.7471264514389021  1.0000
  H   H44       1.0  0.20440161599479725  0.7471245901442386  0.18993138606283821  1.0000
  H   H45       1.0  0.5851327118764829  0.12239453794029488  0.6825536827118484  1.0000
  H   H46       1.0  0.08513099462047082  0.6825536438062015  0.12239498857655923  1.0000
  H   H47       1.0  0.45805087232816527  0.9053840504334544  0.2736634855414906  1.0000
  H   H48       1.0  0.9580475296008045  0.27366188385177986  0.9053900805076581  1.0000
  H   H49       1.0  0.5486909465265698  0.9239554702031042  0.8985807933567287  1.0000
  H   H50       1.0  0.048692676271947684  0.8985814329825955  0.9239535973605798  1.0000
  H   H51       1.0  0.425984336935862  0.0052333539005716  0.8247697152932858  1.0000
  H   H52       1.0  0.9259874410853258  0.824769832216148  0.005234909014397694  1.0000
  H   H53       1.0  0.4330273614767107  0.9999686863835604  0.9838281749124178  1.0000
  H   H54       1.0  0.9330325041672296  0.9838280770891074  0.9999700679367721  1.0000
  H   H55       1.0  0.2773921904216792  0.5303220200037445  0.8867932757816704  1.0000
  H   H56       1.0  0.7773866533509234  0.8867944179660296  0.5303246493581781  1.0000
  C   C1        1.0  0.9227401058211271  0.21363203078104925  0.49065715843913443  1.0000
  C   C2        1.0  0.4227318327066171  0.49065889020227615  0.21363530834477026  1.0000
  C   C3        1.0  0.48215737263070213  0.23270320089593352  0.8789768609896527  1.0000
  C   C4        1.0  0.9821554379665612  0.8789768531124266  0.23270577717819663  1.0000
  C   C5        1.0  0.020910655583328698  0.0343384715631601  0.5888325157218404  1.0000
  C   C6        1.0  0.5209040300863916  0.5888333613457419  0.03433884258483741  1.0000
  C   C7        1.0  0.627102300588426  0.6668947942434967  0.3738831844757726  1.0000
  C   C8        1.0  0.12709823885638372  0.3738871357544013  0.666899171953368  1.0000
  C   C9        1.0  0.612538776725664  0.8283736224007258  0.17232511414127316  1.0000
  C   C10       1.0  0.11253421607329271  0.17232975726069807  0.8283813230545648  1.0000
  C   C11       1.0  0.9274671573339007  0.12422054331226919  0.5879289979612992  1.0000
  C   C12       1.0  0.42746094605686114  0.5879239309390981  0.12422355858335271  1.0000
  C   C13       1.0  0.10758112504353079  0.03645108763431179  0.4917295017310153  1.0000
  C   C14       1.0  0.6075782022350537  0.49172966072404717  0.03645308159508432  1.0000
  C   C15       1.0  0.804834418299933  0.549104920826977  0.28309816754093486  1.0000
  C   C16       1.0  0.3048311229962621  0.2831076332598527  0.5491035946736602  1.0000
  C   C17       1.0  0.7034607180736288  0.7358518242573664  0.17417704377007942  1.0000
  C   C18       1.0  0.20345659188819099  0.1741841757134921  0.7358557686676762  1.0000
  C   C19       1.0  0.21424323521550553  0.9459101143770918  0.49292028154886947  1.0000
  C   C20       1.0  0.7142341785510739  0.49291670649855485  0.9459084386049527  1.0000
  C   C21       1.0  0.42818381835586183  0.43953647762894105  0.7967717472775534  1.0000
  C   C22       1.0  0.9281876009015022  0.7967776443195331  0.4395403522798845  1.0000
  C   C23       1.0  0.45141019700453455  0.545284939011175  0.7049415300625697  1.0000
  C   C24       1.0  0.9514015387692963  0.7049520806315569  0.5452908303836281  1.0000
  C   C25       1.0  0.5008296888255046  0.3326215015474645  0.7937348870334945  1.0000
  C   C26       1.0  0.0008261117763269222  0.7937381730883855  0.3326237518270432  1.0000
  C   C27       1.0  0.7111320466233266  0.6527246993142838  0.2771769021415267  1.0000
  C   C28       1.0  0.2111270328823949  0.2771789427686997  0.6527286855509828  1.0000
  C   C29       1.0  0.3878272481174391  0.24302938561887538  0.968160464063672  1.0000
  C   C30       1.0  0.887827242303743  0.9681619879335203  0.24303104447063364  1.0000
  C   C31       1.0  0.31242858078510233  0.34845622289542877  0.9714580555856075  1.0000
  C   C32       1.0  0.8124262737648208  0.9714583973386651  0.3484594907474018  1.0000
  C   C33       1.0  0.0938438371810761  0.1272216472544585  0.395952977155794  1.0000
  C   C34       1.0  0.5938376327083005  0.3959610203968467  0.1272244104881963  1.0000
  C   C35       1.0  0.6529220896504455  0.114219690683349  0.9820593326158616  1.0000
  C   C36       1.0  0.1529255161747471  0.9820567653439555  0.11421941019627722  1.0000
  C   C37       1.0  0.6421136100309894  0.11565627072301507  0.7605858896494624  1.0000
  C   C38       1.0  0.1421127458578226  0.7605853614508576  0.11565670773324402  1.0000
  C   C39       1.0  0.5311461329406484  0.8351296247067738  0.2719720060837361  1.0000
  C   C40       1.0  0.031140090932950705  0.2719754602269759  0.8351327480090376  1.0000
  C   C41       1.0  0.48783477761033106  0.005824014482421103  0.8981472295186635  1.0000
  C   C42       1.0  0.987837396969951  0.8981460607605951  0.005825208439738089  1.0000
  C   C43       1.0  0.33311191537598017  0.4468408881379629  0.8850468701369394  1.0000
  C   C44       1.0  0.8331077868552725  0.8850479585478154  0.4468447984376454  1.0000
  C   C45       1.0  0.5649730544164626  0.11757511677377859  0.8791575002136653  1.0000
  C   C46       1.0  0.0649748058533106  0.8791568183640591  0.11757705666255452  1.0000
  C   C47       1.0  0.21078665921106676  0.3550987367624785  0.06647076092711758  1.0000
  C   C48       1.0  0.7107846020835565  0.0664709224717583  0.3551022182100496  1.0000
  N   N1        1.0  0.5383896131030852  0.7553455122736422  0.37158399817882787  1.0000
  N   N2        1.0  0.038384291071125204  0.3715845226972263  0.7553475514562322  1.0000
  N   N3        1.0  0.004167525813279805  0.21469210666405297  0.39539239543677246  1.0000
  N   N4        1.0  0.5041669556722397  0.3953934122737976  0.21469605746221282  1.0000
  O   O1        1.0  0.22025918583297244  0.8668137963430808  0.584329807961062  1.0000
  O   O2        1.0  0.7202450616863062  0.5843196095953687  0.8668011476554582  1.0000
  O   O3        1.0  0.12430488568860909  0.4370521522167082  0.052327838184488905  1.0000
  O   O4        1.0  0.6243027921531236  0.052328882794739684  0.4370508598480427  1.0000
  O   O5        1.0  0.27962799264610544  0.6282767960592038  0.4657173132549773  1.0000
  O   O6        1.0  0.7796292413082  0.46571875600103135  0.628275882694041  1.0000
  O   O7        1.0  0.2946360548159248  0.950937358004985  0.40539635973676985  1.0000
  O   O8        1.0  0.7946367490482869  0.40539939887421633  0.9509351896239197  1.0000
  O   O9        1.0  0.533845360010929  0.8933380966538773  0.6129374996856854  1.0000
  O   O10       1.0  0.033846413478407604  0.6129362944819192  0.8933387193617506  1.0000
  O   O11       1.0  0.39097692529261246  0.6439730016709859  0.7181210499129734  1.0000
  O   O12       1.0  0.890967588293094  0.718122806768754  0.6439769658093654  1.0000
  O   O13       1.0  0.5286266839166772  0.5323522445979448  0.6160269640702865  1.0000
  O   O14       1.0  0.028625603023776598  0.616036379330481  0.5323606526171929  1.0000
  O   O15       1.0  0.8052271963922165  0.47189488058321416  0.3772627902418648  1.0000
  O   O16       1.0  0.30522386512162564  0.3772681607416358  0.47189245749021314  1.0000
  O   O17       1.0  0.11020551431749234  0.4804466110987917  0.3526842365831158  1.0000
  O   O18       1.0  0.6102173864291274  0.3526825393228633  0.4804396943015591  1.0000
  O   O19       1.0  0.8901731645152183  0.2597584173599827  0.13023142375629249  1.0000
  O   O20       1.0  0.39017724059622333  0.1302352239904678  0.2597576660883618  1.0000
  O   O21       1.0  0.8790006335623846  0.5423938876990277  0.1924417538168939  1.0000
  O   O22       1.0  0.3789947555367519  0.19244780710854306  0.5423916627324132  1.0000
  O   O23       1.0  0.21067451598297987  0.2784807112258534  0.16058094863041822  1.0000
  O   O24       1.0  0.7106718461773198  0.1605814661257057  0.2784813430394877  1.0000
