data_image0
_chemical_formula_structural       Cu2H28C22I4Br2N8
_chemical_formula_sum              "Cu2 H28 C22 I4 Br2 N8"
_cell_length_a       4.167920629015921
_cell_length_b       13.983437401020907
_cell_length_c       15.437637962028962
_cell_angle_alpha    89.99997979302826
_cell_angle_beta     90.00022929973193
_cell_angle_gamma    90.00020330003458

_space_group_name_H-M_alt    "P 1"
_space_group_IT_number       1

loop_
  _space_group_symop_operation_xyz
  'x, y, z'

loop_
  _atom_site_type_symbol
  _atom_site_label
  _atom_site_symmetry_multiplicity
  _atom_site_fract_x
  _atom_site_fract_y
  _atom_site_fract_z
  _atom_site_occupancy
  Cu  Cu1       1.0  0.421613406481292  0.8911442891803818  0.9999982879500492  1.0000
  Cu  Cu2       1.0  0.5783949628395105  0.3911422373633117  0.4999996820148595  1.0000
  H   H1        1.0  0.18269253564110952  0.9253197534283335  0.19215435634036734  1.0000
  H   H2        1.0  0.8173186830213126  0.42531640708688917  0.3078434711180265  1.0000
  H   H3        1.0  0.18268493672209735  0.9253167683811655  0.8078411617530533  1.0000
  H   H4        1.0  0.8173262265316552  0.4253177596305947  0.6921600365580287  1.0000
  H   H5        1.0  0.15780510135869008  0.8535605404397871  0.28876952238057635  1.0000
  H   H6        1.0  0.8422004901005237  0.3535594056790004  0.21122767933991324  1.0000
  H   H7        1.0  0.15779852159207045  0.8535575944718018  0.7112266376467532  1.0000
  H   H8        1.0  0.8422022158865871  0.3535571434820426  0.7887745826917794  1.0000
  H   H9        1.0  0.8549986712025159  0.8472684921440177  0.20860480014197685  1.0000
  H   H10       1.0  0.14500684758090898  0.34726442011798764  0.2913924035108479  1.0000
  H   H11       1.0  0.8549908372881917  0.8472655137506777  0.7913901991832829  1.0000
  H   H12       1.0  0.14501462607467627  0.34726290548074706  0.7086110230901639  1.0000
  H   H13       1.0  0.5797945388306828  0.49908214144921464  0.18840277479617376  1.0000
  H   H14       1.0  0.4202103338242368  0.999080692285368  0.31159891661518907  1.0000
  H   H15       1.0  0.579789392829646  0.4990805851482848  0.8115985009584674  1.0000
  H   H16       1.0  0.4201962301741204  0.9990813312047852  0.688403322457269  1.0000
  H   H17       1.0  0.9144839829521486  0.5360825377101436  0.1261920144885309  1.0000
  H   H18       1.0  0.0855227409206663  0.03607836755321609  0.3738085235495276  1.0000
  H   H19       1.0  0.9144773263483329  0.536083101640891  0.8738083291313927  1.0000
  H   H20       1.0  0.0855101479284954  0.036084037558019616  0.6261942842124169  1.0000
  H   H21       1.0  0.5515014497221671  0.5019405308515277  0.0735671855904059  1.0000
  H   H22       1.0  0.4485072791843407  0.0019403104617055  0.42643271516369907  1.0000
  H   H23       1.0  0.5515003434039016  0.5019396432361489  0.9264334098406122  1.0000
  H   H24       1.0  0.4484843373264766  0.0019424260876661002  0.5735692139848183  1.0000
  H   H25       1.0  0.9387002713689229  0.7669440648675163  0.999999244283934  1.0000
  H   H26       1.0  0.0613042644492268  0.2669428800553604  0.4999987638133589  1.0000
  H   H27       1.0  0.9206161728342721  0.638651565227761  0.9999999016223455  1.0000
  H   H28       1.0  0.0793916800592953  0.13864896985258926  0.5000000891706549  1.0000
  C   C1        1.0  0.11424572114749759  0.8555271431924042  0.2186732820225501  1.0000
  C   C2        1.0  0.8857598930087249  0.3555245972645907  0.2813232713268548  1.0000
  C   C3        1.0  0.11424014268797579  0.8555241688726911  0.7813221808592417  1.0000
  C   C4        1.0  0.8857630167743764  0.3555230785522952  0.7186790388769211  1.0000
  C   C5        1.0  0.2954672229059057  0.778017696457667  0.1750326517873049  1.0000
  C   C6        1.0  0.704535096935693  0.2780163657369243  0.32496586866117383  1.0000
  C   C7        1.0  0.29545986858607165  0.7780161347484694  0.8249643333462087  1.0000
  C   C8        1.0  0.7045327987207415  0.2780170100697036  0.6750349668795153  1.0000
  C   C9        1.0  0.34755279202186534  0.6824139015713444  0.20253431219686036  1.0000
  C   C10       1.0  0.6524388266923822  0.1824125252326354  0.29746294206501744  1.0000
  C   C11       1.0  0.347545044860304  0.6824123509853522  0.7974647039150823  1.0000
  C   C12       1.0  0.6524369213432877  0.1824117281778044  0.7025378644966905  1.0000
  C   C13       1.0  0.5312312013363112  0.6385135069944852  0.138297910820917  1.0000
  C   C14       1.0  0.46876950754342783  0.13851190459953952  0.3617000046928354  1.0000
  C   C15       1.0  0.5312243717862798  0.6385119304265745  0.8617019722086781  1.0000
  C   C16       1.0  0.46875948676699863  0.1385118486540549  0.6383032007532918  1.0000
  C   C17       1.0  0.651256848699596  0.5389529323030544  0.1304904517422401  1.0000
  C   C18       1.0  0.3487475090300833  0.038948335482317  0.3695087898782532  1.0000
  C   C19       1.0  0.6512525299619439  0.5389506374465185  0.8695108917895382  1.0000
  C   C20       1.0  0.3487301788659067  0.03895042808712651  0.6304917206713297  1.0000
  C   C21       1.0  0.778296183506484  0.7043313326379773  0.9999991640915907  1.0000
  C   C22       1.0  0.2217100285731703  0.20433246794816287  0.4999995109984994  1.0000
  I   I1        1.0  0.2084047395193878  0.6192640933278355  0.3194744134903473  1.0000
  I   I2        1.0  0.7915885492328557  0.1192629158623291  0.18052221239457816  1.0000
  I   I3        1.0  0.20840251969261914  0.6192590143861735  0.6805231706715134  1.0000
  I   I4        1.0  0.7915787172683935  0.11926278663447933  0.8194807126648698  1.0000
  Br  Br1       1.0  0.934781123290925  0.9872589904330699  0.999999208266793  1.0000
  Br  Br2       1.0  0.06523075521874229  0.4872578098939969  0.4999987321887147  1.0000
  N   N1        1.0  0.44401325705882033  0.7927373495345054  0.0986402170181364  1.0000
  N   N2        1.0  0.5559964305851892  0.29273511097755295  0.40135765114757044  1.0000
  N   N3        1.0  0.4440117925475917  0.7927364720612645  0.901356282163114  1.0000
  N   N4        1.0  0.5559954404036915  0.2927365013417927  0.5986423657836468  1.0000
  N   N5        1.0  0.5860378738066955  0.7077583257874026  0.0776448696807535  1.0000
  N   N6        1.0  0.4139732318088747  0.207756639164856  0.4223536723452668  1.0000
  N   N7        1.0  0.5860367092253965  0.7077574398217269  0.9223537579245968  1.0000
  N   N8        1.0  0.4139671431554604  0.20775803801852535  0.577647507182256  1.0000
