data_image0
_chemical_formula_structural       U2H12C12N4O16
_chemical_formula_sum              "U2 H12 C12 N4 O16"
_cell_length_a       5.402847089112692
_cell_length_b       6.225608213021709
_cell_length_c       14.653032114063535
_cell_angle_alpha    89.99971242168229
_cell_angle_beta     97.21267032634381
_cell_angle_gamma    89.99994087344531

_space_group_name_H-M_alt    "P 1"
_space_group_IT_number       1

loop_
  _space_group_symop_operation_xyz
  'x, y, z'

loop_
  _atom_site_type_symbol
  _atom_site_label
  _atom_site_symmetry_multiplicity
  _atom_site_fract_x
  _atom_site_fract_y
  _atom_site_fract_z
  _atom_site_occupancy
  U   U1        1.0  0.5549226298556676  0.6996334550240989  0.9379154308930922  1.0000
  U   U2        1.0  0.554930414035681  0.30036460876264204  0.43791439716561353  1.0000
  H   H1        1.0  0.5184443219743075  0.16655123092412077  0.9691330758883584  1.0000
  H   H2        1.0  0.5184378188297032  0.8334464882944986  0.46913361211083787  1.0000
  H   H3        1.0  0.24929495762604154  0.10275183336447921  0.9880727780148038  1.0000
  H   H4        1.0  0.24928843103047876  0.8972490812477076  0.4880697665886872  1.0000
  H   H5        1.0  0.2954987826824933  0.6937707797184696  0.11352847317801462  1.0000
  H   H6        1.0  0.2954975749195228  0.3062313604593285  0.6135258883303223  1.0000
  H   H7        1.0  0.5239955495307244  0.8698964043987588  0.12191847558072774  1.0000
  H   H8        1.0  0.5239927795211444  0.13010385178247932  0.6219182289515504  1.0000
  H   H9        1.0  0.1712070426747161  0.09980250622267307  0.7606595358439847  1.0000
  H   H10       1.0  0.1712059297783952  0.9001979729654295  0.26066225228757395  1.0000
  H   H11       1.0  0.8889194453187131  0.2067999064862889  0.878205741665042  1.0000
  H   H12       1.0  0.8889056308169926  0.7932002173791306  0.3782039447677193  1.0000
  C   C1        1.0  0.767772934527791  0.5951115032923937  0.7283160896043344  1.0000
  C   C2        1.0  0.767769240137099  0.40488889885254054  0.22831630283527465  1.0000
  C   C3        1.0  0.9156032404043161  0.5315164546642066  0.6610700927518709  1.0000
  C   C4        1.0  0.9156087401377492  0.46848302963849153  0.16107063789234397  1.0000
  C   C5        1.0  0.0494831425067517  0.24007485440138507  0.7502098734370293  1.0000
  C   C6        1.0  0.049480502544661  0.7599242379025808  0.2502114420984114  1.0000
  C   C7        1.0  0.8952319420162027  0.29983054504606327  0.8157378948802858  1.0000
  C   C8        1.0  0.8952219653842731  0.7001687138165524  0.3157392176018305  1.0000
  C   C9        1.0  0.6234003443336177  0.8005373166464124  0.7207404206134598  1.0000
  C   C10       1.0  0.6233989685011211  0.1994616818697779  0.22074050003931941  1.0000
  C   C11       1.0  0.9261183306667318  0.6539050245732909  0.5720124901301773  1.0000
  C   C12       1.0  0.926120267825958  0.34609551535493216  0.07201584189489552  1.0000
  N   N1        1.0  0.7599949162485304  0.48042666749479673  0.8056217212301039  1.0000
  N   N2        1.0  0.7599890715870146  0.5195760297947771  0.30562294980860844  1.0000
  N   N3        1.0  0.061918510540756706  0.3572397589114545  0.6743186871410743  1.0000
  N   N4        1.0  0.0619216687463862  0.6427602302529464  0.1743221603284795  1.0000
  O   O1        1.0  0.8467870539773088  0.8420690825912941  0.9616215790024899  1.0000
  O   O2        1.0  0.8467820342572167  0.157931683839891  0.4616215611633479  1.0000
  O   O3        1.0  0.26758184372374677  0.5527388335714889  0.9125423021457877  1.0000
  O   O4        1.0  0.26758003634392946  0.4472629690598496  0.41253910943212463  1.0000
  O   O5        1.0  0.4955970521512114  0.8413458353149535  0.7869009007015892  1.0000
  O   O6        1.0  0.49560322397238116  0.15864604709825167  0.2869014479043202  1.0000
  O   O7        1.0  0.6444381907474722  0.9178274584866415  0.6529348658437613  1.0000
  O   O8        1.0  0.6444390148045259  0.08217554618781259  0.1529325728967024  1.0000
  O   O9        1.0  0.7474392902849233  0.6126259861749476  0.5061900281273567  1.0000
  O   O10       1.0  0.7474486470401801  0.38737066000795295  0.006192303827390307  1.0000
  O   O11       1.0  0.10724183271487679  0.7734647697702214  0.5679353895491916  1.0000
  O   O12       1.0  0.10724766340180739  0.22653324239804107  0.06794191945378002  1.0000
  O   O13       1.0  0.38507053433875177  0.061006685921334715  0.9505413679907235  1.0000
  O   O14       1.0  0.3850694062918194  0.938992965248559  0.4505419547095714  1.0000
  O   O15       1.0  0.4591398529419024  0.7318265798696189  0.08938686568465931  1.0000
  O   O16       1.0  0.4591405242842583  0.2681773278237358  0.5893865033662138  1.0000
