data_image0
_chemical_formula_structural       Al4H35C60O20F
_chemical_formula_sum              "Al4 H35 C60 O20 F1"
_cell_length_a       6.683200747567555
_cell_length_b       22.798359612713718
_cell_length_c       24.88119765110306
_cell_angle_alpha    107.68286210775288
_cell_angle_beta     89.83198657523256
_cell_angle_gamma    89.85097970283816

_space_group_name_H-M_alt    "P 1"
_space_group_IT_number       1

loop_
  _space_group_symop_operation_xyz
  'x, y, z'

loop_
  _atom_site_type_symbol
  _atom_site_label
  _atom_site_symmetry_multiplicity
  _atom_site_fract_x
  _atom_site_fract_y
  _atom_site_fract_z
  _atom_site_occupancy
  Al  Al1       1.0  0.13521829875561048  0.5004043101931333  0.4999154087160562  1.0000
  Al  Al2       1.0  0.6355906547746883  0.4992495122306483  0.4998734033191922  1.0000
  Al  Al3       1.0  0.6747507645340748  1.4480699654500035e-05  0.00013698095386869988  1.0000
  Al  Al4       1.0  0.17489702877072227  1.8212085329599087e-05  0.9992915576936524  1.0000
  H   H1        1.0  0.6046581687959574  0.11899606123373023  0.9083973920722953  1.0000
  H   H2        1.0  0.595910020804368  0.1842900553593694  0.8442135283253052  1.0000
  H   H3        1.0  0.22750806993807518  0.15430766436141144  0.8132271633817536  1.0000
  H   H4        1.0  0.23694244220740754  0.09180348627085523  0.8801901564991751  1.0000
  H   H5        1.0  0.13432337635593677  0.2708752466256287  0.8294326296557557  1.0000
  H   H6        1.0  0.1339977967161232  0.3373809367856495  0.7674184167725713  1.0000
  H   H7        1.0  0.6803043304496085  0.2226099207949873  0.6652449416893234  1.0000
  H   H8        1.0  0.5807579755638982  0.31455779217859003  0.6588947159723588  1.0000
  H   H9        1.0  0.5739577976703244  0.37984598841850226  0.5949313865424202  1.0000
  H   H10       1.0  0.20647712424450756  0.4098424101797989  0.6169902321048822  1.0000
  H   H11       1.0  0.21566990007878667  0.34483433100647437  0.6811583582907231  1.0000
  H   H12       1.0  0.10898236333667907  0.8764993983835655  0.08718690484651151  1.0000
  H   H13       1.0  0.1002060982060513  0.8108401348885511  0.15083762002911533  1.0000
  H   H14       1.0  0.7220172397922794  0.849908483338709  0.1900299222442925  1.0000
  H   H15       1.0  0.7332253451961819  0.9120544394387411  0.12290484402488736  1.0000
  H   H16       1.0  0.6561719185697896  0.7349245696597679  0.1746030034467623  1.0000
  H   H17       1.0  0.6649557020838587  0.6699390592421468  0.23776837512009757  1.0000
  H   H18       1.0  0.16236995372786814  0.771185360732901  0.3297783340454644  1.0000
  H   H19       1.0  0.0847968034025257  0.6717123978503852  0.3275260743019929  1.0000
  H   H20       1.0  0.0700669688523234  0.6070802547651654  0.3918481232518402  1.0000
  H   H21       1.0  0.7137674326963435  0.6053385406983056  0.3976629645414889  1.0000
  H   H22       1.0  0.3071467168576731  0.9136025945155881  0.3420348789035401  1.0000
  H   H23       1.0  0.34565819038521534  0.9239602641329373  0.27487705048196176  1.0000
  H   H24       1.0  0.1267312326998891  0.9544017433531098  0.3144167274119951  1.0000
  H   H25       1.0  0.0420559832717018  0.8586323218837607  0.23817416262272667  1.0000
  H   H26       1.0  0.0067950299342954025  0.8470250038816263  0.3043472351743617  1.0000
  H   H27       1.0  0.8638890062716696  0.08497104717540081  0.6557943108153523  1.0000
  H   H28       1.0  0.8925672242335737  0.07497000146888413  0.7233867397046296  1.0000
  H   H29       1.0  0.6902732270881415  0.03894394033124371  0.6795824970849863  1.0000
  H   H30       1.0  0.5671240320393451  0.13160781346383746  0.754460236016726  1.0000
  H   H31       1.0  0.5401942181049647  0.14258056717845594  0.687754589444431  1.0000
  H   H32       1.0  0.38369273936746134  0.41902556980794986  0.48143448114181087  1.0000
  H   H33       1.0  0.8822480430325753  0.5801894707590096  0.5263986150468156  1.0000
  H   H34       1.0  0.42373087077955063  0.08072634881904153  0.022953965165264403  1.0000
  H   H35       1.0  0.9257363918090321  0.9191651695721607  0.9803937364441923  1.0000
  C   C1        1.0  0.38564814535235564  0.5850694513669269  0.5867979636592365  1.0000
  C   C2        1.0  0.38540230436500866  0.5631550042194036  0.43749922500978755  1.0000
  C   C3        1.0  0.8870042395048897  0.41510840474783367  0.4130087952653057  1.0000
  C   C4        1.0  0.887238093262418  0.4364085700794079  0.5624867526397139  1.0000
  C   C5        1.0  0.7401275175107499  0.12691895117401944  0.8871665854969067  1.0000
  C   C6        1.0  0.7355610545367951  0.16260400215687554  0.8507581471971974  1.0000
  C   C7        1.0  0.910305955223123  0.17244022703874154  0.8231143071152258  1.0000
  C   C8        1.0  0.09122557320641529  0.14701723149826765  0.8345837203266626  1.0000
  C   C9        1.0  0.09703918046346159  0.11192794874081362  0.8716116581903817  1.0000
  C   C10       1.0  0.9208462319931099  0.10105427150956812  0.897737310168388  1.0000
  C   C11       1.0  0.0352140868406181  0.26016462072669816  0.7929620073904006  1.0000
  C   C12       1.0  0.035294505572203094  0.29756157827398516  0.7579917140291386  1.0000
  C   C13       1.0  0.9038035918118013  0.28556608366699987  0.7120251670046541  1.0000
  C   C14       1.0  0.7772878373708065  0.23434510477255802  0.7022163571116947  1.0000
  C   C15       1.0  0.7756072265603038  0.19594694104982585  0.7365734392742737  1.0000
  C   C16       1.0  0.9055401572666283  0.20971874452491338  0.7836291751587083  1.0000
  C   C17       1.0  0.7187662815854949  0.33503530783364255  0.6495344627653238  1.0000
  C   C18       1.0  0.7138317212503721  0.3716490252546409  0.6139289427736825  1.0000
  C   C19       1.0  0.8899754709504677  0.3986029365519813  0.6018636501972451  1.0000
  C   C20       1.0  0.07027849671860048  0.38879728666011465  0.6266219997670317  1.0000
  C   C21       1.0  0.07418265861688408  0.35270717304705823  0.6626708972128837  1.0000
  C   C22       1.0  0.8988721924543696  0.32482810350646224  0.674596779863478  1.0000
  C   C23       1.0  0.9216531692814768  0.13597967052722032  0.13782344608519984  1.0000
  C   C24       1.0  0.9153346231449716  0.17989743988934495  0.18098615582746896  1.0000
  C   C25       1.0  0.9084135937349983  0.22802911369543474  0.22807125132214878  1.0000
  C   C26       1.0  0.9016785114994477  0.27248059421504683  0.2712757542274176  1.0000
  C   C27       1.0  0.8952338600235308  0.32057175789100273  0.3183988744161468  1.0000
  C   C28       1.0  0.8901714344425926  0.36443604506069255  0.3616156176496688  1.0000
  C   C29       1.0  0.3872805681961039  0.6356719108239519  0.6382261795545432  1.0000
  C   C30       1.0  0.3937550756151251  0.6795040555390559  0.6814289783268421  1.0000
  C   C31       1.0  0.4020238853534081  0.7275722453430405  0.7285143542715601  1.0000
  C   C32       1.0  0.410870110203703  0.7720044761217086  0.7716429486461536  1.0000
  C   C33       1.0  0.41945593489606375  0.8201952819142662  0.8186225860463805  1.0000
  C   C34       1.0  0.4266630527604888  0.8641775770034527  0.8616911212333702  1.0000
  C   C35       1.0  0.24256283617870616  0.8703690434346146  0.10995219881913702  1.0000
  C   C36       1.0  0.23770227926058135  0.8345209852853801  0.14621805445587907  1.0000
  C   C37       1.0  0.4093057658348655  0.827209790438701  0.17617038897945037  1.0000
  C   C38       1.0  0.5881014589468592  0.8551807170341661  0.16690390777080205  1.0000
  C   C39       1.0  0.5947474557493493  0.8901785651208058  0.12981261309408154  1.0000
  C   C40       1.0  0.4210274673996749  0.8986885612056458  0.1015493691934211  1.0000
  C   C41       1.0  0.5484728950285742  0.7431655636790641  0.2091871490656061  1.0000
  C   C42       1.0  0.553369879458721  0.7063749846461466  0.2446603117451431  1.0000
  C   C43       1.0  0.4115064455921951  0.7151903702307295  0.2881813162696004  1.0000
  C   C44       1.0  0.2696560414481723  0.7624573592681545  0.2950206526880734  1.0000
  C   C45       1.0  0.26382086817255873  0.8003866663798148  0.26023745276883387  1.0000
  C   C46       1.0  0.40502711374288936  0.78998329672978  0.21570453287351654  1.0000
  C   C47       1.0  0.2224471831048049  0.6576082116137627  0.343311551038397  1.0000
  C   C48       1.0  0.21347697307145103  0.6211647898066561  0.37902631013317745  1.0000
  C   C49       1.0  0.3902633624014554  0.6016941296770284  0.3986770508597885  1.0000
  C   C50       1.0  0.5752956762874248  0.6196012097628414  0.3822771055191012  1.0000
  C   C51       1.0  0.578489132850116  0.6559893961374783  0.346853464969385  1.0000
  C   C52       1.0  0.4057594996967779  0.6761632156553292  0.3258063218793694  1.0000
  C   C53       1.0  0.42465295006966375  0.9366435599994464  0.06227887304632427  1.0000
  C   C54       1.0  0.426636504603337  0.9149630021255178  0.9129932902063655  1.0000
  C   C55       1.0  0.9241478894144135  0.06314099248170632  0.9370682936740025  1.0000
  C   C56       1.0  0.9235851743316202  0.08525168552960591  0.08649307203842227  1.0000
  C   C57       1.0  0.12157130492087731  0.8546814761565429  0.27545800466361914  1.0000
  C   C58       1.0  0.23145368178995074  0.9153254793350388  0.30339335590004884  1.0000
  C   C59       1.0  0.6514162230174493  0.13797753875271473  0.7187185569368209  1.0000
  C   C60       1.0  0.7819556766594787  0.08074194422745513  0.6927863334581517  1.0000
  O   O1        1.0  0.5538934932694772  0.5486541783695389  0.4538683045777674  1.0000
  O   O2        1.0  0.21500806024913288  0.5666055298962149  0.5659753772740784  1.0000
  O   O3        1.0  0.056442382880639685  0.45243524286797776  0.5477206027633272  1.0000
  O   O4        1.0  0.21436396983880704  0.5485520505605664  0.45222073281613717  1.0000
  O   O5        1.0  0.056538674798069594  0.43470951951258746  0.43386379715986567  1.0000
  O   O6        1.0  0.5562707918412785  0.5643331800882694  0.566980221087924  1.0000
  O   O7        1.0  0.3851093438563211  0.4635721180414835  0.49434003268098076  1.0000
  O   O8        1.0  0.7154577516746485  0.43479161058667176  0.43277944140423585  1.0000
  O   O9        1.0  0.7168501376331307  0.4491170804175656  0.5456435418879336  1.0000
  O   O10       1.0  0.8843671614955256  0.5366032960525261  0.5060534403308736  1.0000
  O   O11       1.0  0.2552588848603676  0.9350745117566963  0.9326016563588199  1.0000
  O   O12       1.0  0.5954613819316634  0.9519759594451004  0.04794959120474115  1.0000
  O   O13       1.0  0.7530265832182294  0.06557162328704183  0.0664679255752674  1.0000
  O   O14       1.0  0.5964751924711962  0.9341785557612926  0.9338898184253352  1.0000
  O   O15       1.0  0.7552122817339182  0.04895491040962702  0.9535253269733559  1.0000
  O   O16       1.0  0.2559115248994814  0.9502291494394797  0.04522954121152616  1.0000
  O   O17       1.0  0.4244081898115297  0.036536312598549614  0.0055670762703173005  1.0000
  O   O18       1.0  0.09478117138286277  0.04845450193752041  0.9520212921791111  1.0000
  O   O19       1.0  0.09441822512148688  0.06566448023773572  0.0659625207338976  1.0000
  O   O20       1.0  0.9252503860789076  0.9636936910736442  0.9941204015095406  1.0000
  F   F1        1.0  0.7615328349618338  0.6745592784396025  0.33314979293412955  1.0000
