data_image0
_chemical_formula_structural       Ag4H30C30N10O18
_chemical_formula_sum              "Ag4 H30 C30 N10 O18"
_cell_length_a       8.202757758180399
_cell_length_b       11.208234059929103
_cell_length_c       12.57139147018248
_cell_angle_alpha    117.06541039383454
_cell_angle_beta     97.0044268446015
_cell_angle_gamma    98.47256202782786

_space_group_name_H-M_alt    "P 1"
_space_group_IT_number       1

loop_
  _space_group_symop_operation_xyz
  'x, y, z'

loop_
  _atom_site_type_symbol
  _atom_site_label
  _atom_site_symmetry_multiplicity
  _atom_site_fract_x
  _atom_site_fract_y
  _atom_site_fract_z
  _atom_site_occupancy
  Ag  Ag1       1.0  0.9299585776187483  0.04348887441797439  0.3252039291003399  1.0000
  Ag  Ag2       1.0  0.07004091893848134  0.9565120130082643  0.6747968919512601  1.0000
  Ag  Ag3       1.0  0.9146264798040703  0.6713580217556369  0.14317779041058298  1.0000
  Ag  Ag4       1.0  0.08537149402556567  0.3286418347900336  0.856820902388435  1.0000
  H   H1        1.0  0.07200381080199493  0.8912794585482686  0.16209530653654267  1.0000
  H   H2        1.0  0.9279980844388901  0.10872554374616782  0.8379073677876434  1.0000
  H   H3        1.0  0.13859730919030255  0.8501244464024039  0.8137881443913952  1.0000
  H   H4        1.0  0.8614058686793766  0.1498764308678844  0.18621216880251268  1.0000
  H   H5        1.0  0.43888107340605126  0.19874467783266428  0.14781967458231554  1.0000
  H   H6        1.0  0.5611183631799647  0.8012603235690605  0.8521804181821864  1.0000
  H   H7        1.0  0.48084851144657387  0.3918182125417289  0.515677346450083  1.0000
  H   H8        1.0  0.5191510450818767  0.6081785609090318  0.4843242028886223  1.0000
  H   H9        1.0  0.5694312522466162  0.26288704912903427  0.5348700932490473  1.0000
  H   H10       1.0  0.4305683042818345  0.7371097243217193  0.46513145608966516  1.0000
  H   H11       1.0  0.29696376733103585  0.15533608906581972  0.5443143365016212  1.0000
  H   H12       1.0  0.703033918555583  0.8446627464506518  0.4556871026223774  1.0000
  H   H13       1.0  0.22260682109487817  0.2991660300802579  0.5524953570303097  1.0000
  H   H14       1.0  0.7773930258019914  0.7008317685797038  0.44750503878240266  1.0000
  H   H15       1.0  0.5322539580717133  0.3491015090853152  0.924171836020875  1.0000
  H   H16       1.0  0.46774647320008717  0.6508983462630623  0.07582864193833669  1.0000
  H   H17       1.0  0.6929596122102949  0.2528573502005144  0.8857007073336832  1.0000
  H   H18       1.0  0.3070398904104437  0.7471435476757478  0.11430409571538999  1.0000
  H   H19       1.0  0.5048782808403017  0.07536768666523128  0.6949466724008104  1.0000
  H   H20       1.0  0.49512583780744995  0.9246321689772187  0.3050572796981754  1.0000
  H   H21       1.0  0.3791064975231179  0.19817025651547474  0.7204478144082387  1.0000
  H   H22       1.0  0.6208979066422485  0.8018306159761578  0.27955179856677864  1.0000
  H   H23       1.0  0.6514960326181124  0.5692721428667795  0.7121755259631045  1.0000
  H   H24       1.0  0.348501649630407  0.43072668637968536  0.287823523962409  1.0000
  H   H25       1.0  0.8170804544741016  0.4751923479463045  0.6857864341278556  1.0000
  H   H26       1.0  0.18291874686391904  0.5248075059107221  0.31421235485176163  1.0000
  H   H27       1.0  0.7869727845895509  0.4485013558910893  0.86021972377187  1.0000
  H   H28       1.0  0.21302858018411544  0.5514974652894225  0.1397796146954491  1.0000
  H   H29       1.0  0.6317171726306513  0.5481252450073908  0.89022417762569  1.0000
  H   H30       1.0  0.36828150066555304  0.4518684319157131  0.10977286829604793  1.0000
  C   C1        1.0  0.25908076531028706  0.0529100909776261  0.16893897552813542  1.0000
  C   C2        1.0  0.7409220658578661  0.9470938813289533  0.8310641521031527  1.0000
  C   C3        1.0  0.13449911799984446  0.9306861839726182  0.10886484840827394  1.0000
  C   C4        1.0  0.8655046418193706  0.06931674580607708  0.8911339541331459  1.0000
  C   C5        1.0  0.09010901190408292  0.8576804509525925  0.9812029446400601  1.0000
  C   C6        1.0  0.9098929420953182  0.14232043527635335  0.018799661571733774  1.0000
  C   C7        1.0  0.17065114175137813  0.9084482584041638  0.9133317489618663  1.0000
  C   C8        1.0  0.8293511014037449  0.091553650943986  0.08666890732443733  1.0000
  C   C9        1.0  0.29385814160454515  0.03215399299985219  0.9733875960615634  1.0000
  C   C10       1.0  0.7061404202381212  0.9678479265042484  0.026613568082432038  1.0000
  C   C11       1.0  0.341788643992018  0.10314677729137141  0.10140415124732272  1.0000
  C   C12       1.0  0.6582141835380284  0.8968571887452014  0.8985965871854802  1.0000
  C   C13       1.0  0.29779967410683383  0.13097257651408967  0.302973407743039  1.0000
  C   C14       1.0  0.702198888948537  0.8690293450800153  0.6970285528004537  1.0000
  C   C15       1.0  0.46211850615679123  0.28217136750430427  0.4890905728553747  1.0000
  C   C16       1.0  0.5378813431654803  0.7178264353356666  0.5109114157563326  1.0000
  C   C17       1.0  0.2895439522156167  0.22101182550118637  0.5014338839482662  1.0000
  C   C18       1.0  0.7104561899004693  0.7789870067279949  0.4985685439364289  1.0000
  C   C19       1.0  0.37173578819077596  0.09137580156374268  0.903968656591765  1.0000
  C   C20       1.0  0.628262131731141  0.9086281794074295  0.0960332899176279  1.0000
  C   C21       1.0  0.5586544425760492  0.24617730773657343  0.8853251562524137  1.0000
  C   C22       1.0  0.4413441216920191  0.7538246159475435  0.11467760069057677  1.0000
  C   C23       1.0  0.44129718480229485  0.14445958572999723  0.7614213646449314  1.0000
  C   C24       1.0  0.5587057014862681  0.8555402642410783  0.23857930567547925  1.0000
  C   C25       1.0  0.9562066324508294  0.7314132517675843  0.9188650082157183  1.0000
  C   C26       1.0  0.043795608278884395  0.26858865340055615  0.08113405527159762  1.0000
  C   C27       1.0  0.7695644749474227  0.5575407821815476  0.7534903623083623  1.0000
  C   C28       1.0  0.23043472639059803  0.4424590716754721  0.2465084266712552  1.0000
  C   C29       1.0  0.7571841541130125  0.5442256132207389  0.8687801202729516  1.0000
  C   C30       1.0  0.24281598315227632  0.45577321064842385  0.13121912201376779  1.0000
  N   N1        1.0  0.19436914345354236  0.1341064499025535  0.3737884487757626  1.0000
  N   N2        1.0  0.8056312890309556  0.8658934075358288  0.6262128255829396  1.0000
  N   N3        1.0  0.8861673498440222  0.6622550799969602  0.9668780720692495  1.0000
  N   N4        1.0  0.11382758823201299  0.33774273150760337  0.03312273542055521  1.0000
  N   N5        1.0  0.3159082536909352  0.06292517508147448  0.7921727006176766  1.0000
  N   N6        1.0  0.6840924715873838  0.9370757117461177  0.20782901301402024  1.0000
  N   N7        1.0  0.853296175382617  0.17039988519501748  0.6107887347606038  1.0000
  N   N8        1.0  0.14670641689943412  0.8295989332968433  0.3892106998873147  1.0000
  N   N9        1.0  0.7179000617218562  0.4920276348367949  0.21784801786340327  1.0000
  N   N10       1.0  0.2820966785358863  0.5079722139475039  0.7821465967575423  1.0000
  O   O1        1.0  0.45634473443438833  0.20734174609180653  0.35688532452456206  1.0000
  O   O2        1.0  0.5436541789606154  0.7926570867360141  0.6431162107800362  1.0000
  O   O3        1.0  0.8968167653513246  0.6859498444848667  0.7989907738169039  1.0000
  O   O4        1.0  0.10318302399973331  0.3140520723305825  0.2010104865076983  1.0000
  O   O5        1.0  0.516312232104667  0.1887162927371477  0.9653281255627775  1.0000
  O   O6        1.0  0.48368475431538366  0.8112887224018904  0.03467496043850093  1.0000
  O   O7        1.0  0.7708663760070492  0.1077054960720218  0.5014633689157932  1.0000
  O   O8        1.0  0.22913376004553498  0.8922933257071364  0.4985350769714286  1.0000
  O   O9        1.0  0.7814027501362303  0.23019687037098893  0.6980638587379033  1.0000
  O   O10       1.0  0.21860077686038437  0.7698009160430174  0.30193523281761975  1.0000
  O   O11       1.0  0.011047931051841384  0.17415792125530766  0.6346238231476562  1.0000
  O   O12       1.0  0.9889540720044748  0.825838832188118  0.3653723437557871  1.0000
  O   O13       1.0  0.6411942727115161  0.5737796141903149  0.19798164018142478  1.0000
  O   O14       1.0  0.3588063938082867  0.42622538870277527  0.8020201415626644  1.0000
  O   O15       1.0  0.8660230895582328  0.48847829323340614  0.19569987992419163  1.0000
  O   O16       1.0  0.1339736506995166  0.5115215555508925  0.8042947346967466  1.0000
  O   O17       1.0  0.6510851564411338  0.4181526342814763  0.25855117740935907  1.0000
  O   O18       1.0  0.34891163529892566  0.5818430858973115  0.7414385907022235  1.0000
