data_image0
_chemical_formula_structural       Er2Ag10H32C64O32
_chemical_formula_sum              "Er2 Ag10 H32 C64 O32"
_cell_length_a       7.842092906841361
_cell_length_b       14.83663948072935
_cell_length_c       14.989168569092579
_cell_angle_alpha    64.57208568047615
_cell_angle_beta     81.46683058611137
_cell_angle_gamma    81.60423407325253

_space_group_name_H-M_alt    "P 1"
_space_group_IT_number       1

loop_
  _space_group_symop_operation_xyz
  'x, y, z'

loop_
  _atom_site_type_symbol
  _atom_site_label
  _atom_site_symmetry_multiplicity
  _atom_site_fract_x
  _atom_site_fract_y
  _atom_site_fract_z
  _atom_site_occupancy
  Er  Er1       1.0  0.35159702472660104  0.251121118479702  0.2521237079665823  1.0000
  Er  Er2       1.0  0.6484033930831572  0.7488810346948895  0.7478799767173001  1.0000
  Ag  Ag1       1.0  0.1275796809171865  0.09287890781260438  0.49663456479459  1.0000
  Ag  Ag2       1.0  0.8724224796937461  0.907128475651497  0.503364067208878  1.0000
  Ag  Ag3       1.0  0.17857006806008965  0.4054873147479867  0.0033315707565791347  1.0000
  Ag  Ag4       1.0  0.8214230041198364  0.5945125393257484  0.9966669957484271  1.0000
  Ag  Ag5       1.0  0.7994646922625178  0.32935142035655207  0.019150952121329168  1.0000
  Ag  Ag6       1.0  0.20053974161263  0.6706499412693886  0.9808460929520991  1.0000
  Ag  Ag7       1.0  0.291855799038558  0.8255555488303796  0.5169995797328824  1.0000
  Ag  Ag8       1.0  0.7081514634953123  0.17444430226696284  0.48299589639640317  1.0000
  Ag  Ag9       1.0  0.8532281849848002  0.2522088939837985  0.2516685421766028  1.0000
  Ag  Ag10      1.0  0.14677440148225426  0.7477879598711326  0.7483292498086483  1.0000
  H   H1        1.0  0.1821394225638358  0.0908984423532928  0.9856473403213925  1.0000
  H   H2        1.0  0.8178597444322832  0.9090954691352522  0.014360653308052968  1.0000
  H   H3        1.0  0.1360429613513645  0.9120911310874078  0.0376651210845722  1.0000
  H   H4        1.0  0.8639522086504313  0.0879035404957875  0.9623448540936721  1.0000
  H   H5        1.0  0.07446687331718489  0.8022580178276468  0.21806732780289212  1.0000
  H   H6        1.0  0.9255254571281383  0.19773818225786502  0.7819468780690144  1.0000
  H   H7        1.0  0.07632771800425074  0.8700935601397859  0.34310030733056623  1.0000
  H   H8        1.0  0.9236734753116093  0.12991164133364919  0.6569093451268843  1.0000
  H   H9        1.0  0.8879908928808857  0.4025894115435094  0.5127328484239797  1.0000
  H   H10       1.0  0.11200354561735541  0.5974179437240676  0.4872630531545426  1.0000
  H   H11       1.0  0.7734582370073754  0.5818673102629361  0.45919086443761603  1.0000
  H   H12       1.0  0.226528611229483  0.41813924935534164  0.5407999581107603  1.0000
  H   H13       1.0  0.8061319476592885  0.6983419796442192  0.2796048651621135  1.0000
  H   H14       1.0  0.19385668730313907  0.30166156054556836  0.7203837833163221  1.0000
  H   H15       1.0  0.9367826106473128  0.6332454408810905  0.15558051086470207  1.0000
  H   H16       1.0  0.06321937650084658  0.36675515138228587  0.8444143845241853  1.0000
  H   H17       1.0  0.4245029281129503  0.5112716934585038  0.41626835971820964  1.0000
  H   H18       1.0  0.5754961424495662  0.48872292706825254  0.5837333318305014  1.0000
  H   H19       1.0  0.334908660026464  0.6917212364789976  0.3155259007551336  1.0000
  H   H20       1.0  0.6650951939342276  0.3082756542782477  0.6844771152688267  1.0000
  H   H21       1.0  0.3681832751868797  0.7586703263695469  0.1298680861855389  1.0000
  H   H22       1.0  0.6318217362116485  0.24132733279537183  0.8701371789832918  1.0000
  H   H23       1.0  0.4813047738068973  0.6453170785225308  0.04819880738410389  1.0000
  H   H24       1.0  0.5186958913588454  0.35468356670708096  0.9518041727136576  1.0000
  H   H25       1.0  0.6368299001511628  0.0010781953124947997  0.08456704597491439  1.0000
  H   H26       1.0  0.3631782779134411  0.9989239231506346  0.9154300530105957  1.0000
  H   H27       1.0  0.5890994916315646  0.8201580961695569  0.1826219322582647  1.0000
  H   H28       1.0  0.41090483491223034  0.17984399246831365  0.8173714724839414  1.0000
  H   H29       1.0  0.5700252688746944  0.747912340188023  0.3686535675598537  1.0000
  H   H30       1.0  0.42996960365298514  0.2520844719900949  0.631339497688316  1.0000
  H   H31       1.0  0.5883837408507445  0.8568135207116754  0.45321479781205193  1.0000
  H   H32       1.0  0.411613809413275  0.1431825798445985  0.5467837051588164  1.0000
  C   C1        1.0  0.20405248243895358  0.18731326284163427  0.09342012546525075  1.0000
  C   C2        1.0  0.7959653172441321  0.8126851283907612  0.9065798393317266  1.0000
  C   C3        1.0  0.16496411794607005  0.08012457627421551  0.1337633477668874  1.0000
  C   C4        1.0  0.835040893452458  0.919873082890703  0.8662419174019503  1.0000
  C   C5        1.0  0.16202833233644748  0.041064256020369796  0.06408025115531053  1.0000
  C   C6        1.0  0.8379758763115814  0.9589303997799733  0.9359257006137514  1.0000
  C   C7        1.0  0.1334445474559586  0.9413172868084276  0.09339371768847823  1.0000
  C   C8        1.0  0.8665583392096537  0.05867742195815849  0.9066203187894644  1.0000
  C   C9        1.0  0.10125196013527221  0.8797732309932299  0.19418929597513587  1.0000
  C   C10       1.0  0.8987503353847756  0.1202252027015192  0.8058198475943071  1.0000
  C   C11       1.0  0.10287754044544063  0.9175822227655246  0.26438863065405377  1.0000
  C   C12       1.0  0.8971337773741936  0.08241622210694288  0.7356204821304857  1.0000
  C   C13       1.0  0.13626669311344125  0.017253201734121097  0.2359482475648775  1.0000
  C   C14       1.0  0.8637405285538334  0.9827467167646302  0.7640572101251026  1.0000
  C   C15       1.0  0.1328570302002916  0.051686413509074186  0.3163682692517185  1.0000
  C   C16       1.0  0.8671456223981762  0.9483179585584978  0.683629619016898  1.0000
  C   C17       1.0  0.06684682523580676  0.3120675435966619  0.40741459338102703  1.0000
  C   C18       1.0  0.9331539196835477  0.6879405973784571  0.5925851558131968  1.0000
  C   C19       1.0  0.9844108056515423  0.41778971308135476  0.36590284309896504  1.0000
  C   C20       1.0  0.015581538082621166  0.5822146423601781  0.6340945099774943  1.0000
  C   C21       1.0  0.9000103544258451  0.4541839113264813  0.4345899792357244  1.0000
  C   C22       1.0  0.09997930612310309  0.5458211647237476  0.5654032669927815  1.0000
  C   C23       1.0  0.8363045030497672  0.5545372777672952  0.4043687007524568  1.0000
  C   C24       1.0  0.1636870461072206  0.44546406082938717  0.595627342612083  1.0000
  C   C25       1.0  0.8540535942918763  0.6196714159497317  0.3040062148317022  1.0000
  C   C26       1.0  0.145936335408571  0.3803321162081018  0.6959810033116511  1.0000
  C   C27       1.0  0.9300665215915271  0.5835498523658275  0.23440108691431757  1.0000
  C   C28       1.0  0.06993793407913525  0.41645147331269783  0.7655906346600715  1.0000
  C   C29       1.0  0.9956422151233394  0.4828725822686407  0.2635092409867711  1.0000
  C   C30       1.0  0.004356709632311602  0.5171310060011861  0.7364846007454773  1.0000
  C   C31       1.0  0.06077695165092924  0.44903115407702626  0.18301020386412156  1.0000
  C   C32       1.0  0.9392280924408708  0.550966451166765  0.816987076056151  1.0000
  C   C33       1.0  0.5437450802049567  0.36779216802416664  0.3525923616559936  1.0000
  C   C34       1.0  0.45624741206051306  0.6322032151808727  0.6474121757995376  1.0000
  C   C35       1.0  0.4864397936471148  0.47508808837241656  0.29060827527072064  1.0000
  C   C36       1.0  0.5135524676090026  0.5249087758170321  0.7093929741466526  1.0000
  C   C37       1.0  0.4292467513303606  0.5409749447151241  0.33576121954853033  1.0000
  C   C38       1.0  0.5707545322253508  0.45902193065204233  0.6642399990839394  1.0000
  C   C39       1.0  0.3822764374207209  0.6419036711566545  0.27909424014900003  1.0000
  C   C40       1.0  0.617731281682971  0.35809322695871504  0.7209091429313688  1.0000
  C   C41       1.0  0.4005825011509642  0.6794563032888518  0.1755311182725664  1.0000
  C   C42       1.0  0.599430256880204  0.3205413436317457  0.8244708883847948  1.0000
  C   C43       1.0  0.461052928068426  0.6152342287507153  0.12938215562531502  1.0000
  C   C44       1.0  0.5389500737685039  0.38476791734681365  0.8706199992631554  1.0000
  C   C45       1.0  0.498965567648348  0.5124956368073299  0.18623399727609793  1.0000
  C   C46       1.0  0.5010301986145435  0.4875034786839977  0.8137660143273351  1.0000
  C   C47       1.0  0.5510677951964025  0.44529906769774646  0.1329962441840991  1.0000
  C   C48       1.0  0.44893264713330433  0.5547030450359925  0.8670014515633682  1.0000
  C   C49       1.0  0.6676437383865803  0.137783080130184  0.1530541718127836  1.0000
  C   C50       1.0  0.3323585871022913  0.8622153041368534  0.8469476519454846  1.0000
  C   C51       1.0  0.6276481100355794  0.0314923850696616  0.21253785540758938  1.0000
  C   C52       1.0  0.37235245324768573  0.9685089781850209  0.7874601534841972  1.0000
  C   C53       1.0  0.6220603990480881  0.968625129915452  0.16531881215573926  1.0000
  C   C54       1.0  0.37794121434165356  0.0313777287588195  0.8346778055496955  1.0000
  C   C55       1.0  0.5969160417229771  0.8677808112265879  0.22035505881243014  1.0000
  C   C56       1.0  0.403083001261784  0.13222203205760508  0.779639761501521  1.0000
  C   C57       1.0  0.5852399864532882  0.8272695443379948  0.3240512103923406  1.0000
  C   C58       1.0  0.4147541358331138  0.1727318051553368  0.6759459649263135  1.0000
  C   C59       1.0  0.5916138422907906  0.8889313747394567  0.3720987184401992  1.0000
  C   C60       1.0  0.40837278889227957  0.11106846557293439  0.6278990144916746  1.0000
  C   C61       1.0  0.6056805060090864  0.9918541081377085  0.31699266447004965  1.0000
  C   C62       1.0  0.3943227568060265  0.008146507547707  0.683005458645404  1.0000
  C   C63       1.0  0.5927576226673708  0.0577749622622719  0.3713392836864813  1.0000
  C   C64       1.0  0.4072412032636024  0.9422211617160343  0.6286624470109673  1.0000
  O   O1        1.0  0.11920226752644676  0.2516062115943001  0.023232636369975537  1.0000
  O   O2        1.0  0.8808132009343268  0.7483906697833264  0.9767668227615405  1.0000
  O   O3        1.0  0.3248564902244411  0.20971034125840762  0.12651971809980014  1.0000
  O   O4        1.0  0.6751580381856499  0.7902843131942703  0.8734841071118994  1.0000
  O   O5        1.0  0.14324835932191599  0.9867808744704616  0.40472929756328574  1.0000
  O   O6        1.0  0.8567545133881465  0.0132220345864127  0.5952745404930014  1.0000
  O   O7        1.0  0.1165601953623394  0.14669698850055818  0.2954085372318502  1.0000
  O   O8        1.0  0.8834336468748133  0.8533059228588868  0.7045973279214763  1.0000
  O   O9        1.0  0.9821440082352025  0.24500425686390065  0.4775726331675685  1.0000
  O   O10       1.0  0.017852745138718328  0.7550046352190164  0.5224277667007016  1.0000
  O   O11       1.0  0.2219439268009039  0.2935301906347831  0.3754475314209743  1.0000
  O   O12       1.0  0.7780514684280104  0.7064711867740173  0.6245535370616295  1.0000
  O   O13       1.0  0.08631330035908748  0.5135215991155206  0.09451342244616973  1.0000
  O   O14       1.0  0.9136954879221547  0.4864767629654452  0.9054839113861916  1.0000
  O   O15       1.0  0.08404776282253582  0.3540416775506897  0.20378735250169205  1.0000
  O   O16       1.0  0.9159701523652186  0.6459559731895013  0.7962142563143643  1.0000
  O   O17       1.0  0.567686043988992  0.3398424233798423  0.4420455698053161  1.0000
  O   O18       1.0  0.43229050389024337  0.6601559283089458  0.5579562468473185  1.0000
  O   O19       1.0  0.5723777218615852  0.3078201415366593  0.3080009327397023  1.0000
  O   O20       1.0  0.4276228744483034  0.6921729899737274  0.6920026165120775  1.0000
  O   O21       1.0  0.7046391261673576  0.44491216402728645  0.09145041854946365  1.0000
  O   O22       1.0  0.29535370955433393  0.5550891800177169  0.9085461907921369  1.0000
  O   O23       1.0  0.43597010206686787  0.395642297300803  0.12811565510333628  1.0000
  O   O24       1.0  0.5640271926678507  0.604355324680732  0.8718855487657889  1.0000
  O   O25       1.0  0.723573236041517  0.058212485207924686  0.4118767965088495  1.0000
  O   O26       1.0  0.27642358305229914  0.9417881212095691  0.5881211584708552  1.0000
  O   O27       1.0  0.44723536738978714  0.10703665277895168  0.3773271305706487  1.0000
  O   O28       1.0  0.5527587933721207  0.8929564559832386  0.6226742542332462  1.0000
  O   O29       1.0  0.6365071663998375  0.19701820848106164  0.1981970201651394  1.0000
  O   O30       1.0  0.36348731329835005  0.8029809015619449  0.8018024254612399  1.0000
  O   O31       1.0  0.7347439846618472  0.16556453502239066  0.06485852857255031  1.0000
  O   O32       1.0  0.26525553396381696  0.8344353238258363  0.9351395406308215  1.0000
