data_image0
_chemical_formula_structural       Co6H6C30O30
_chemical_formula_sum              "Co6 H6 C30 O30"
_cell_length_a       6.756312259100891
_cell_length_b       15.235004074500559
_cell_length_c       15.232667137704153
_cell_angle_alpha    117.84482551991132
_cell_angle_beta     98.49302612577468
_cell_angle_gamma    98.51911104266577

_space_group_name_H-M_alt    "P 1"
_space_group_IT_number       1

loop_
  _space_group_symop_operation_xyz
  'x, y, z'

loop_
  _atom_site_type_symbol
  _atom_site_label
  _atom_site_symmetry_multiplicity
  _atom_site_fract_x
  _atom_site_fract_y
  _atom_site_fract_z
  _atom_site_occupancy
  Co  Co1       1.0  0.5229553083932997  0.4011510436435373  0.7271304996707783  1.0000
  Co  Co2       1.0  0.7959185249473677  0.27291729130709536  0.6740032551838693  1.0000
  Co  Co3       1.0  0.12178688234982354  0.32595530779590104  0.5988081797982615  1.0000
  Co  Co4       1.0  0.477056501235559  0.5988537802325453  0.27286849453999923  1.0000
  Co  Co5       1.0  0.20409622852920944  0.7270783377429451  0.32598311208783304  1.0000
  Co  Co6       1.0  0.878224970685551  0.6740464516599969  0.4011782274443974  1.0000
  H   H1        1.0  0.18103774557353355  0.5320653953704949  0.557431401768639  1.0000
  H   H2        1.0  0.6235510608453653  0.4426642977132147  0.9747081721984542  1.0000
  H   H3        1.0  0.6489648162804758  0.025319394138080004  0.4678690783151253  1.0000
  H   H4        1.0  0.8189600205645747  0.46791414061203807  0.4425404133220709  1.0000
  H   H5        1.0  0.3764549104608506  0.5573229006862022  0.02528417847668156  1.0000
  H   H6        1.0  0.35104863721228696  0.9746823664410799  0.5321029937802281  1.0000
  C   C1        1.0  0.7489012289580331  0.39032849411128734  0.5616832539671179  1.0000
  C   C2        1.0  0.1872279335537713  0.43829124106988376  0.8285920195966838  1.0000
  C   C3        1.0  0.35871335199302484  0.17141411437523146  0.6097107091011436  1.0000
  C   C4        1.0  0.2511206277392902  0.6096694339986827  0.4383092563451286  1.0000
  C   C5        1.0  0.8127780613674817  0.561695957561966  0.17139705033090288  1.0000
  C   C6        1.0  0.6413049877819644  0.8285914778112796  0.3902667597360506  1.0000
  C   C7        1.0  0.619733846318418  0.4473681599451211  0.5328941682132394  1.0000
  C   C8        1.0  0.08685667860257948  0.4670367123705503  0.9144612778500514  1.0000
  C   C9        1.0  0.1724596435624832  0.08553625580793782  0.552585646485987  1.0000
  C   C10       1.0  0.3802628520585998  0.5526182724066616  0.4670847316275584  1.0000
  C   C11       1.0  0.913140281234661  0.5329474202617279  0.08552838339760173  1.0000
  C   C12       1.0  0.8275474734274582  0.9144647383667887  0.44738104885299623  1.0000
  C   C13       1.0  0.4357630744665856  0.46583253963552107  0.5666789365196436  1.0000
  C   C14       1.0  0.8690543144453287  0.4332905531700392  0.8991675406015673  1.0000
  C   C15       1.0  0.969972691010014  0.10081949797837811  0.5341267304480936  1.0000
  C   C16       1.0  0.5642574807918594  0.5341477637642315  0.43330066918763066  1.0000
  C   C17       1.0  0.13095582927771687  0.5666958798540236  0.1008155412641045  1.0000
  C   C18       1.0  0.030052008882833582  0.8991868608450064  0.4658528343979143  1.0000
  C   C19       1.0  0.3213052131706107  0.5180090311513795  0.5320161023405134  1.0000
  C   C20       1.0  0.789243025813363  0.4679994587920291  0.986012608548897  1.0000
  C   C21       1.0  0.8032784448895499  0.013980191612219502  0.48193222784330897  1.0000
  C   C22       1.0  0.678704608592568  0.4819766361492768  0.46795806643942933  1.0000
  C   C23       1.0  0.210763703664206  0.531986207331329  0.01397513908692372  1.0000
  C   C24       1.0  0.1967485097258788  0.9860246350356334  0.5180428341053016  1.0000
  C   C25       1.0  0.7355611947551778  0.6441674115754095  0.9083470579861481  1.0000
  C   C26       1.0  0.8275758355164343  0.09177003524796855  0.7359260621679695  1.0000
  C   C27       1.0  0.09119741224236583  0.26413373768554754  0.3556991139738344  1.0000
  C   C28       1.0  0.26428789350987353  0.35589179537696214  0.09185746093794477  1.0000
  C   C29       1.0  0.1724158104777445  0.9082118013071537  0.26401687491139836  1.0000
  C   C30       1.0  0.9088351826732293  0.7358588265700093  0.6442981771162267  1.0000
  O   O1        1.0  0.6849413530676784  0.35403673242350914  0.6167540134066626  1.0000
  O   O2        1.0  0.06827485904344852  0.3833028442604629  0.7372451642562297  1.0000
  O   O3        1.0  0.3310183729460547  0.26272664611529  0.6460045188793656  1.0000
  O   O4        1.0  0.3151057811503577  0.6459849520076233  0.3832617739798038  1.0000
  O   O5        1.0  0.931743131902671  0.616684355408019  0.26274142605920053  1.0000
  O   O6        1.0  0.6690007382698584  0.7372804787732152  0.3539730600924926  1.0000
  O   O7        1.0  0.9135697319932563  0.37592396260152566  0.5321396985866895  1.0000
  O   O8        1.0  0.3814340535703737  0.4678973883429408  0.8437612661642149  1.0000
  O   O9        1.0  0.5377651182221898  0.15626878910273231  0.6240762690041918  1.0000
  O   O10       1.0  0.08644872170350477  0.6240670690235675  0.46784280195165445  1.0000
  O   O11       1.0  0.6185771788304635  0.5320913430600314  0.1562314950713599  1.0000
  O   O12       1.0  0.46225397500114696  0.8437352707612433  0.37589725294319726  1.0000
  O   O13       1.0  0.3656399558732701  0.43710800921267906  0.6298911231636452  1.0000
  O   O14       1.0  0.7357741464125171  0.37005012317311536  0.8072385644224624  1.0000
  O   O15       1.0  0.9286856130313623  0.19274004808097087  0.5628625936109158  1.0000
  O   O16       1.0  0.6343815230875479  0.5628860877774572  0.37009366623448875  1.0000
  O   O17       1.0  0.2642383901255414  0.6299470384243548  0.1927470565505445  1.0000
  O   O18       1.0  0.07133002343942964  0.8072632444639115  0.43712149945222484  1.0000
  O   O19       1.0  0.7310633712548481  0.7021698615540474  0.9921275714488118  1.0000
  O   O20       1.0  0.7396243778440806  0.0079385322620666  0.7101603030393376  1.0000
  O   O21       1.0  0.028651468954606688  0.2897616089683055  0.2975713861402483  1.0000
  O   O22       1.0  0.2687234423685254  0.2978402947015582  0.008095197149785328  1.0000
  O   O23       1.0  0.2603764042161529  0.9920402415917167  0.289754900335204  1.0000
  O   O24       1.0  0.9714007540793476  0.7102370879912596  0.7024162925079621  1.0000
  O   O25       1.0  0.742807936864196  0.5875867338259226  0.8240291460864524  1.0000
  O   O26       1.0  0.9187957390405048  0.17614955880689817  0.7636576245633078  1.0000
  O   O27       1.0  0.15508917474148387  0.23653583637585035  0.4124004081382608  1.0000
  O   O28       1.0  0.2570905575946867  0.4125261187855003  0.17618663502538826  1.0000
  O   O29       1.0  0.08119704960920163  0.8238437712007  0.2363071629593706  1.0000
  O   O30       1.0  0.8449262943993858  0.7634582599797497  0.5875872614397223  1.0000
