data_image0
_chemical_formula_structural       U4H32C40N4O28
_chemical_formula_sum              "U4 H32 C40 N4 O28"
_cell_length_a       10.083491181089322
_cell_length_b       10.483814012229459
_cell_length_c       12.13193417479375
_cell_angle_alpha    104.71309971911374
_cell_angle_beta     90.00048447684112
_cell_angle_gamma    89.9998301845742

_space_group_name_H-M_alt    "P 1"
_space_group_IT_number       1

loop_
  _space_group_symop_operation_xyz
  'x, y, z'

loop_
  _atom_site_type_symbol
  _atom_site_label
  _atom_site_symmetry_multiplicity
  _atom_site_fract_x
  _atom_site_fract_y
  _atom_site_fract_z
  _atom_site_occupancy
  U   U1        1.0  0.5303569375990521  0.2611527319827118  0.8419443629802003  1.0000
  U   U2        1.0  0.030361541017363405  0.23885017554841426  0.6580498015560109  1.0000
  U   U3        1.0  0.4696316515109658  0.7388335341184629  0.15805904649771202  1.0000
  U   U4        1.0  0.9696458906970377  0.7611515610297133  0.34194351166895837  1.0000
  H   H1        1.0  0.45647056271216263  0.27373023235167426  0.6022021193367307  1.0000
  H   H2        1.0  0.9564676328453317  0.22628028275394738  0.8977953057087049  1.0000
  H   H3        1.0  0.5435329021486411  0.7262673192192961  0.3977950810626892  1.0000
  H   H4        1.0  0.04353583202853171  0.7737328720613091  0.10220915645894724  1.0000
  H   H5        1.0  0.34447899094588763  0.18685173585745224  0.6526816686052398  1.0000
  H   H6        1.0  0.8444722977660605  0.31316261134448803  0.8473200714105075  1.0000
  H   H7        1.0  0.6555244739034832  0.8131577211451243  0.3473169048132404  1.0000
  H   H8        1.0  0.1555242250694349  0.6868436460048598  0.15268263936750504  1.0000
  H   H9        1.0  0.9491456116848767  0.6742886793293575  0.6173167139156702  1.0000
  H   H10       1.0  0.4491353928972687  0.8257136432896954  0.8826794284379883  1.0000
  H   H11       1.0  0.0508667786600441  0.32570981699088714  0.38268155137058796  1.0000
  H   H12       1.0  0.5508581547643913  0.17427996687467126  0.11731677114719466  1.0000
  H   H13       1.0  0.8857260190230036  0.5436182768426576  0.7535005006745477  1.0000
  H   H14       1.0  0.3857209379768065  0.9563882432346913  0.7464921392974232  1.0000
  H   H15       1.0  0.11428537955993788  0.4563786547694093  0.2464891176038009  1.0000
  H   H16       1.0  0.6142835186467153  0.04360791698639589  0.2535129575244283  1.0000
  H   H17       1.0  0.7473718722606507  0.6472760378017168  0.9235465261269835  1.0000
  H   H18       1.0  0.2473604082851324  0.8527351593796552  0.5764537589556723  1.0000
  H   H19       1.0  0.2526474601058197  0.3527118226344541  0.07644491372894886  1.0000
  H   H20       1.0  0.7526450400374927  0.14727692888273217  0.42355208234639  1.0000
  H   H21       1.0  0.6661716017856847  0.8763179308676783  0.9500969983497283  1.0000
  H   H22       1.0  0.16617247698194862  0.6236879093136095  0.5498914592725794  1.0000
  H   H23       1.0  0.33382392934793603  0.12366652692393389  0.04990265211570489  1.0000
  H   H24       1.0  0.8338379298450462  0.37631722991778815  0.4500936432723036  1.0000
  H   H25       1.0  0.6209255297564339  0.47766848320400584  0.667923409199929  1.0000
  H   H26       1.0  0.1209325926554428  0.022341541191281112  0.8320872200448475  1.0000
  H   H27       1.0  0.37907991857215956  0.5223366669898935  0.332081495397439  1.0000
  H   H28       1.0  0.8790629384592988  0.9776676722165474  0.16791624131528227  1.0000
  H   H29       1.0  0.3609589062236934  0.3157430388091029  0.4034936361242386  1.0000
  H   H30       1.0  0.8609569796813404  0.18425654218287948  0.09650521693660608  1.0000
  H   H31       1.0  0.6390544758864749  0.6842609230304005  0.5965150916119767  1.0000
  H   H32       1.0  0.13906235272146722  0.8157555460736955  0.9035006244125081  1.0000
  C   C1        1.0  0.6884164832849677  0.031826734351461994  0.8119041693911909  1.0000
  C   C2        1.0  0.1884177079013227  0.46818113012439266  0.6880890588276926  1.0000
  C   C3        1.0  0.31157805610494893  0.9681677799658245  0.18809390971535572  1.0000
  C   C4        1.0  0.8115778231669635  0.5318275445272034  0.31190519106163345  1.0000
  C   C5        1.0  0.7591514713402175  0.9039294101567561  0.7980342075304631  1.0000
  C   C6        1.0  0.2591490352781634  0.5960790647070623  0.7019605188736121  1.0000
  C   C7        1.0  0.2408440598204251  0.09606560231667062  0.20197389771166735  1.0000
  C   C8        1.0  0.7408494709476302  0.4039227530741555  0.2980311649982638  1.0000
  C   C9        1.0  0.8426995233882764  0.8478264160426433  0.704700896818842  1.0000
  C   C10       1.0  0.34269390473357936  0.6521757520199358  0.7952994120028264  1.0000
  C   C11       1.0  0.1572969994933615  0.15216465501961096  0.2953062076460212  1.0000
  C   C12       1.0  0.6573055932309303  0.347819005893342  0.20469377915198805  1.0000
  C   C13       1.0  0.8983999544193609  0.9252425038549387  0.6277739264607757  1.0000
  C   C14       1.0  0.3984032999005223  0.5747557573983711  0.8722241298381446  1.0000
  C   C15       1.0  0.10159061813346429  0.0747496337618472  0.37223179885623375  1.0000
  C   C16       1.0  0.6015922311959444  0.4252418347755975  0.1277722558729692  1.0000
  C   C17       1.0  0.8862143407238252  0.7175810998894575  0.6899780615208184  1.0000
  C   C18       1.0  0.3862114439295539  0.7824204930150528  0.8100133307927277  1.0000
  C   C19       1.0  0.1137881324219521  0.28241345502419074  0.31001920295118873  1.0000
  C   C20       1.0  0.6137860705906776  0.2175743054987365  0.18997904569394555  1.0000
  C   C21       1.0  0.8512805210298352  0.644769103880641  0.767182356454846  1.0000
  C   C22       1.0  0.3512746218608386  0.8552374450111486  0.7328100500348355  1.0000
  C   C23       1.0  0.14872393552077057  0.35523070259303324  0.23280964170829316  1.0000
  C   C24       1.0  0.6487169423755716  0.14476487092952076  0.26719165994573757  1.0000
  C   C25       1.0  0.7734150281823631  0.7024534347818232  0.8616811335478898  1.0000
  C   C26       1.0  0.2734132963107001  0.7975590101604765  0.638313875659456  1.0000
  C   C27       1.0  0.22658843669216114  0.2975400535793611  0.1383175100551667  1.0000
  C   C28       1.0  0.7265802513555357  0.2024502844475364  0.3616879563711065  1.0000
  C   C29       1.0  0.7277957845367099  0.8314802212742689  0.8767281365203343  1.0000
  C   C30       1.0  0.22778735674871342  0.6685304535252498  0.6232628044105651  1.0000
  C   C31       1.0  0.272210655531083  0.16851589834631395  0.12327777496965805  1.0000
  C   C32       1.0  0.7722071825953164  0.3314782617264384  0.37673063081397357  1.0000
  C   C33       1.0  0.566368627566419  0.48842479591325355  0.5931055457620714  1.0000
  C   C34       1.0  0.06636955012709218  0.011587447825910098  0.9069011407458445  1.0000
  C   C35       1.0  0.43363781248071837  0.5115862663963497  0.40690086000961395  1.0000
  C   C36       1.0  0.9336279644324178  0.9884197542760377  0.09310263489211218  1.0000
  C   C37       1.0  0.4235057876713668  0.3981026642721517  0.4463115784813778  1.0000
  C   C38       1.0  0.9235046689343066  0.10189645840144117  0.05369584515359798  1.0000
  C   C39       1.0  0.576503627536539  0.6019054419781469  0.5536940767149118  1.0000
  C   C40       1.0  0.07649780425645501  0.8981045473845554  0.9463121319601695  1.0000
  N   N1        1.0  0.4898344989008763  0.38714318928300867  0.5390812232835741  1.0000
  N   N2        1.0  0.9898375280779702  0.11286672951526809  0.9609278331904176  1.0000
  N   N3        1.0  0.5101729328754914  0.6128648357687678  0.4609260612288394  1.0000
  N   N4        1.0  0.0101679202423739  0.8871375165252928  0.03907519188894778  1.0000
  O   O1        1.0  0.6282652159632178  0.05712233936091589  0.7273549297943162  1.0000
  O   O2        1.0  0.1282614370572901  0.44288368592831523  0.7726357609752909  1.0000
  O   O3        1.0  0.37172833169216085  0.9428624838286197  0.27263738871159393  1.0000
  O   O4        1.0  0.8717291353994269  0.5571201837609507  0.22735479393715957  1.0000
  O   O5        1.0  0.6777519099250853  0.11223201121619297  0.9109365494836509  1.0000
  O   O6        1.0  0.17777319340725484  0.38775960933318737  0.589062379330805  1.0000
  O   O7        1.0  0.3222297371904973  0.887741039306171  0.08907175404790016  1.0000
  O   O8        1.0  0.8222282879778434  0.6122451645048483  0.41093005513662445  1.0000
  O   O9        1.0  0.9056916271038064  0.04988608571751027  0.6627836474743275  1.0000
  O   O10       1.0  0.40569344749741293  0.45011421233970567  0.837219078058517  1.0000
  O   O11       1.0  0.0943227467715317  0.9501066312452408  0.3372304747327276  1.0000
  O   O12       1.0  0.5943100173798895  0.5498851475379282  0.16278188137691518  1.0000
  O   O13       1.0  0.9442378480678287  0.8618278099821166  0.5312705860043392  1.0000
  O   O14       1.0  0.44423802075910857  0.6381744355386373  0.9687271524414239  1.0000
  O   O15       1.0  0.05575074099833441  0.13818148462796387  0.46873124600941196  1.0000
  O   O16       1.0  0.5557475931414757  0.3618231160397939  0.03127004789750027  1.0000
  O   O17       1.0  0.4391693797412515  0.21139453247768356  0.6543153828728163  1.0000
  O   O18       1.0  0.939167704614178  0.2886137015972777  0.8456879418065312  1.0000
  O   O19       1.0  0.5608321016787912  0.7886059751521799  0.3456825681053671  1.0000
  O   O20       1.0  0.060829809940841514  0.7113945264570347  0.15431526936515638  1.0000
  O   O21       1.0  0.3878193168421973  0.17374812144939258  0.876511836358169  1.0000
  O   O22       1.0  0.887848961345604  0.32625964645048094  0.6234613121632363  1.0000
  O   O23       1.0  0.6121543963151055  0.8262553312897293  0.12346706304207787  1.0000
  O   O24       1.0  0.1121574786727066  0.6737310482501115  0.3765333222187407  1.0000
  O   O25       1.0  0.675807253192346  0.3494646519904449  0.8102141846803546  1.0000
  O   O26       1.0  0.17581840708884763  0.1505443005415046  0.6897973810455225  1.0000
  O   O27       1.0  0.3241783607889134  0.6505321281941148  0.1897984942255987  1.0000
  O   O28       1.0  0.8241860495237318  0.8494617944058188  0.3102085884050679  1.0000
