data_image0
_chemical_formula_structural       CuH18C16N4O4
_chemical_formula_sum              "Cu1 H18 C16 N4 O4"
_cell_length_a       5.838201726864976
_cell_length_b       8.304617485608905
_cell_length_c       8.614108281950664
_cell_angle_alpha    89.78984855163121
_cell_angle_beta     101.57646548786582
_cell_angle_gamma    93.99306322358838

_space_group_name_H-M_alt    "P 1"
_space_group_IT_number       1

loop_
  _space_group_symop_operation_xyz
  'x, y, z'

loop_
  _atom_site_type_symbol
  _atom_site_label
  _atom_site_symmetry_multiplicity
  _atom_site_fract_x
  _atom_site_fract_y
  _atom_site_fract_z
  _atom_site_occupancy
  Cu  Cu1       1.0  0.16062872342065757  0.9618469784607838  0.7565367181556724  1.0000
  H   H1        1.0  0.5775380626024997  0.3056681671819775  0.4020293204081469  1.0000
  H   H2        1.0  0.6463317405731033  0.5764645859076013  0.2867733505465111  1.0000
  H   H3        1.0  0.368688485361261  0.5758927157107508  0.5283904153239759  1.0000
  H   H4        1.0  0.2666992307465108  0.31302770939754504  0.6449184950741438  1.0000
  H   H5        1.0  0.8998044018346077  0.7910015093565191  0.23928934474479746  1.0000
  H   H6        1.0  0.1911938239796172  0.7402278005169761  0.24329783092365884  1.0000
  H   H7        1.0  0.1969229572724629  0.0041407051379281  0.35038142840316056  1.0000
  H   H8        1.0  0.7239291579516235  0.6960854127754532  0.7112601696927284  1.0000
  H   H9        1.0  0.5986625249622293  0.43664021687252597  0.8275560943803129  1.0000
  H   H10       1.0  0.2968175230641421  0.4324803692984886  0.109447073213147  1.0000
  H   H11       1.0  0.39323913047608977  0.6950619034297034  0.9836323147144909  1.0000
  H   H12       1.0  0.6757576407384248  0.23766789847820757  0.03259342390058612  1.0000
  H   H13       1.0  0.9316152481741399  0.26570135370865705  0.182881123699957  1.0000
  H   H14       1.0  0.8883383116596947  0.001673681333372206  0.053887901542907506  1.0000
  H   H15       1.0  0.847219571115147  0.8804344663784535  0.5109427126748471  1.0000
  H   H16       1.0  0.9576881498904939  0.06829183008516539  0.5071491888408843  1.0000
  H   H17       1.0  0.8934970228590445  0.1811823940385011  0.760966291381429  1.0000
  H   H18       1.0  0.7402098865868467  0.013328837035494699  0.7912902007098025  1.0000
  C   C1        1.0  0.7490147137427385  0.37189833025396263  0.432346327257541  1.0000
  C   C2        1.0  0.7893603113475647  0.5214196016889759  0.36515695722167146  1.0000
  C   C3        1.0  0.013560080067605873  0.600801555623775  0.3973916098703896  1.0000
  C   C4        1.0  0.18898674754952793  0.5234350107225865  0.5005165183853819  1.0000
  C   C5        1.0  0.13259572987372792  0.3756617263419315  0.5645280744589556  1.0000
  C   C6        1.0  0.06225810708708928  0.7579899790411629  0.3177372936927796  1.0000
  C   C7        1.0  0.16272460709981124  0.9023813548655328  0.4273969911257325  1.0000
  C   C8        1.0  0.40536892946700925  0.8744785028103692  0.5254000687468405  1.0000
  C   C9        1.0  0.8466994288990077  0.6338077559426339  0.7997075301294457  1.0000
  C   C10       1.0  0.7782368148538125  0.48858978367783834  0.8645789814169333  1.0000
  C   C11       1.0  0.9383248984187631  0.4116025071101603  0.9788981916065963  1.0000
  C   C12       1.0  0.1654846410242072  0.4868864524555363  0.0206427711410484  1.0000
  C   C13       1.0  0.2193099051572531  0.6322809638091228  0.9506469448476338  1.0000
  C   C14       1.0  0.8673897919429193  0.2572560799482204  0.054120585095716905  1.0000
  C   C15       1.0  0.9656568858776564  0.1057583946912857  0.9976256247482026  1.0000
  C   C16       1.0  0.23442390770581775  0.10278164847258608  0.05615928997856661  1.0000
  N   N1        1.0  0.9175538460909465  0.2990137907789149  0.5318381833941926  1.0000
  N   N2        1.0  0.004469055435969035  0.9511779723447307  0.5289923052031255  1.0000
  N   N3        1.0  0.06353697553956292  0.706347418487816  0.842165466275844  1.0000
  N   N4        1.0  0.9014677255558181  0.07634141519739053  0.8253891950190564  1.0000
  O   O1        1.0  0.4465528808579293  0.9136242807575455  0.6743259617908491  1.0000
  O   O2        1.0  0.5528166979579153  0.8185417391112679  0.45689232833802146  1.0000
  O   O3        1.0  0.3263509366057775  0.157502913342725  0.1905801533532099  1.0000
  O   O4        1.0  0.34919273715192395  0.03811917431946199  0.9613347145524072  1.0000
