data_image0
_chemical_formula_structural       Ag4H28C24N8O12
_chemical_formula_sum              "Ag4 H28 C24 N8 O12"
_cell_length_a       7.158436995369223
_cell_length_b       9.908172725862288
_cell_length_c       12.268921219577223
_cell_angle_alpha    110.50574124188275
_cell_angle_beta     90.93267487068846
_cell_angle_gamma    100.07969563635974

_space_group_name_H-M_alt    "P 1"
_space_group_IT_number       1

loop_
  _space_group_symop_operation_xyz
  'x, y, z'

loop_
  _atom_site_type_symbol
  _atom_site_label
  _atom_site_symmetry_multiplicity
  _atom_site_fract_x
  _atom_site_fract_y
  _atom_site_fract_z
  _atom_site_occupancy
  Ag  Ag1       1.0  0.4633760267690831  0.6244043082039284  0.739210010286598  1.0000
  Ag  Ag2       1.0  0.536620596448998  0.3755939857465763  0.26078705764482635  1.0000
  Ag  Ag3       1.0  0.9254101939849594  0.5435620362207347  0.22386446231547558  1.0000
  Ag  Ag4       1.0  0.07457881105492704  0.4564457809784131  0.7761428105809429  1.0000
  H   H1        1.0  0.06003795853821723  0.891566847023015  0.7916951181536832  1.0000
  H   H2        1.0  0.9399622578882615  0.10841904596534856  0.20830305142074218  1.0000
  H   H3        1.0  0.14911355510965055  0.7984693043892721  0.8526560011167632  1.0000
  H   H4        1.0  0.8508792669734432  0.20151474030486588  0.14733965501728366  1.0000
  H   H5        1.0  0.8115697384360063  0.9100474697477882  0.7035156693168291  1.0000
  H   H6        1.0  0.1884425917909454  0.08995785061857484  0.2964889656065424  1.0000
  H   H7        1.0  0.8186785083953225  0.05904749640688322  0.8151620751653965  1.0000
  H   H8        1.0  0.18134362516981642  0.9409551036108398  0.18484566745549103  1.0000
  H   H9        1.0  0.609092436279461  0.39394934332593584  0.7986026224344228  1.0000
  H   H10       1.0  0.39090564937341554  0.606054515037144  0.20139922418010064  1.0000
  H   H11       1.0  0.8156437989434764  0.8076591703511371  0.1610603254725334  1.0000
  H   H12       1.0  0.1843493024160167  0.19233474279440801  0.8389297021277855  1.0000
  H   H13       1.0  0.7219951076357134  0.914120341356309  0.9247971204263549  1.0000
  H   H14       1.0  0.27800532753693125  0.08588300984902732  0.0751859180154284  1.0000
  H   H15       1.0  0.49050956270796314  0.8683678074670667  0.9664523405180246  1.0000
  H   H16       1.0  0.5094764420580731  0.13162632667389573  0.0335283620270701  1.0000
  H   H17       1.0  0.6821449153371759  0.9643009834007756  0.07715499740567118  1.0000
  H   H18       1.0  0.3178391952536684  0.03571694513151871  0.922843973822303  1.0000
  H   H19       1.0  0.35542096945664536  0.8264542070301248  0.6146178123474542  1.0000
  H   H20       1.0  0.6445960345501616  0.17354178870464668  0.38537814315682073  1.0000
  H   H21       1.0  0.08833326081018102  0.3422474749488558  0.3310282032553573  1.0000
  H   H22       1.0  0.9116553884938553  0.6577514478462874  0.6689775850206345  1.0000
  H   H23       1.0  0.01511694911047817  0.8444894517997881  0.42642878571165  1.0000
  H   H24       1.0  0.984886283085153  0.1555240982839692  0.5735725587437627  1.0000
  H   H25       1.0  0.19863227121482657  0.8211659616222065  0.3293948162183966  1.0000
  H   H26       1.0  0.8013730142397505  0.17883412541467447  0.6706056378737344  1.0000
  H   H27       1.0  0.2529679391509704  0.9364991980121292  0.47969384654842173  1.0000
  H   H28       1.0  0.7470398302687329  0.06350623293396043  0.5203032087604029  1.0000
  C   C1        1.0  0.6571450417835932  0.4870864275908176  0.8791909556355434  1.0000
  C   C2        1.0  0.34284083408062577  0.5129103048838533  0.12080839538796084  1.0000
  C   C3        1.0  0.7439003395335957  0.46794262225851924  0.9738076869942064  1.0000
  C   C4        1.0  0.25608658760896935  0.5320741777099942  0.02619850733531595  1.0000
  C   C5        1.0  0.7680463291897581  0.7151090148637423  0.0799050454922963  1.0000
  C   C6        1.0  0.2319520028258992  0.28489500879484814  0.9201058513089676  1.0000
  C   C7        1.0  0.6803339158639048  0.7360291806380559  0.9853997722318794  1.0000
  C   C8        1.0  0.3196728617524868  0.26395212132906204  0.014609842200798093  1.0000
  C   C9        1.0  0.6426829773686437  0.8797830656506138  0.9902116090426742  1.0000
  C   C10       1.0  0.3573205515007203  0.12019144452368381  0.009782184513881003  1.0000
  C   C11       1.0  0.7784550271304906  0.3171272629228383  0.9638238536826903  1.0000
  C   C12       1.0  0.22154713680237856  0.6828631322293505  0.0361829367424278  1.0000
  C   C13       1.0  0.29751329557469575  0.7188031839829139  0.5499314598183888  1.0000
  C   C14       1.0  0.7024981420237424  0.2811997585531074  0.4500627040929857  1.0000
  C   C15       1.0  0.25502156788959957  0.46590809350061607  0.49687692399455596  1.0000
  C   C16       1.0  0.744973437864367  0.5340936406930015  0.5031209386073954  1.0000
  C   C17       1.0  0.15406747535264742  0.4504907168555621  0.393371543503612  1.0000
  C   C18       1.0  0.8459190036654007  0.5495115470381863  0.6066284424960813  1.0000
  C   C19       1.0  0.19715319682137533  0.7045363819954887  0.44628693391049273  1.0000
  C   C20       1.0  0.8028507098778945  0.2954659177402377  0.5537091068330184  1.0000
  C   C21       1.0  0.16567426755204212  0.8344220834874819  0.4194060462870155  1.0000
  C   C22       1.0  0.834329255173472  0.16558478472709484  0.5805952343732343  1.0000
  C   C23       1.0  0.2842126821615594  0.331148582975871  0.5244310416611668  1.0000
  C   C24       1.0  0.7157788006786205  0.6688522986932242  0.4755696804406497  1.0000
  N   N1        1.0  0.6241752417060766  0.6189342480528738  0.8855304327206427  1.0000
  N   N2        1.0  0.37582370577209906  0.38105522842377587  0.11447676396441861  1.0000
  N   N3        1.0  0.7972548012665541  0.5830978479883274  0.07436488980774675  1.0000
  N   N4        1.0  0.20273254319731387  0.4169167283381796  0.9256423919101379  1.0000
  N   N5        1.0  0.32271839989370227  0.601903136901477  0.5751175193381286  1.0000
  N   N6        1.0  0.6772896513467258  0.39809774761609173  0.4248751138006027  1.0000
  N   N7        1.0  0.12218659128988922  0.5680695910758331  0.3699486241661774  1.0000
  N   N8        1.0  0.8777970454828576  0.43193284938462995  0.630052069632768  1.0000
  O   O1        1.0  0.7390500327927327  0.21893407739127477  0.8636756266412675  1.0000
  O   O2        1.0  0.26095756821276694  0.781059327612411  0.13633059782957704  1.0000
  O   O3        1.0  0.8435196702068098  0.304296612836744  0.055717499048050505  1.0000
  O   O4        1.0  0.1564853313166381  0.6957150771895257  0.9443071768761157  1.0000
  O   O5        1.0  0.25658449230433433  0.2107329717969223  0.4398689944621453  1.0000
  O   O6        1.0  0.7434158237308566  0.789267314021025  0.5601271510020069  1.0000
  O   O7        1.0  0.33260864479940727  0.35107162035442485  0.6299869520865541  1.0000
  O   O8        1.0  0.6673712314059373  0.6489276668453388  0.3700119094004394  1.0000
  O   O9        1.0  0.15709521463145398  0.8287131893293138  0.7842595398587234  1.0000
  O   O10       1.0  0.8429139951289953  0.17127891087191938  0.21574153156667114  1.0000
  O   O11       1.0  0.8687758200651531  0.9662876461027284  0.7839775702745656  1.0000
  O   O12       1.0  0.13126053194655898  0.033722822240257216  0.2160198855304003  1.0000
