data_image0
_chemical_formula_structural       Co2P2H38C44N8O6
_chemical_formula_sum              "Co2 P2 H38 C44 N8 O6"
_cell_length_a       9.769965487062771
_cell_length_b       10.344570149707152
_cell_length_c       11.040421109619441
_cell_angle_alpha    69.53760816630528
_cell_angle_beta     78.27706461629961
_cell_angle_gamma    81.60114528151188

_space_group_name_H-M_alt    "P 1"
_space_group_IT_number       1

loop_
  _space_group_symop_operation_xyz
  'x, y, z'

loop_
  _atom_site_type_symbol
  _atom_site_label
  _atom_site_symmetry_multiplicity
  _atom_site_fract_x
  _atom_site_fract_y
  _atom_site_fract_z
  _atom_site_occupancy
  Co  Co1       1.0  0.5984037035435886  0.8920056928040484  0.3763357134226836  1.0000
  Co  Co2       1.0  0.40159263547904794  0.10799228914763863  0.6236698761529453  1.0000
  P   P1        1.0  0.6853273955153866  0.9105652027666694  0.6325128844602902  1.0000
  P   P2        1.0  0.31466794837628237  0.08943188447668861  0.3674886296019721  1.0000
  H   H1        1.0  0.6934072134905306  0.8031807034349683  0.7540442563311204  1.0000
  H   H2        1.0  0.30659026802754136  0.1968152620778341  0.2459572292172041  1.0000
  H   H3        1.0  0.3709810250759488  0.7083872922329277  0.04443698987638808  1.0000
  H   H4        1.0  0.6290005319962475  0.2916159176871318  0.9555469355953222  1.0000
  H   H5        1.0  0.5331405998419709  0.28141747251301313  0.18387087466017252  1.0000
  H   H6        1.0  0.4668490763325862  0.7185914581562827  0.8161161785868885  1.0000
  H   H7        1.0  0.28883746683992934  0.5506388282804336  0.27540724838204517  1.0000
  H   H8        1.0  0.7111666514014273  0.44937446886721233  0.724584955108604  1.0000
  H   H9        1.0  0.37792421066715315  0.383513851712685  0.3348829515311422  1.0000
  H   H10       1.0  0.6220726816649034  0.6164979132101962  0.6651001336904798  1.0000
  H   H11       1.0  0.39169243040179674  0.7588814301731264  0.2787643519758303  1.0000
  H   H12       1.0  0.6083114639954913  0.24111117014801664  0.7212370480306944  1.0000
  H   H13       1.0  0.8527168581430329  0.6443537254862831  0.4354744078272077  1.0000
  H   H14       1.0  0.14728615896049035  0.355634820244518  0.5645265967312838  1.0000
  H   H15       1.0  0.9616393867742585  0.3989224704049549  0.4904330732058497  1.0000
  H   H16       1.0  0.03836454917342987  0.6010690957556266  0.5095686412117288  1.0000
  H   H17       1.0  0.8411441368715484  0.21371438776368737  0.472262378023892  1.0000
  H   H18       1.0  0.15884298958415846  0.7862775345548201  0.5277585007866038  1.0000
  H   H19       1.0  0.6146232179017302  0.267440127788241  0.386544028200703  1.0000
  H   H20       1.0  0.38536294361676227  0.7325497699941509  0.6134776508944172  1.0000
  H   H21       1.0  0.23790196010052256  0.3776101861844055  0.978631728947512  1.0000
  H   H22       1.0  0.7621418087718156  0.622378394984004  0.021377468466994193  1.0000
  H   H23       1.0  0.8009002803069619  0.3763787982889538  0.15232047731304024  1.0000
  H   H24       1.0  0.19914850216629523  0.6236159602522806  0.8476768535487551  1.0000
  H   H25       1.0  0.14294790713783098  0.16385864507809345  0.11104695535654939  1.0000
  H   H26       1.0  0.8570561071751964  0.8361050807993211  0.8889615950673927  1.0000
  H   H27       1.0  0.0571142155695199  0.19426254655548558  0.2566060993872767  1.0000
  H   H28       1.0  0.94289952667377  0.8057193180951004  0.7433969015673656  1.0000
  H   H29       1.0  0.8721331017822676  0.038112822552967905  0.37518520677115674  1.0000
  H   H30       1.0  0.12785893633645878  0.9618885709545066  0.6248137394795847  1.0000
  H   H31       1.0  0.6029371693795084  0.9382927930245091  0.08009048842130542  1.0000
  H   H32       1.0  0.3970477955963218  0.06172855051045193  0.9199016882394914  1.0000
  H   H33       1.0  0.675931477459258  0.032693747956940925  0.8369097050527188  1.0000
  H   H34       1.0  0.32405566669337554  0.9673254396869096  0.16308275750520804  1.0000
  H   H35       1.0  0.8738763806418531  0.1800145322568198  0.7393844879772615  1.0000
  H   H36       1.0  0.12611716276202856  0.8200011753946795  0.26061336270317537  1.0000
  H   H37       1.0  0.006236824485881693  0.24258378330404184  0.8801823233084961  1.0000
  H   H38       1.0  0.9937551561831485  0.7574185104298651  0.11982269447288732  1.0000
  C   C1        1.0  0.42782603935719976  0.6168310373928422  0.02521122317128287  1.0000
  C   C2        1.0  0.5721701305260324  0.3831724406302257  0.9747772856334791  1.0000
  C   C3        1.0  0.4455225408052286  0.49420854814854226  0.1294661751177414  1.0000
  C   C4        1.0  0.5544829344975355  0.5057976191577751  0.8705207595687484  1.0000
  C   C5        1.0  0.5183836200248707  0.3773572331177491  0.10334169940714584  1.0000
  C   C6        1.0  0.48161351252424817  0.6226482503079895  0.8966469213903849  1.0000
  C   C7        1.0  0.39053929545673327  0.4902216975510856  0.2686646421398605  1.0000
  C   C8        1.0  0.6094585436419065  0.5097919388403371  0.7313249410162327  1.0000
  C   C9        1.0  0.47958268625322376  0.6852466837523041  0.30826389920969893  1.0000
  C   C10       1.0  0.5204240130409232  0.31475400109796686  0.6917372079529969  1.0000
  C   C11       1.0  0.6760742805388559  0.5918349101516327  0.3770390279827893  1.0000
  C   C12       1.0  0.3239349235212785  0.40815528812272817  0.6229676171976806  1.0000
  C   C13       1.0  0.8040332060595218  0.5625056862433482  0.42286617983365465  1.0000
  C   C14       1.0  0.19596875846333717  0.4374828650055633  0.5771368207421049  1.0000
  C   C15       1.0  0.8621762963311497  0.4259436693542541  0.4540779362707709  1.0000
  C   C16       1.0  0.13782046500943318  0.5740440283921942  0.5459280605833073  1.0000
  C   C17       1.0  0.7950678879780638  0.3205185625097045  0.4415121016581196  1.0000
  C   C18       1.0  0.20493081526007725  0.6794719014136064  0.5585044686438039  1.0000
  C   C19       1.0  0.6683443693656554  0.34908128555420603  0.3937321484074019  1.0000
  C   C20       1.0  0.33164173403665126  0.6509108910172119  0.6062788668143497  1.0000
  C   C21       1.0  0.6110380424886586  0.4863862077376027  0.3608070598519504  1.0000
  C   C22       1.0  0.38895745851927893  0.5136066663297357  0.6391993609640992  1.0000
  C   C23       1.0  0.13317397740130588  0.43085979675413455  0.9886188625066766  1.0000
  C   C24       1.0  0.8668635675066766  0.5691282042981741  0.011382555320018594  1.0000
  C   C25       1.0  0.021729102929981495  0.3599908675373059  0.07531541684667077  1.0000
  C   C26       1.0  0.9782955837544876  0.640004974592671  0.9246822085430323  1.0000
  C   C27       1.0  0.8886057908439254  0.4303487977716147  0.08554914999363915  1.0000
  C   C28       1.0  0.11142489548712575  0.5696540399057213  0.9144443334662569  1.0000
  C   C29       1.0  0.045696875388209386  0.2096429669427735  0.15522295012749512  1.0000
  C   C30       1.0  0.9543146506705396  0.7903421260263741  0.8447776259641913  1.0000
  C   C31       1.0  0.8532181499575697  0.053520214761519504  0.2763470924602984  1.0000
  C   C32       1.0  0.14677288394487678  0.9464802075038466  0.7236514273866135  1.0000
  C   C33       1.0  0.7659577577291613  0.035908691835722095  0.11577842807371048  1.0000
  C   C34       1.0  0.23402928288072636  0.9641123919282181  0.8842216161585695  1.0000
  C   C35       1.0  0.6901635347367544  0.003636864575717895  0.03692909442255403  1.0000
  C   C36       1.0  0.3098192374343043  0.9963865200496684  0.9630682700054365  1.0000
  C   C37       1.0  0.73142700606558  0.057217996649711715  0.9016001697134187  1.0000
  C   C38       1.0  0.2685599303350726  0.9428063617969259  0.09839072078920441  1.0000
  C   C39       1.0  0.8442953675348335  0.14201745950968817  0.8458213072255845  1.0000
  C   C40       1.0  0.15569917554267218  0.8579991811170304  0.15417879441345403  1.0000
  C   C41       1.0  0.9195933734773548  0.17660240265181668  0.9232414022483012  1.0000
  C   C42       1.0  0.08040171429795609  0.8234008321545473  0.07676096217975464  1.0000
  C   C43       1.0  0.8787472344283386  0.1213908728497159  0.058921437214934355  1.0000
  C   C44       1.0  0.12124854105937287  0.8786217404173587  0.9410724523867627  1.0000
  N   N1        1.0  0.4867763892587433  0.5506023796850741  0.31612503457289887  1.0000
  N   N2        1.0  0.5132232321570667  0.44939248323062503  0.6838755101841016  1.0000
  N   N3        1.0  0.590200667181051  0.7146406757879619  0.3444666743455045  1.0000
  N   N4        1.0  0.4098041551457072  0.2853550214967484  0.6555317864105562  1.0000
  N   N5        1.0  0.9304513512880986  0.13028456497538343  0.16373261982204212  1.0000
  N   N6        1.0  0.0695395995135542  0.8697179256110986  0.8362652712027482  1.0000
  N   N7        1.0  0.7526321334696957  0.9959235872961827  0.2518691964311941  1.0000
  N   N8        1.0  0.24735650214733335  0.004084065995847702  0.7481320268502217  1.0000
  O   O1        1.0  0.6167569646313779  0.840830326388378  0.5572896959132053  1.0000
  O   O2        1.0  0.3832320796756221  0.15916692789772915  0.4427174083109691  1.0000
  O   O3        1.0  0.8297701228586687  0.9569277090559184  0.570718016821914  1.0000
  O   O4        1.0  0.17022418208031098  0.043069498506227405  0.42928001959329987  1.0000
  O   O5        1.0  0.5799471045332325  0.02400730888970771  0.67054450903764  1.0000
  O   O6        1.0  0.4200452062676375  0.9759866924262899  0.32946393630960796  1.0000
