data_image0
_chemical_formula_structural       Zn2H15C16N2O8F
_chemical_formula_sum              "Zn2 H15 C16 N2 O8 F1"
_cell_length_a       9.792716603542052
_cell_length_b       11.14614946156972
_cell_length_c       11.165723646023574
_cell_angle_alpha    91.19868064626306
_cell_angle_beta     93.7340666798297
_cell_angle_gamma    82.87202541840287

_space_group_name_H-M_alt    "P 1"
_space_group_IT_number       1

loop_
  _space_group_symop_operation_xyz
  'x, y, z'

loop_
  _atom_site_type_symbol
  _atom_site_label
  _atom_site_symmetry_multiplicity
  _atom_site_fract_x
  _atom_site_fract_y
  _atom_site_fract_z
  _atom_site_occupancy
  Zn  Zn1       1.0  0.6439609951513461  0.48707171818725936  0.5101738816454358  1.0000
  Zn  Zn2       1.0  0.35927496515751756  0.4981304227056995  0.49302706943922897  1.0000
  H   H1        1.0  0.4431818046415684  0.11346678173170938  0.340513589698233  1.0000
  H   H2        1.0  0.9145606004104252  0.4878972070597527  0.5898867170442799  1.0000
  H   H3        1.0  0.09277763624882596  0.5692252970092612  0.5213201688175458  1.0000
  H   H4        1.0  0.40860630148763016  0.9041592345741518  0.5534982044742307  1.0000
  H   H5        1.0  0.3033630251496716  0.5272597364922119  0.10147917131283178  1.0000
  H   H6        1.0  0.6108536329553474  0.4282674207685132  0.1007729575324277  1.0000
  H   H7        1.0  0.3019266838980528  0.4868747817833848  0.8801248940808933  1.0000
  H   H8        1.0  0.6050021702723782  0.5347786010750255  0.9097987694494307  1.0000
  H   H9        1.0  0.8617314024415845  0.427112164209447  0.33642887347183853  1.0000
  H   H10       1.0  0.06081607529348787  0.2685654444549854  0.3080186688743112  1.0000
  H   H11       1.0  0.19208964171662046  0.3591841035220894  0.2725335594503591  1.0000
  H   H12       1.0  0.2188760175163011  0.2693882770170433  0.4008105956374237  1.0000
  H   H13       1.0  0.538214797104601  0.9270804365425177  0.20947765426824813  1.0000
  H   H14       1.0  0.6946907756535126  0.8920110792392818  0.2962622882678261  1.0000
  H   H15       1.0  0.5795085980465302  0.7806936731037553  0.2754756252166572  1.0000
  C   C1        1.0  0.5014167349165746  0.5098537280519153  0.7331715405333625  1.0000
  C   C2        1.0  0.511546315046786  0.4630952613778021  0.1350310517527333  1.0000
  C   C3        1.0  0.3991442028396434  0.49871447355270243  0.9303079114645385  1.0000
  C   C4        1.0  0.5070959540637714  0.5153487891520285  0.8661569033220005  1.0000
  C   C5        1.0  0.9223083089844547  0.4453030305976854  0.4197144771083998  1.0000
  C   C6        1.0  0.07559936161577949  0.42758310489973184  0.41871099670755996  1.0000
  C   C7        1.0  0.47696401146204437  0.7250194847137834  0.48240353212356984  1.0000
  C   C8        1.0  0.5061584717682379  0.4688513946499028  0.2674815322056503  1.0000
  C   C9        1.0  0.5352506292574333  0.25672152715816304  0.5139407228378587  1.0000
  C   C10       1.0  0.4670992912365932  0.8589723728686349  0.48196477859973896  1.0000
  C   C11       1.0  0.5160724878950376  0.9264324690476753  0.3994433929746605  1.0000
  C   C12       1.0  0.5484707526109246  0.121265604932141  0.5061945365906411  1.0000
  C   C13       1.0  0.49714219652238967  0.058868292938399215  0.41333737920544417  1.0000
  C   C14       1.0  0.4006791604365245  0.4985243547327515  0.06025263404077209  1.0000
  C   C15       1.0  0.1382873747722115  0.3241954461335794  0.34549225912359555  1.0000
  C   C16       1.0  0.585179393409021  0.8775335609189837  0.289177795716725  1.0000
  N   N1        1.0  0.8552018713341737  0.4760623894454453  0.5121194383191181  1.0000
  N   N2        1.0  0.14902000346592092  0.49951694686311027  0.47799764971182407  1.0000
  O   O1        1.0  0.6121530427526595  0.5286334809360156  0.6855123066071797  1.0000
  O   O2        1.0  0.39031595655946916  0.4860573235956877  0.6766514947606908  1.0000
  O   O3        1.0  0.5919632287401554  0.6638405590544352  0.4604627802610821  1.0000
  O   O4        1.0  0.368402390279833  0.6806038089594963  0.5080324469914643  1.0000
  O   O5        1.0  0.6206818411358411  0.4404257732232963  0.32840040915026947  1.0000
  O   O6        1.0  0.3902138503657042  0.5015815956530716  0.31147057674839823  1.0000
  O   O7        1.0  0.6411842570860459  0.30474785780393177  0.5507047039873072  1.0000
  O   O8        1.0  0.4178542774195648  0.31137194753348746  0.47923273878421924  1.0000
  F   F1        1.0  0.6280490938329919  0.06481645428475961  0.5979283827522366  1.0000
