data_image0
_chemical_formula_structural       Cu2H24C16S2N4O10
_chemical_formula_sum              "Cu2 H24 C16 S2 N4 O10"
_cell_length_a       5.169862622147414
_cell_length_b       9.950744647293908
_cell_length_c       11.074018303553208
_cell_angle_alpha    103.90322077457601
_cell_angle_beta     89.99983597930766
_cell_angle_gamma    89.9991783448186

_space_group_name_H-M_alt    "P 1"
_space_group_IT_number       1

loop_
  _space_group_symop_operation_xyz
  'x, y, z'

loop_
  _atom_site_type_symbol
  _atom_site_label
  _atom_site_symmetry_multiplicity
  _atom_site_fract_x
  _atom_site_fract_y
  _atom_site_fract_z
  _atom_site_occupancy
  Cu  Cu1       1.0  0.27976504504579947  0.6701716341267385  0.6704972322121918  1.0000
  Cu  Cu2       1.0  0.7797439170278367  0.32982130013685657  0.3294942009895863  1.0000
  H   H1        1.0  0.90509754343924  0.504317691566257  0.6200011122387892  1.0000
  H   H2        1.0  0.40510086492412256  0.4956990601538249  0.37999822474781547  1.0000
  H   H3        1.0  0.7922237423701688  0.47387353778528035  0.8147550984594573  1.0000
  H   H4        1.0  0.29222205218279373  0.5261441649510559  0.18523911996842202  1.0000
  H   H5        1.0  0.44856214388288856  0.923253473080777  0.8476200078921393  1.0000
  H   H6        1.0  0.9485631393017114  0.07674517312236868  0.1523942354406671  1.0000
  H   H7        1.0  0.10250485885367769  0.29464450624148947  0.5788112236625906  1.0000
  H   H8        1.0  0.6025517445182017  0.7053550194054806  0.42118271601986373  1.0000
  H   H9        1.0  0.1278708770307446  0.4692560345033384  0.9696956887907504  1.0000
  H   H10       1.0  0.6278756612476784  0.5307495966094606  0.030287848328988773  1.0000
  H   H11       1.0  0.34686985087510186  0.5657242620380103  0.8966616164879753  1.0000
  H   H12       1.0  0.8468921948646154  0.4342827093519546  0.10332295011945553  1.0000
  H   H13       1.0  0.6355393773401588  0.11078088869118831  0.9490642481848396  1.0000
  H   H14       1.0  0.13553251948983558  0.8892346963242517  0.050962131634044325  1.0000
  H   H15       1.0  0.7782382907348903  0.2225249535446352  0.8634076430436721  1.0000
  H   H16       1.0  0.27825705148428165  0.7774709412505417  0.13660341303510393  1.0000
  H   H17       1.0  0.9753282118020932  0.09957043555634469  0.9131776499171095  1.0000
  H   H18       1.0  0.47533814610320485  0.9004208913243588  0.08681778822543858  1.0000
  H   H19       1.0  0.879429706642206  0.9165943096912843  0.5897891479032112  1.0000
  H   H20       1.0  0.3794481891031012  0.08341841709233931  0.4102201511938972  1.0000
  H   H21       1.0  0.0875327160777601  0.03997411894791009  0.6869600467734854  1.0000
  H   H22       1.0  0.5875579072801004  0.960024461748702  0.3130373067984422  1.0000
  H   H23       1.0  0.8216832483822002  0.09911574379942317  0.610063997243131  1.0000
  H   H24       1.0  0.321713822663405  0.9008849859712952  0.38994719623163115  1.0000
  C   C1        1.0  0.9687576015363959  0.5337831520619288  0.8084515611182183  1.0000
  C   C2        1.0  0.468753667710736  0.4662227136738863  0.19154801606264726  1.0000
  C   C3        1.0  0.5524840976520834  0.9188778845814408  0.7601916388171617  1.0000
  C   C4        1.0  0.0524982799218847  0.08110949980983408  0.2398140905811061  1.0000
  C   C5        1.0  0.21371335758040289  0.3774443447010539  0.6404269187084068  1.0000
  C   C6        1.0  0.7137785567492472  0.6225553009720952  0.3595696697252464  1.0000
  C   C7        1.0  0.18976817328827883  0.4888193961013912  0.8810238144267473  1.0000
  C   C8        1.0  0.6897804941687723  0.5111825874168757  0.11896428190468808  1.0000
  C   C9        1.0  0.7820115498552553  0.11785692903432478  0.8793011377503391  1.0000
  C   C10       1.0  0.2820236445946732  0.8821358222474058  0.12071011985874242  1.0000
  C   C11       1.0  0.46458069611616537  0.40131468382712393  0.5760420678741198  1.0000
  C   C12       1.0  0.964595729391675  0.5986550189482783  0.4239449611734756  1.0000
  C   C13       1.0  0.9151483736688989  0.6899986870643032  0.8558041223044839  1.0000
  C   C14       1.0  0.4151530837209305  0.3099941356840005  0.1441944044645069  1.0000
  C   C15       1.0  0.8874789758677436  0.018173104134220394  0.6553508229080975  1.0000
  C   C16       1.0  0.38750573099711977  0.9818291904863796  0.34465795770751123  1.0000
  S   S1        1.0  0.2970155119576249  0.32466635286291273  0.7837392848036515  1.0000
  S   S2        1.0  0.7970185454811513  0.675326457816169  0.2162503013492766  1.0000
  N   N1        1.0  0.0612895510094873  0.5060018405425027  0.6785864442915966  1.0000
  N   N2        1.0  0.5612967758379453  0.49399908132193093  0.32140422577762007  1.0000
  N   N3        1.0  0.7262788923257589  0.0172279351202178  0.7632841913145398  1.0000
  N   N4        1.0  0.22629105764622176  0.9827797870462047  0.23672682461562292  1.0000
  O   O1        1.0  0.5422443570993991  0.5284715945028537  0.5914280898580913  1.0000
  O   O2        1.0  0.042282931351316194  0.47152520424997135  0.4085779335452742  1.0000
  O   O3        1.0  0.05910342520137849  0.7705747007199406  0.8075915630992867  1.0000
  O   O4        1.0  0.559097872025177  0.22943341809352794  0.1924088353497808  1.0000
  O   O5        1.0  0.5058811110280742  0.82433662917105  0.663189139512319  1.0000
  O   O6        1.0  0.0058686148829068  0.1756614220144712  0.3368262210682005  1.0000
  O   O7        1.0  0.7494099799346615  0.7305624887128842  0.9378398310588024  1.0000
  O   O8        1.0  0.2493604242553502  0.26943705068029533  0.062135032949399295  1.0000
  O   O9        1.0  0.5878680558227671  0.2992380475419338  0.5154406788052057  1.0000
  O   O10       1.0  0.08797113692815371  0.7007470269057023  0.48455909131823194  1.0000
