data_image0
_chemical_formula_structural       Cd2H8C16N12O4
_chemical_formula_sum              "Cd2 H8 C16 N12 O4"
_cell_length_a       6.923865068784782
_cell_length_b       8.79478733712551
_cell_length_c       11.745342279705355
_cell_angle_alpha    77.64482347388359
_cell_angle_beta     72.88256212528361
_cell_angle_gamma    66.77523571626612

_space_group_name_H-M_alt    "P 1"
_space_group_IT_number       1

loop_
  _space_group_symop_operation_xyz
  'x, y, z'

loop_
  _atom_site_type_symbol
  _atom_site_label
  _atom_site_symmetry_multiplicity
  _atom_site_fract_x
  _atom_site_fract_y
  _atom_site_fract_z
  _atom_site_occupancy
  Cd  Cd1       1.0  0.5844940350297209  0.2497310393051322  0.7502283368229002  1.0000
  Cd  Cd2       1.0  0.4155322903786001  0.7502560121102065  0.24977369329275953  1.0000
  H   H1        1.0  0.8320640059881868  0.5092391342147807  0.07462361062474107  1.0000
  H   H2        1.0  0.5841803391720717  0.009554666206057001  0.5745968156628579  1.0000
  H   H3        1.0  0.16793370526448814  0.49074170798994043  0.9253796901893879  1.0000
  H   H4        1.0  0.41577288033262466  0.9904822175268465  0.4254036479870394  1.0000
  H   H5        1.0  0.9495500409412186  0.2934234773138016  0.08802335852083604  1.0000
  H   H6        1.0  0.669195611872155  0.7937326719412214  0.587600422166368  1.0000
  H   H7        1.0  0.05045679604323531  0.7065610620686655  0.9119695634289187  1.0000
  H   H8        1.0  0.3307599641352256  0.20630049792828228  0.4124068729535538  1.0000
  C   C1        1.0  0.8210633297237775  0.40187745327374813  0.24634663957143502  1.0000
  C   C2        1.0  0.5308947649724512  0.9017309991021352  0.7461734547203492  1.0000
  C   C3        1.0  0.17893342136396478  0.5980909287786175  0.7536539200286683  1.0000
  C   C4        1.0  0.4690952354290656  0.09829965823797693  0.25383160622946127  1.0000
  C   C5        1.0  0.8635409987916417  0.24241729434373843  0.32073546415121984  1.0000
  C   C6        1.0  0.5737041046011981  0.7421254929271869  0.8203304735475642  1.0000
  C   C7        1.0  0.13647669220311773  0.7575547858828885  0.6792565570098149  1.0000
  C   C8        1.0  0.4262977898600084  0.2578989074580704  0.17966670468769055  1.0000
  C   C9        1.0  0.7665031138372668  0.23828983870031106  0.4428934135767479  1.0000
  C   C10       1.0  0.5526294832095642  0.7380462067392415  0.9424818022999875  1.0000
  C   C11       1.0  0.23351059652719638  0.7616921951963677  0.5570958136804621  1.0000
  C   C12       1.0  0.447404972027094  0.2619632241306676  0.05751123991186094  1.0000
  C   C13       1.0  0.9846221386644842  0.09043322149720008  0.27483232866833174  1.0000
  C   C14       1.0  0.6503539363398614  0.5901978076833461  0.7743914730886915  1.0000
  C   C15       1.0  0.015403593002737331  0.9095326529709312  0.7251667822211021  1.0000
  C   C16       1.0  0.34963277048618113  0.4098241174210315  0.22560826588198787  1.0000
  N   N1        1.0  0.89506868679603  0.40099869103764263  0.12548772022566382  1.0000
  N   N2        1.0  0.578616608116938  0.9012120333245194  0.6252617117393485  1.0000
  N   N3        1.0  0.10492891017027992  0.5989784082721245  0.8745133151406322  1.0000
  N   N4        1.0  0.4213453836524011  0.09882361901232878  0.3747440519573146  1.0000
  N   N5        1.0  0.682357930891442  0.2283488269739991  0.5452932919076334  1.0000
  N   N6        1.0  0.5440218185990344  0.7282707162840084  0.04493488930284435  1.0000
  N   N7        1.0  0.31767763453503056  0.7716456645140397  0.4547006247914781  1.0000
  N   N8        1.0  0.45601269460426164  0.27172876995250317  0.9550631671410131  1.0000
  N   N9        1.0  0.0859888986070485  0.962522588427696  0.23534507592922443  1.0000
  N   N10       1.0  0.7161099965679154  0.4621764216929095  0.7351391497029456  1.0000
  N   N11       1.0  0.9140243663131643  0.0374532364726505  0.7646491567783616  1.0000
  N   N12       1.0  0.2838610877056098  0.5378492543465543  0.2648632346184386  1.0000
  O   O1        1.0  0.7198609566697202  0.5355088775449132  0.2939700084854949  1.0000
  O   O2        1.0  0.4506783849807333  0.0351703099284535  0.7940594197414442  1.0000
  O   O3        1.0  0.28014670513950074  0.46445950867038027  0.7060332309006442  1.0000
  O   O4        1.0  0.5493036334978639  0.964854160117575  0.2059562244298335  1.0000
