data_image0
_chemical_formula_structural       Al4H4C48I4O20F12
_chemical_formula_sum              "Al4 H4 C48 I4 O20 F12"
_cell_length_a       6.662478196013811
_cell_length_b       21.49406431027244
_cell_length_c       23.49495550167804
_cell_angle_alpha    102.61279187422468
_cell_angle_beta     90.00022907495133
_cell_angle_gamma    89.99991422268835

_space_group_name_H-M_alt    "P 1"
_space_group_IT_number       1

loop_
  _space_group_symop_operation_xyz
  'x, y, z'

loop_
  _atom_site_type_symbol
  _atom_site_label
  _atom_site_symmetry_multiplicity
  _atom_site_fract_x
  _atom_site_fract_y
  _atom_site_fract_z
  _atom_site_occupancy
  Al  Al1       1.0  0.2277857564042378  0.2504571706228162  0.2502202988681077  1.0000
  Al  Al2       1.0  0.7722130929699632  0.7495430877030672  0.7497793767788892  1.0000
  Al  Al3       1.0  0.7277858909113564  0.24954266220913013  0.24977869941795205  1.0000
  Al  Al4       1.0  0.27221445940132577  0.7504569293859619  0.7502201004260911  1.0000
  H   H1        1.0  0.4796212518402569  0.3304407674726805  0.2456832640199025  1.0000
  H   H2        1.0  0.5203775975434795  0.669559325765789  0.7543177164936452  1.0000
  H   H3        1.0  0.9796203365064002  0.1695599827617471  0.25431819574819764  1.0000
  H   H4        1.0  0.0203770119349471  0.8304411429522247  0.7456832279698774  1.0000
  C   C1        1.0  0.4768158205023738  0.1639703252439588  0.1640044129884046  1.0000
  C   C2        1.0  0.5231890326405093  0.836031331301392  0.8359952732688285  1.0000
  C   C3        1.0  0.9768152429040456  0.3360304903097103  0.3359953026904208  1.0000
  C   C4        1.0  0.023182105534381502  0.6639680040515613  0.6640047949472317  1.0000
  C   C5        1.0  0.47697897053731714  0.1825953372417359  0.3200823687646661  1.0000
  C   C6        1.0  0.5230168769457606  0.8174032218784504  0.6799159878715386  1.0000
  C   C7        1.0  0.9769717937254399  0.3174038794026401  0.17991646421508992  1.0000
  C   C8        1.0  0.023022552824279802  0.6825970456543402  0.8200840872332051  1.0000
  C   C9        1.0  0.17428096529982892  0.5532798899403204  0.9012475972235663  1.0000
  C   C10       1.0  0.8257178840788912  0.44672103511621236  0.09875295422720139  1.0000
  C   C11       1.0  0.6742825314445112  0.9467181820924894  0.5987513218793552  1.0000
  C   C12       1.0  0.3257193198116682  0.0532799109537478  0.40124703122450717  1.0000
  C   C13       1.0  0.17328397067706192  0.5942569498911041  0.8628167861738802  1.0000
  C   C14       1.0  0.826716379645255  0.4057450076406326  0.1371842084830774  1.0000
  C   C15       1.0  0.6732802699974699  0.9057432876207656  0.6371834543732149  1.0000
  C   C16       1.0  0.326717078428608  0.0942552714992715  0.362814902263814  1.0000
  C   C17       1.0  0.0231850586428592  0.6404032825914572  0.8631624171598561  1.0000
  C   C18       1.0  0.9768152916833799  0.3595983091955688  0.13683901009551389  1.0000
  C   C19       1.0  0.5231800757623476  0.8595976516394471  0.6368385339279641  1.0000
  C   C20       1.0  0.47681577172354395  0.1404010078093876  0.36316025884230635  1.0000
  C   C21       1.0  0.8712736725411079  0.6444821887141359  0.905249550136702  1.0000
  C   C22       1.0  0.1287266777834191  0.355518836670889  0.09475143744895581  1.0000
  C   C23       1.0  0.3712708508992719  0.8555178085840041  0.5947500361339308  1.0000
  C   C24       1.0  0.6287279984687048  0.1444812166092433  0.40524832403956873  1.0000
  C   C25       1.0  0.8703929913827082  0.6046970193230976  0.9446507053856905  1.0000
  C   C26       1.0  0.1296088598876324  0.3953041063904267  0.0553507183348643  1.0000
  C   C27       1.0  0.37039242686358154  0.8953029781507666  0.5553488799165435  1.0000
  C   C28       1.0  0.6296064225106123  0.10469728017511669  0.44465079573045324  1.0000
  C   C29       1.0  0.019176801546429107  0.5578972009547484  0.943360465548146  1.0000
  C   C30       1.0  0.9808220478283759  0.4421040898464952  0.0566396533042024  1.0000
  C   C31       1.0  0.51917930100484  0.9421021999576382  0.5566378572549268  1.0000
  C   C32       1.0  0.4808225502486252  0.05789832378400923  0.4433609496612334  1.0000
  C   C33       1.0  0.008227796864076702  0.5173982370884289  0.982815846477365  1.0000
  C   C34       1.0  0.9917710525112325  0.48260155516410214  0.0171838256339782  1.0000
  C   C35       1.0  0.5082310482868736  0.9826012663400263  0.5171829004050821  1.0000
  C   C36       1.0  0.4917693020264053  0.017399357730418792  0.4828163426443197  1.0000
  C   C37       1.0  0.0219675993501056  0.6140211705179439  0.6119989339918631  1.0000
  C   C38       1.0  0.9780312500424702  0.38597519413369247  0.3880020182365129  1.0000
  C   C39       1.0  0.5219720111882182  0.8859784013050672  0.8880041822884265  1.0000
  C   C40       1.0  0.47802984006354177  0.11402155603458647  0.11199418495802149  1.0000
  C   C41       1.0  0.013892329109133102  0.5702195352532016  0.5687406157104462  1.0000
  C   C42       1.0  0.9861155259302876  0.42977895910701147  0.43125948193298314  1.0000
  C   C43       1.0  0.5138926319231417  0.9297785040649985  0.9312598678008398  1.0000
  C   C44       1.0  0.48611672405325385  0.0702238192105469  0.0687406942626581  1.0000
  C   C45       1.0  0.004683830062248301  0.5221760757371854  0.5216109993523901  1.0000
  C   C46       1.0  0.9953255259134437  0.4778226840389479  0.4783882295593854  1.0000
  C   C47       1.0  0.5046875622452022  0.9778191981692146  0.9783855346728387  1.0000
  C   C48       1.0  0.4953277974969623  0.0221818919730836  0.021613711920473098  1.0000
  I   I1        1.0  0.40199516002640934  0.4857634321457382  0.8962673080990767  1.0000
  I   I2        1.0  0.5980036893523107  0.5142374929107946  0.10373324335169089  1.0000
  I   I3        1.0  0.9019928875786577  0.014235615273214822  0.6037326489129312  1.0000
  I   I4        1.0  0.09800446085475299  0.985763710906113  0.39626701966194133  1.0000
  O   O1        1.0  0.647313327839541  0.19673972309036009  0.3022946272281288  1.0000
  O   O2        1.0  0.3526855215278318  0.8032582696275341  0.6977032897400121  1.0000
  O   O3        1.0  0.14731220176024354  0.30325806086859325  0.1977033960445311  1.0000
  O   O4        1.0  0.852688148558059  0.6967417313837884  0.8022962760676435  1.0000
  O   O5        1.0  0.3058299942064551  0.1832866691484227  0.18483672899823486  1.0000
  O   O6        1.0  0.6941718570593665  0.8167137898344522  0.815163818918542  1.0000
  O   O7        1.0  0.8058307192944911  0.31671261725888655  0.3151640926816057  1.0000
  O   O8        1.0  0.19416662914674995  0.6832859774310266  0.6848364410901056  1.0000
  O   O9        1.0  0.307427795956187  0.19985322606535763  0.3045432502342109  1.0000
  O   O10       1.0  0.6925710534191155  0.8001465661871733  0.6954564218771324  1.0000
  O   O11       1.0  0.8074254232900344  0.3001486558058702  0.1954567221488901  1.0000
  O   O12       1.0  0.19257492702947593  0.6998532013972252  0.8045438363740017  1.0000
  O   O13       1.0  0.1485647805936452  0.3170316811506808  0.3155836734572119  1.0000
  O   O14       1.0  0.8514325678319281  0.6829683765180619  0.684415129920822  1.0000
  O   O15       1.0  0.6485643219168651  0.18296926474300793  0.1844139398091471  1.0000
  O   O16       1.0  0.3514375293315838  0.8170320908167029  0.8155844380442403  1.0000
  O   O17       1.0  0.47831108286501944  0.28775632155816305  0.2529436549448222  1.0000
  O   O18       1.0  0.5216877665074692  0.7122433703657266  0.7470555810324555  1.0000
  O   O19       1.0  0.978312860879534  0.21224346122117052  0.24705561917625826  1.0000
  O   O20       1.0  0.0216859884946672  0.7877567971047128  0.7529440564707386  1.0000
  F   F1        1.0  0.31997386321004484  0.5876080843767255  0.8221753004688495  1.0000
  F   F2        1.0  0.680024986171489  0.4123929410084557  0.1778256871159911  1.0000
  F   F3        1.0  0.8199722006386667  0.9123925899011311  0.6778251051239437  1.0000
  F   F4        1.0  0.18002514778520157  0.0876069013656178  0.3221732585843782  1.0000
  F   F5        1.0  0.7240701154670574  0.6881381162873552  0.9098612311981356  1.0000
  F   F6        1.0  0.2759272329669571  0.3118622423673258  0.0901388805820957  1.0000
  F   F7        1.0  0.22406744072624463  0.8118622761652717  0.5901377603996778  1.0000
  F   F8        1.0  0.7759299076891893  0.18813691411553893  0.4098592949064539  1.0000
  F   F9        1.0  0.7233023443796612  0.6114834560667505  0.98495582043779  1.0000
  F   F10       1.0  0.27669800594376437  0.3885180353916268  0.0150451706835213  1.0000
  F   F11       1.0  0.22330575090052215  0.8885160043919527  0.5150431632467445  1.0000
  F   F12       1.0  0.776694599421198  0.1114849206644308  0.48495738820485457  1.0000
