data_image0
_chemical_formula_structural       U2H14C8O16
_chemical_formula_sum              "U2 H14 C8 O16"
_cell_length_a       8.05089724849695
_cell_length_b       7.196435924100979
_cell_length_c       9.295621704368356
_cell_angle_alpha    71.06739199828199
_cell_angle_beta     65.95043209765277
_cell_angle_gamma    78.88459441639138

_space_group_name_H-M_alt    "P 1"
_space_group_IT_number       1

loop_
  _space_group_symop_operation_xyz
  'x, y, z'

loop_
  _atom_site_type_symbol
  _atom_site_label
  _atom_site_symmetry_multiplicity
  _atom_site_fract_x
  _atom_site_fract_y
  _atom_site_fract_z
  _atom_site_occupancy
  U   U1        1.0  0.4999989051328557  0.9999924962622301  3.642351806843683e-06  1.0000
  U   U2        1.0  0.9999967270804432  0.49999718454495234  0.5000022285910645  1.0000
  H   H1        1.0  0.15367576890909632  0.9655392925442426  0.302117536087735  1.0000
  H   H2        1.0  0.8463138465698851  0.03446106494165953  0.6978837512796187  1.0000
  H   H3        1.0  0.18579900239767266  0.20097522251847275  0.23217926510255177  1.0000
  H   H4        1.0  0.8142185536590179  0.7990170638185107  0.7678133091473496  1.0000
  H   H5        1.0  0.3498412087758354  0.28102660790200673  0.5283410596326589  1.0000
  H   H6        1.0  0.6501584246743379  0.718966297783723  0.4716638624405007  1.0000
  H   H7        1.0  0.39301443276497855  0.28311291192472515  0.3407277070946292  1.0000
  H   H8        1.0  0.6069865579099769  0.7168800280388652  0.6592767517632651  1.0000
  H   H9        1.0  0.316194496211125  0.4993179838708955  0.8726020730099077  1.0000
  H   H10       1.0  0.6837993631960514  0.5006974884555929  0.1273902083288832  1.0000
  H   H11       1.0  0.22199967134726967  0.693053448636768  0.7507423121598291  1.0000
  H   H12       1.0  0.7779852265508681  0.3069559684829174  0.24925321240777976  1.0000
  H   H13       1.0  0.9374103266455482  0.7201617320217439  0.9810599856567702  1.0000
  H   H14       1.0  0.06258994639765095  0.2798383586720449  0.018946397665487807  1.0000
  C   C1        1.0  0.31704382894939453  0.7785387199555063  0.9003328033213615  1.0000
  C   C2        1.0  0.6829564594470767  0.2214795946971151  0.09966101231380982  1.0000
  C   C3        1.0  0.22591882542397465  0.63522187399537  0.8745503935505424  1.0000
  C   C4        1.0  0.7740776262374426  0.36477879013358455  0.1254463773212534  1.0000
  C   C5        1.0  0.03352760284762011  0.593374337329493  0.0025500447979779762  1.0000
  C   C6        1.0  0.9664655986622963  0.40663026464898894  0.9974534280633873  1.0000
  C   C7        1.0  0.024013698072572327  0.5612230894281042  0.17441996892906525  1.0000
  C   C8        1.0  0.9759864965203423  0.438778607241602  0.8255839387410402  1.0000
  O   O1        1.0  0.46387089889732647  0.2280306659939058  0.8575835528394151  1.0000
  O   O2        1.0  0.5361269196648524  0.771951876080948  0.14242422229457932  1.0000
  O   O3        1.0  0.09380898298691429  0.7361419587003157  0.44351936996230973  1.0000
  O   O4        1.0  0.9061897946467212  0.26387772476973487  0.5564757338648504  1.0000
  O   O5        1.0  0.4833839259269794  0.8170038054182102  0.8086267215386582  1.0000
  O   O6        1.0  0.5166228474192067  0.18298840957651658  0.19136625780446076  1.0000
  O   O7        1.0  0.23489200798082532  0.8592614302146303  0.0162560867010696  1.0000
  O   O8        1.0  0.7651017479468081  0.14075558046089756  0.9837348191951917  1.0000
  O   O9        1.0  0.8896991232570031  0.6357327134747665  0.2758960335153659  1.0000
  O   O10       1.0  0.11030555356590811  0.36426474148889554  0.7241062099980338  1.0000
  O   O11       1.0  0.14669414978627776  0.44991542920325867  0.2245922149504338  1.0000
  O   O12       1.0  0.8533105770951438  0.5500821610141527  0.7754078281437201  1.0000
  O   O13       1.0  0.20573162621451505  0.07524666043638462  0.20385864359172956  1.0000
  O   O14       1.0  0.794283504164483  0.9247390658143502  0.7961458599069287  1.0000
  O   O15       1.0  0.3124087674336096  0.338925771202085  0.4350855303362095  1.0000
  O   O16       1.0  0.6875899443766759  0.6610628232930369  0.5649184802316682  1.0000
