data_image0
_chemical_formula_structural       Zn4H24C32N16O16
_chemical_formula_sum              "Zn4 H24 C32 N16 O16"
_cell_length_a       7.317368280106271
_cell_length_b       7.4432649680716265
_cell_length_c       18.43180106840127
_cell_angle_alpha    89.9995261491001
_cell_angle_beta     89.99940551843375
_cell_angle_gamma    89.99984193898662

_space_group_name_H-M_alt    "P 1"
_space_group_IT_number       1

loop_
  _space_group_symop_operation_xyz
  'x, y, z'

loop_
  _atom_site_type_symbol
  _atom_site_label
  _atom_site_symmetry_multiplicity
  _atom_site_fract_x
  _atom_site_fract_y
  _atom_site_fract_z
  _atom_site_occupancy
  Zn  Zn1       1.0  0.9999996252690906  0.4999972691347594  0.5000007578803007  1.0000
  Zn  Zn2       1.0  0.9999986333865606  1.3434982904000002e-06  5.683999999944418e-13  1.0000
  Zn  Zn3       1.0  0.5000045259205024  0.4999992788528971  0.5000018937839883  1.0000
  Zn  Zn4       1.0  0.5000008008450011  2.0097457564999976e-06  0.9999989657498604  1.0000
  H   H1        1.0  0.044569197697242706  0.4780279908849037  0.2715515139453686  1.0000
  H   H2        1.0  0.9554331625959305  0.02197180578549759  0.7715536229853726  1.0000
  H   H3        1.0  0.5445708252111247  0.5219738103933054  0.7284471555493681  1.0000
  H   H4        1.0  0.45542851894688846  0.9780221649564068  0.2284471445833702  1.0000
  H   H5        1.0  0.9554316545290433  0.5219719103725777  0.728447933312694  1.0000
  H   H6        1.0  0.044566323024476204  0.9780240649845025  0.22844582428228932  1.0000
  H   H7        1.0  0.4554300269845584  0.4780328083298285  0.271553919319132  1.0000
  H   H8        1.0  0.5445709666702286  0.02197101881519359  0.7715528452293938  1.0000
  H   H9        1.0  0.0339304739458157  0.5177216470798953  0.1355490248014632  1.0000
  H   H10       1.0  0.9660658211177235  0.9822802479647166  0.6355511694035201  1.0000
  H   H11       1.0  0.5339355069780964  0.4822801830138417  0.8644496886983717  1.0000
  H   H12       1.0  0.4660644359558148  0.017719067954836  0.3644495541623911  1.0000
  H   H13       1.0  0.9660676450644415  0.4822782541868023  0.864449879921672  1.0000
  H   H14       1.0  0.0339322978784153  0.0177196532909463  0.3644488204007743  1.0000
  H   H15       1.0  0.4660626119982609  0.5177237487201153  0.1355513861803033  1.0000
  H   H16       1.0  0.5339336830426972  0.982274115813098  0.6355509781937769  1.0000
  H   H17       1.0  0.626978191195512  0.6057987938731131  0.0361856834956598  1.0000
  H   H18       1.0  0.37301658968596746  0.8941984044106588  0.536186237423216  1.0000
  H   H19       1.0  0.1269820175608913  0.39420278413538756  0.9638148152328226  1.0000
  H   H20       1.0  0.8730153397185346  0.1058025070961151  0.4638127009202719  1.0000
  H   H21       1.0  0.3730185611834145  0.394205137873726  0.963814306304684  1.0000
  H   H22       1.0  0.6269815293082814  0.10580284034144677  0.4638137523788188  1.0000
  H   H23       1.0  0.873014734816145  0.6058024911078944  0.0361851745652615  1.0000
  H   H24       1.0  0.1269827792757141  0.8941987376559906  0.5361872888817629  1.0000
  C   C1        1.0  0.7499910599641098  0.45037829022970755  0.363197140752483  1.0000
  C   C2        1.0  0.2499897829974742  0.0496223297318323  0.8631971922981165  1.0000
  C   C3        1.0  0.25000842564497117  0.5496256415189434  0.636802306501629  1.0000
  C   C4        1.0  0.7500097026153795  0.9503789150239327  0.13680225496051426  1.0000
  C   C5        1.0  0.750001659253634  0.4734724832156871  0.281308739797133  1.0000
  C   C6        1.0  0.2500045469960597  0.026533832529480595  0.7813083264520984  1.0000
  C   C7        1.0  0.24999782635921972  0.5265287615400851  0.7186907074614909  1.0000
  C   C8        1.0  0.7499949386238568  0.9734674122318053  0.21869057826595653  1.0000
  C   C9        1.0  0.9146952304527787  0.4858583427138399  0.24306415043803042  1.0000
  C   C10       1.0  0.08530103809748371  0.0141447203094174  0.7430644601079806  1.0000
  C   C11       1.0  0.41470273663125556  0.5141437993431524  0.7569373281644474  1.0000
  C   C12       1.0  0.5853026992249398  0.9858556271083215  0.2569362110446107  1.0000
  C   C13       1.0  0.0853056217523402  0.5141415585270864  0.7569369244417673  1.0000
  C   C14       1.0  0.914699814112808  0.9858565244334655  0.2569360722289744  1.0000
  C   C15       1.0  0.5852981155663103  0.4858614758835386  0.2430637467063121  1.0000
  C   C16       1.0  0.4146981529872349  0.014144274138118397  0.7430643212946038  1.0000
  C   C17       1.0  0.9115201593533085  0.5095556933124142  0.1687094735203019  1.0000
  C   C18       1.0  0.08848210587984079  0.9904455273639526  0.6687108808949418  1.0000
  C   C19       1.0  0.41151759762885837  0.4904478008944935  0.8312882204518885  1.0000
  C   C20       1.0  0.5884763751598997  0.009554811457377396  0.3312886920317908  1.0000
  C   C21       1.0  0.0884793262755537  0.4904442079579496  0.8312888886594294  1.0000
  C   C22       1.0  0.9115173797419587  0.009554373900890298  0.3312880238253726  1.0000
  C   C23       1.0  0.5884805213667902  0.5095574743524551  0.1687112268027917  1.0000
  C   C24       1.0  0.41152174385224066  0.9904437463128772  0.668710212693604  1.0000
  C   C25       1.0  0.7499963411656267  0.5337642042296408  0.0533265771763425  1.0000
  C   C26       1.0  0.24999936028490308  0.9662380194555809  0.5533268552170797  1.0000
  C   C27       1.0  0.25000041121329997  0.46623972751719817  0.9466734126240013  1.0000
  C   C28       1.0  0.7499987587145114  0.03376456879848181  0.44667259204211973  1.0000
  C   C29       1.0  0.7500120306694525  0.33952984969530314  0.0238164941143637  1.0000
  C   C30       1.0  0.250004975861259  0.16047364154815819  0.523816172872678  1.0000
  C   C31       1.0  0.24998882154223165  0.6604754255424294  0.9761834956752365  1.0000
  C   C32       1.0  0.7499945097586503  0.8395276032131277  0.47618273184537685  1.0000
  N   N1        1.0  0.7500010045760207  0.4196842399277542  0.5475036520054744  1.0000
  N   N2        1.0  0.2500017196126337  0.0802986172758864  0.0474933500220374  1.0000
  N   N3        1.0  0.24999848097428404  0.580306256795794  0.4525017632175832  1.0000
  N   N4        1.0  0.7500018658739408  0.9196999405090266  0.9525033845297414  1.0000
  N   N5        1.0  0.7500031240248433  0.33674291636986436  0.6036312418587855  1.0000
  N   N6        1.0  0.24999813960656783  0.1632441733798018  0.1036212034805928  1.0000
  N   N7        1.0  0.25000046139540194  0.6632475803757173  0.396371460652901  1.0000
  N   N8        1.0  0.750002712656908  0.8367543844088201  0.8963755310768419  1.0000
  N   N9        1.0  0.7500038982191982  0.2559901676108112  0.6578810950951706  1.0000
  N   N10       1.0  0.24999595374208636  0.24399850589499286  0.1578697000596634  1.0000
  N   N11       1.0  0.2500010538060238  0.7439949551361167  0.3421226925038853  1.0000
  N   N12       1.0  0.7500035318900587  0.7560040823737707  0.8421281195749728  1.0000
  N   N13       1.0  0.7499953233316958  0.5210243615332004  0.13293086486827826  1.0000
  N   N14       1.0  0.24999967327273245  0.9789789302732498  0.6329311000590891  1.0000
  N   N15       1.0  0.25000416226515654  0.4789782267079801  0.8670696674692522  1.0000
  N   N16       1.0  0.7499998123382384  0.0210236579789651  0.3670683471972822  1.0000
  O   O1        1.0  0.906139725199651  0.44141128418880976  0.392630201721289  1.0000
  O   O2        1.0  0.0938690507418372  0.05858873720164579  0.8926270712531376  1.0000
  O   O3        1.0  0.40613596576952193  0.5585975985368633  0.6073718548276901  1.0000
  O   O4        1.0  0.593856962719421  0.9414129305536533  0.107370309236515  1.0000
  O   O5        1.0  0.093858393796971  0.5585832430755673  0.6073703306326195  1.0000
  O   O6        1.0  0.9061345347183903  0.9414084770647688  0.10737183346321189  1.0000
  O   O7        1.0  0.5938635198141213  0.44141439417941086  0.39262867749402375  1.0000
  O   O8        1.0  0.4061452561184211  0.058586970701966785  0.8926291380187192  1.0000
  O   O9        1.0  0.9058155304256628  0.2697525568619739  0.0146799058414402  1.0000
  O   O10       1.0  0.09417438173491627  0.23024977681212275  0.5146713138964714  1.0000
  O   O11       1.0  0.40582468617130724  0.7302576702208867  0.985322152019755  1.0000
  O   O12       1.0  0.594181639703649  0.7697492031355679  0.4853222675104901  1.0000
  O   O13       1.0  0.09418122186527002  0.7302486878202642  0.9853271369909323  1.0000
  O   O14       1.0  0.9058237373144068  0.769747437489272  0.4853248781282958  1.0000
  O   O15       1.0  0.594174799506483  0.2697476050793739  0.014671869826322802  1.0000
  O   O16       1.0  0.4058164792604728  0.2302533850909113  0.5146798924515963  1.0000
