data_image0
_chemical_formula_structural       Al2H20C26N6O10
_chemical_formula_sum              "Al2 H20 C26 N6 O10"
_cell_length_a       6.655390185277112
_cell_length_b       11.069964714977646
_cell_length_c       16.94900239138131
_cell_angle_alpha    83.42332972202047
_cell_angle_beta     82.84074181024599
_cell_angle_gamma    73.58998530197094

_space_group_name_H-M_alt    "P 1"
_space_group_IT_number       1

loop_
  _space_group_symop_operation_xyz
  'x, y, z'

loop_
  _atom_site_type_symbol
  _atom_site_label
  _atom_site_symmetry_multiplicity
  _atom_site_fract_x
  _atom_site_fract_y
  _atom_site_fract_z
  _atom_site_occupancy
  Al  Al1       1.0  0.49695292835584576  0.5015109125290138  0.49548136561049455  1.0000
  Al  Al2       1.0  0.9963774862614017  0.5035943647344822  0.49657705262289653  1.0000
  H   H1        1.0  0.1801469614088802  0.6584009069266588  0.46079763076686214  1.0000
  H   H2        1.0  0.8091393272529643  0.34802983320003733  0.5401705943705155  1.0000
  H   H3        1.0  0.8431324795530628  0.5735022066398088  0.7300907894060984  1.0000
  H   H4        1.0  0.7768122552173367  0.5744625869804381  0.8793629819113279  1.0000
  H   H5        1.0  0.4450239539958857  0.453956100045211  0.8949844452429334  1.0000
  H   H6        1.0  0.6084289922413858  0.451935954507107  0.10069545236439129  1.0000
  H   H7        1.0  0.1730034628154229  0.5651592493025746  0.10671075522440532  1.0000
  H   H8        1.0  0.09995961894146187  0.5675065567424724  0.2561105920749753  1.0000
  H   H9        1.0  0.8494100607609171  0.764315933564518  0.6123705716663608  1.0000
  H   H10       1.0  0.9906098185271119  0.877974346750193  0.6984481737424488  1.0000
  H   H11       1.0  0.6035116449298171  0.23235578544778698  0.6043513107387994  1.0000
  H   H12       1.0  0.8646959661319614  0.11453702916935533  0.6946520104372453  1.0000
  H   H13       1.0  0.5885066672921299  0.4484545643130247  0.6809844754527036  1.0000
  H   H14       1.0  0.67623346823585  0.42467802083990586  0.7762629597909623  1.0000
  H   H15       1.0  0.4555486728407702  0.458597074284576  0.3142114873232202  1.0000
  H   H16       1.0  0.3988174173192149  0.4238887326007161  0.2228638037076109  1.0000
  H   H17       1.0  0.10253134589724056  0.22146766714335805  0.41490677315823643  1.0000
  H   H18       1.0  0.06764469036776428  0.07975335458509392  0.4023447524974415  1.0000
  H   H19       1.0  0.3829621652282427  0.785081364022723  0.4002159717152125  1.0000
  H   H20       1.0  0.2888005262161641  0.92871081902927  0.3515798352739381  1.0000
  C   C1        1.0  0.6340080094136129  0.7293224461170097  0.5037480415141291  1.0000
  C   C2        1.0  0.7945842307337615  0.5081031937176945  0.35046581208708727  1.0000
  C   C3        1.0  0.35937323496128937  0.27468969309096286  0.49158209941232667  1.0000
  C   C4        1.0  0.19992658574554412  0.4999888876627026  0.6412248192605148  1.0000
  C   C5        1.0  0.17808983083422453  0.5064328052600615  0.7281628398578448  1.0000
  C   C6        1.0  0.973072199798651  0.5440009503181856  0.7675493687341515  1.0000
  C   C7        1.0  0.9351414719337824  0.5451845961093441  0.849379328345961  1.0000
  C   C8        1.0  0.11032997088105394  0.5092723465798272  0.8948144964440702  1.0000
  C   C9        1.0  0.31450790452929317  0.47788613621965226  0.8577258956627745  1.0000
  C   C10       1.0  0.35533903859875693  0.474077559464952  0.7739109703624224  1.0000
  C   C11       1.0  0.7168243789745077  0.47483045315457423  0.13613562444977126  1.0000
  C   C12       1.0  0.8951002487737582  0.5045095655235627  0.096620829802319  1.0000
  C   C13       1.0  0.038402185432865096  0.5381174829192261  0.13913141721904757  1.0000
  C   C14       1.0  0.9973233927927297  0.5390001946576461  0.220965004619984  1.0000
  C   C15       1.0  0.8207202997691212  0.5065519076756928  0.2630038872246701  1.0000
  C   C16       1.0  0.6744927462409509  0.47416743786730825  0.2200452654512333  1.0000
  C   C17       1.0  0.5612352029370485  0.8686182566700397  0.5046446223028553  1.0000
  C   C18       1.0  0.6505039066770165  0.9328058348825226  0.5541046590725074  1.0000
  C   C19       1.0  0.40537054411521484  0.9347197634549858  0.4557050944841378  1.0000
  C   C20       1.0  0.7980925294563335  0.8670545196742554  0.6086445332742585  1.0000
  C   C21       1.0  0.8773350607729287  0.9309362907897095  0.6571937452657508  1.0000
  C   C22       1.0  0.424617274254608  0.13464265442635084  0.49855845194401377  1.0000
  C   C23       1.0  0.32902015370949295  0.07004544828168952  0.45528437500869506  1.0000
  C   C24       1.0  0.5829282267019734  0.06808602894949442  0.5502135428913988  1.0000
  C   C25       1.0  0.6630219595068213  0.1303924049102747  0.6027595739147316  1.0000
  C   C26       1.0  0.807915741376384  0.06377119336119821  0.6546368962460178  1.0000
  N   N1        1.0  0.09423215296735066  0.5056180579546138  0.978977440318431  1.0000
  N   N2        1.0  0.9144656890601369  0.5028106403021227  0.012639664022145794  1.0000
  N   N3        1.0  0.5581647475461652  0.43733644944730105  0.7412610606925156  1.0000
  N   N4        1.0  0.5027722949392837  0.4396100640616609  0.2565291944337105  1.0000
  N   N5        1.0  0.17347137505095836  0.12935891556487897  0.4055137523136452  1.0000
  N   N6        1.0  0.3152818415758886  0.8786652915322436  0.4052823003016499  1.0000
  O   O1        1.0  0.49151339039649844  0.6712069075700526  0.5075821721359546  1.0000
  O   O2        1.0  0.9567235842229138  0.5006405537320617  0.3858792333789082  1.0000
  O   O3        1.0  0.16204721823174842  0.3310629315976358  0.4955313158257582  1.0000
  O   O4        1.0  0.38589041284838993  0.4819001039358924  0.6043850270454669  1.0000
  O   O5        1.0  0.5028052995880046  0.332122638803888  0.4813967056129443  1.0000
  O   O6        1.0  0.03477611623934966  0.5100332545649451  0.6068132791512824  1.0000
  O   O7        1.0  0.8305814514061396  0.6752078571559537  0.4972115751014385  1.0000
  O   O8        1.0  0.608908508656512  0.5181052523453572  0.3861287553695618  1.0000
  O   O9        1.0  0.2272249933303884  0.5666917769964143  0.4618304993208469  1.0000
  O   O10       1.0  0.7656430679789423  0.439550261191286  0.530650346371516  1.0000
