data_image0
_chemical_formula_structural       Co2H16C16O12
_chemical_formula_sum              "Co2 H16 C16 O12"
_cell_length_a       6.46600405703985
_cell_length_b       7.473621999369095
_cell_length_c       9.488824951272484
_cell_angle_alpha    98.51352125611491
_cell_angle_beta     110.37331520663807
_cell_angle_gamma    91.58452788994725

_space_group_name_H-M_alt    "P 1"
_space_group_IT_number       1

loop_
  _space_group_symop_operation_xyz
  'x, y, z'

loop_
  _atom_site_type_symbol
  _atom_site_label
  _atom_site_symmetry_multiplicity
  _atom_site_fract_x
  _atom_site_fract_y
  _atom_site_fract_z
  _atom_site_occupancy
  Co  Co1       1.0  0.4999979019540532  6.10277950130086e-06  0.4999982313522082  1.0000
  Co  Co2       1.0  0.9999972727868638  0.4999923426417611  0.4999975371259922  1.0000
  H   H1        1.0  0.40295150166880944  0.08359142468482622  0.1423371658910995  1.0000
  H   H2        1.0  0.7428766421724688  0.5583914582629674  0.14223737957569677  1.0000
  H   H3        1.0  0.5970549413471319  0.916432432708838  0.8576426993089045  1.0000
  H   H4        1.0  0.25712834190118633  0.44158802844749095  0.8577783176417738  1.0000
  H   H5        1.0  0.7296767629582418  0.1063090150003916  0.11969242644329368  1.0000
  H   H6        1.0  0.3901754346366531  0.6324837028595026  0.11739653687644849  1.0000
  H   H7        1.0  0.2703151226098015  0.8936957884897228  0.8802977472773108  1.0000
  H   H8        1.0  0.6098255882866681  0.3675092007648288  0.8826112999827627  1.0000
  H   H9        1.0  0.8329966912216948  0.10467902438015393  0.46869148672966093  1.0000
  H   H10       1.0  0.6256798337718408  0.6021975131718877  0.4602580319868608  1.0000
  H   H11       1.0  0.1670016209731173  0.895320647843903  0.5313196345181836  1.0000
  H   H12       1.0  0.37432015876122904  0.3978034796429952  0.5397473028857789  1.0000
  H   H13       1.0  0.7908141498782939  0.894636698770981  0.38586930584046536  1.0000
  H   H14       1.0  0.5598399349729206  0.39445955822329637  0.3772745370754577  1.0000
  H   H15       1.0  0.20917630277607208  0.10536824581559051  0.6141374135597745  1.0000
  H   H16       1.0  0.44014342652270233  0.6055398230531069  0.6227267544799133  1.0000
  C   C1        1.0  0.0728388008964771  0.10656591153522751  0.1444951040108009  1.0000
  C   C2        1.0  0.0742936092690414  0.6085677263093247  0.14485049278097506  1.0000
  C   C3        1.0  0.9271613458479993  0.8934402932970757  0.855488713483858  1.0000
  C   C4        1.0  0.9257126464201662  0.39142928476363886  0.8551548007615041  1.0000
  C   C5        1.0  0.22722537550091468  0.04778590055865811  0.07836273281432682  1.0000
  C   C6        1.0  0.8536894504070391  0.5337993780797633  0.07867324403375868  1.0000
  C   C7        1.0  0.7727648443128315  0.9522188671354572  0.9216259959608665  1.0000
  C   C8        1.0  0.14630950601346632  0.4661880904332706  0.9213356163609205  1.0000
  C   C9        1.0  0.8457728543312442  0.058164977031339014  0.06561326918691175  1.0000
  C   C10       1.0  0.21970224577020053  0.57346652237284  0.06494454878995977  1.0000
  C   C11       1.0  0.1542351802341528  0.9418372506387201  0.9343687771068048  1.0000
  C   C12       1.0  0.7803022465142534  0.42652783128726673  0.9350684710880088  1.0000
  C   C13       1.0  0.1458587882222702  0.22412850994257386  0.29642024169956466  1.0000
  C   C14       1.0  0.153157608267378  0.7282014893845812  0.29629483654541383  1.0000
  C   C15       1.0  0.8541464105711328  0.7758778438994655  0.7035721437195547  1.0000
  C   C16       1.0  0.8468399589913318  0.2717899746094119  0.703708875567095  1.0000
  O   O1        1.0  0.3520976582230448  0.24128125969301104  0.38373966865270864  1.0000
  O   O2        1.0  0.03608613663297432  0.7371356050418572  0.38304730479122645  1.0000
  O   O3        1.0  0.6479032197610266  0.7587331429639124  0.6162504997052167  1.0000
  O   O4        1.0  0.963938989816235  0.2628482488485702  0.6169725039857922  1.0000
  O   O5        1.0  0.9965715665784459  0.30311809515373517  0.3338339633039381  1.0000
  O   O6        1.0  0.33881924089247667  0.8203797571840001  0.3320051582773331  1.0000
  O   O7        1.0  0.003431136683140312  0.6968761290614298  0.6661680871800826  1.0000
  O   O8        1.0  0.6611703064151017  0.1796359190208676  0.667992004399558  1.0000
  O   O9        1.0  0.717032283602464  0.006066552676927001  0.3992296014602488  1.0000
  O   O10       1.0  0.6626405912820132  0.5023488888512659  0.39226645564492196  1.0000
  O   O11       1.0  0.2829629325867274  0.9939370480157808  0.600771751743828  1.0000
  O   O12       1.0  0.33735714122222765  0.4976439743973843  0.607741666139667  1.0000
