data_image0
_chemical_formula_structural       Tl4H16C24N12
_chemical_formula_sum              "Tl4 H16 C24 N12"
_cell_length_a       4.023940721847614
_cell_length_b       12.215511087896724
_cell_length_c       13.490833018390955
_cell_angle_alpha    93.82438212460828
_cell_angle_beta     98.54565156264873
_cell_angle_gamma    89.97062212727958

_space_group_name_H-M_alt    "P 1"
_space_group_IT_number       1

loop_
  _space_group_symop_operation_xyz
  'x, y, z'

loop_
  _atom_site_type_symbol
  _atom_site_label
  _atom_site_symmetry_multiplicity
  _atom_site_fract_x
  _atom_site_fract_y
  _atom_site_fract_z
  _atom_site_occupancy
  Tl  Tl1       1.0  0.0625261918459472  0.6269427714880464  0.07768683018488788  1.0000
  Tl  Tl2       1.0  0.9856687229317417  0.8728675555106092  0.9224566653257683  1.0000
  Tl  Tl3       1.0  0.9374903700575815  0.3730567470782162  0.9223110802254555  1.0000
  Tl  Tl4       1.0  0.0143327755792413  0.127132785926996  0.0775421003369914  1.0000
  H   H1        1.0  0.2646045200143874  0.553530273990738  0.3477965285338058  1.0000
  H   H2        1.0  0.9175992770797167  0.9465785169227916  0.6528044770691183  1.0000
  H   H3        1.0  0.7353969784965956  0.44647006744687445  0.6522022371289538  1.0000
  H   H4        1.0  0.08239713746348801  0.05342018554362231  0.34719544560663  1.0000
  H   H5        1.0  0.19073589546133723  0.4215527076465478  0.4760280398530554  1.0000
  H   H6        1.0  0.7162551410228702  0.0784381257910809  0.52437105115348  1.0000
  H   H7        1.0  0.8092680965991479  0.5784468122865717  0.5239700477137603  1.0000
  H   H8        1.0  0.2837263169709345  0.9215655047821586  0.475632199010569  1.0000
  H   H9        1.0  0.329231588048323  0.22619201527032828  0.4516382397674121  1.0000
  H   H10       1.0  0.8789803214479195  0.2737850249872551  0.5485562615304076  1.0000
  H   H11       1.0  0.6707673537567942  0.7738066843464534  0.5483595724322967  1.0000
  H   H12       1.0  0.12101608882682062  0.7262145034947594  0.451448157464533  1.0000
  H   H13       1.0  0.5601799592674014  0.1530949568778226  0.2984189791973009  1.0000
  H   H14       1.0  0.2634312215425468  0.346928394146886  0.7015575320599368  1.0000
  H   H15       1.0  0.4398190262244981  0.8469053846491332  0.7015796736792765  1.0000
  H   H16       1.0  0.7365777628436945  0.6530703069526709  0.2984422134593387  1.0000
  C   C1        1.0  0.45213195349091256  0.4260784351822409  0.2494744893026279  1.0000
  C   C2        1.0  0.20388077244283664  0.07403938085521129  0.7508321600761647  1.0000
  C   C3        1.0  0.5478670609657925  0.5739227259196653  0.750523472281273  1.0000
  C   C4        1.0  0.7961131438032539  0.9259601440357771  0.24916918178294623  1.0000
  C   C5        1.0  0.32831087319156893  0.46726568164272225  0.3366895617522445  1.0000
  C   C6        1.0  0.9923605283205676  0.03283847049615219  0.6637960021616182  1.0000
  C   C7        1.0  0.671685604028852  0.5327346590534958  0.663308237250739  1.0000
  C   C8        1.0  0.007630802254844597  0.9671585929990698  0.3362050775271186  1.0000
  C   C9        1.0  0.2888217464826682  0.39320982249674324  0.4077735766743515  1.0000
  C   C10       1.0  0.8821898363756163  0.106832397687775  0.5926245588838484  1.0000
  C   C11       1.0  0.711179756775927  0.6067905180207731  0.5922244479010033  1.0000
  C   C12       1.0  0.11780159106858432  0.8931679477876102  0.40737671998380165  1.0000
  C   C13       1.0  0.3701216811094596  0.2808699997663311  0.39387213021689854  1.0000
  C   C14       1.0  0.9776464843495916  0.219124670812306  0.6063295043548962  1.0000
  C   C15       1.0  0.6298823062034133  0.7191295210868774  0.606126698437322  1.0000
  C   C16       1.0  0.022347412906057695  0.7808748577590592  0.3936748018538552  1.0000
  C   C17       1.0  0.49626979846698305  0.23939411473596547  0.3089362311945862  1.0000
  C   C18       1.0  0.18914989614565775  0.26062142087164364  0.6911090678861173  1.0000
  C   C19       1.0  0.503731704791612  0.7606062257815506  0.6910617933807686  1.0000
  C   C20       1.0  0.8108440106052087  0.7393781058595296  0.30889375614781045  1.0000
  C   C21       1.0  0.6981445251191546  0.8136271332910638  0.2361696327141658  1.0000
  C   C22       1.0  0.4637129259988627  0.6863333534530797  0.7637532366027601  1.0000
  C   C23       1.0  0.3018569012193951  0.1863715717569221  0.7638327387961894  1.0000
  C   C24       1.0  0.5362860837102303  0.3136678085689155  0.2362454660685458  1.0000
  N   N1        1.0  0.5111665890183374  0.4751181716604337  0.16510144354452191  1.0000
  N   N2        1.0  0.34712866041716955  0.025039438207969097  0.8352063250141911  1.0000
  N   N3        1.0  0.48883744672892965  0.5248829901828599  0.8348974846991553  1.0000
  N   N4        1.0  0.6528728043813957  0.9749600845747822  0.164793873028664  1.0000
  N   N5        1.0  0.3790040254708559  0.6036970636024321  0.8960476597578692  1.0000
  N   N6        1.0  0.4814634663828343  0.8962006181594546  0.1038274993626658  1.0000
  N   N7        1.0  0.620997468292515  0.3963032787552692  0.1039518469923024  1.0000
  N   N8        1.0  0.5185430002367114  0.10379808394954892  0.8961728744578394  1.0000
  N   N9        1.0  0.5014923294520699  0.7987975530354415  0.1441883912971491  1.0000
  N   N10       1.0  0.3591700349294059  0.7011699973382903  0.8558071425862012  1.0000
  N   N11       1.0  0.4985141371674757  0.2012011490735617  0.8558119825233561  1.0000
  N   N12       1.0  0.640828974779687  0.29883116468370474  0.1441915600851047  1.0000
