data_image0
_chemical_formula_structural       Zn2H44C36N4O14
_chemical_formula_sum              "Zn2 H44 C36 N4 O14"
_cell_length_a       5.955464773445037
_cell_length_b       8.11106837364163
_cell_length_c       20.29696292434098
_cell_angle_alpha    89.99810058293919
_cell_angle_beta     98.37357376167597
_cell_angle_gamma    90.00124512229266

_space_group_name_H-M_alt    "P 1"
_space_group_IT_number       1

loop_
  _space_group_symop_operation_xyz
  'x, y, z'

loop_
  _atom_site_type_symbol
  _atom_site_label
  _atom_site_symmetry_multiplicity
  _atom_site_fract_x
  _atom_site_fract_y
  _atom_site_fract_z
  _atom_site_occupancy
  Zn  Zn1       1.0  0.0005152029030313434  0.1752361517489831  0.7536689974536588  1.0000
  Zn  Zn2       1.0  0.9994533062513683  0.6752223216423374  0.24632690884530467  1.0000
  H   H1        1.0  0.47539769620720307  0.32071163476754083  0.8899826242870007  1.0000
  H   H2        1.0  0.5245838112335903  0.8207060432805875  0.11001044579446531  1.0000
  H   H3        1.0  0.10519208609034082  0.36296027512994294  0.8575951574708897  1.0000
  H   H4        1.0  0.8947916463015559  0.8629616833307594  0.14240346786009186  1.0000
  H   H5        1.0  0.06987818080813213  0.17164174646185873  0.8799612979259238  1.0000
  H   H6        1.0  0.9301036311363403  0.6716475112156741  0.12003402584982582  1.0000
  H   H7        1.0  0.40552937471804995  0.9513085271378047  0.8635781580441845  1.0000
  H   H8        1.0  0.5944276456871762  0.45129915621909317  0.13642520124034974  1.0000
  H   H9        1.0  0.6456629031272243  0.0523593873135226  0.9087155891692902  1.0000
  H   H10       1.0  0.35432335029022966  0.5523608050969032  0.09128018726677571  1.0000
  H   H11       1.0  0.6024601122604238  0.18346025891549542  0.022245170048712706  1.0000
  H   H12       1.0  0.3975814590448223  0.683474466076781  0.9777520086161218  1.0000
  H   H13       1.0  0.3905090769634398  0.18975173384069421  0.1184609206873546  1.0000
  H   H14       1.0  0.6095592679211562  0.6897768925613122  0.881544980161614  1.0000
  H   H15       1.0  0.0448734563731676  0.11685399146866618  0.1597534746097438  1.0000
  H   H16       1.0  0.9551725185517481  0.6168504415300121  0.8402550819968866  1.0000
  H   H17       1.0  0.8560667419260214  0.9016189734897607  0.007949987521399717  1.0000
  H   H18       1.0  0.1439268540781171  0.4015751719204346  0.9920613260082263  1.0000
  H   H19       1.0  0.07233482482716624  0.8916366282403914  0.9119944589380325  1.0000
  H   H20       1.0  0.9276416101443913  0.3916205626466009  0.08801729837953333  1.0000
  H   H21       1.0  0.6190933368600184  0.8155095761181245  0.673207800720249  1.0000
  H   H22       1.0  0.3808946891408667  0.315518594182258  0.326796803467019  1.0000
  H   H23       1.0  0.6285823101616401  0.09198210321579842  0.6894095088154941  1.0000
  H   H24       1.0  0.3713903257639686  0.5919915202513979  0.310587880157442  1.0000
  H   H25       1.0  0.7832230012547114  0.0893241650622016  0.6287246875563426  1.0000
  H   H26       1.0  0.21675463022414482  0.5893184714336074  0.37127285105339786  1.0000
  H   H27       1.0  0.0915094037107309  0.8585307808863689  0.6332828618888372  1.0000
  H   H28       1.0  0.9084781272729429  0.35850455508418133  0.3667198184728804  1.0000
  H   H29       1.0  0.9549065560407897  0.6675862465667278  0.6379913884646413  1.0000
  H   H30       1.0  0.045096935330157406  0.1675709126688929  0.362014951015489  1.0000
  H   H31       1.0  0.49730102770288903  0.9363445499558694  0.5765545788063164  1.0000
  H   H32       1.0  0.502707642435368  0.4363472238509303  0.42343555316697495  1.0000
  H   H33       1.0  0.3312578221950132  0.9691296603287753  0.45982499586416026  1.0000
  H   H34       1.0  0.6687486554463505  0.4691404041645911  0.5401656104574997  1.0000
  H   H35       1.0  0.5872694333125564  0.8107892225874096  0.3236707706815949  1.0000
  H   H36       1.0  0.4127341977662127  0.31079259736169007  0.6763259235159113  1.0000
  H   H37       1.0  0.912772872902714  0.7337619591238037  0.39783486366179943  1.0000
  H   H38       1.0  0.0872507809663361  0.2337637063391398  0.6021667697908129  1.0000
  H   H39       1.0  0.08589900172643182  0.7025687947964555  0.5161710877944046  1.0000
  H   H40       1.0  0.9141139633393391  0.20256681551766323  0.4838341155677028  1.0000
  H   H41       1.0  0.781770255943435  0.3890639245223113  0.6719121666931755  1.0000
  H   H42       1.0  0.21821176904468587  0.8890410491635024  0.3280800345039765  1.0000
  H   H43       1.0  0.9293847850759107  0.49766889172612855  0.7234554281461882  1.0000
  H   H44       1.0  0.07060486134683688  0.9976553084188352  0.2765406202671414  1.0000
  C   C1        1.0  0.4896430577394996  0.21996879226566082  0.794126657028727  1.0000
  C   C2        1.0  0.5103353307467557  0.7199624814548004  0.2058686331913435  1.0000
  C   C3        1.0  0.3924612951930371  0.21898353940253654  0.8597260700830418  1.0000
  C   C4        1.0  0.6075171992970424  0.7189726553333813  0.14027020813919222  1.0000
  C   C5        1.0  0.459847449509823  0.0548347150826771  0.8971099619640628  1.0000
  C   C6        1.0  0.5401340117658648  0.5548330374945322  0.10288715011729721  1.0000
  C   C7        1.0  0.34906150137333464  0.041901811383617406  0.9590509078188205  1.0000
  C   C8        1.0  0.6509409140028737  0.5419012838172746  0.0409542258849456  1.0000
  C   C9        1.0  0.43815546961985763  0.12206185734230958  0.018367044166424804  1.0000
  C   C10       1.0  0.561869215466224  0.6220727681876638  0.9816329759398884  1.0000
  C   C11       1.0  0.3189630269492553  0.1267055324880957  0.07272151797324261  1.0000
  C   C12       1.0  0.6810709969940661  0.626717634749184  0.9272837271963326  1.0000
  C   C13       1.0  0.103972227654431  0.052834996824557806  0.0680557211339661  1.0000
  C   C14       1.0  0.8960851090486274  0.5528295834971786  0.9319530898030665  1.0000
  C   C15       1.0  0.0189112783056444  0.9644529394685151  0.010486647342276003  1.0000
  C   C16       1.0  0.9810728213181292  0.46443488175347625  0.9895259467818323  1.0000
  C   C17       1.0  0.1404129072450786  0.9597315373040446  0.9568614493719779  1.0000
  C   C18       1.0  0.85959125488165  0.4597173312683934  0.04313893387709561  1.0000
  C   C19       1.0  0.9011129609900693  0.8164714564112145  0.7505838953903067  1.0000
  C   C20       1.0  0.09888965989935627  0.3164689162346619  0.2494162279045966  1.0000
  C   C21       1.0  0.790996176037602  0.8693600351427763  0.6803861480734454  1.0000
  C   C22       1.0  0.20899321400042933  0.3693567850667065  0.3196151262197803  1.0000
  C   C23       1.0  0.9227650801086895  0.799214475229654  0.6274335998155607  1.0000
  C   C24       1.0  0.07722168438816371  0.2992027017451022  0.3725660103491749  1.0000
  C   C25       1.0  0.8082538676258794  0.8192517144573942  0.5561085925836693  1.0000
  C   C26       1.0  0.1917643910214224  0.3192489613563794  0.44389398804774777  1.0000
  C   C27       1.0  0.5941095238517987  0.8917970454959275  0.5385047273672683  1.0000
  C   C28       1.0  0.4058829102118722  0.39179055977797367  0.4614887841406912  1.0000
  C   C29       1.0  0.4962293003878173  0.9096702623469994  0.4721501917094812  1.0000
  C   C30       1.0  0.5037961091341073  0.4096758875623863  0.5278453463919277  1.0000
  C   C31       1.0  0.6109881054067543  0.8524376191144896  0.4213147446651462  1.0000
  C   C32       1.0  0.3890300359530271  0.3524390236393771  0.5786790057309545  1.0000
  C   C33       1.0  0.8231907246279137  0.7763367413446218  0.43773610926966466  1.0000
  C   C34       1.0  0.17683177358747318  0.27632937225168774  0.562270975965248  1.0000
  C   C35       1.0  0.9197506592254853  0.7612461202625197  0.5042339815880439  1.0000
  C   C36       1.0  0.0802509156492164  0.2612365475981946  0.49576011034496054  1.0000
  N   N1        1.0  0.14615021978870862  0.24242981833322122  0.8477481709148621  1.0000
  N   N2        1.0  0.8538256907254932  0.742432650938703  0.15224806266202512  1.0000
  N   N3        1.0  0.7797641189660568  0.05114501734924911  0.6765495186156798  1.0000
  N   N4        1.0  0.22020908639672843  0.5511439289768063  0.3234497996778671  1.0000
  O   O1        1.0  0.356301231629459  0.18985453419773532  0.7387317792232082  1.0000
  O   O2        1.0  0.6436767499406955  0.6898479286405249  0.261267891738278  1.0000
  O   O3        1.0  0.6978946563079517  0.2471525273403827  0.7980043407780855  1.0000
  O   O4        1.0  0.3020901056866733  0.747152594335688  0.20199365126241287  1.0000
  O   O5        1.0  0.9693386238746126  0.06396364649285861  0.11661752543387391  1.0000
  O   O6        1.0  0.030693869360334237  0.5639581741543296  0.8833920174980039  1.0000
  O   O7        1.0  0.004914721025883815  0.9224972082264173  0.7889922392642674  1.0000
  O   O8        1.0  0.9950809559030345  0.4224867476594483  0.2110048692286881  1.0000
  O   O9        1.0  0.8766841679950585  0.6655860331148347  0.7657180531136163  1.0000
  O   O10       1.0  0.12335126462025407  0.1655901465077889  0.23428778615767243  1.0000
  O   O11       1.0  0.5105466279564368  0.8742817719238118  0.35684747065000283  1.0000
  O   O12       1.0  0.48946413686007156  0.3742919501408651  0.6431485508896131  1.0000
  O   O13       1.0  0.9403487627157858  0.3984391499236892  0.6946642933374889  1.0000
  O   O14       1.0  0.05963874248870841  0.898419210226635  0.30532858337075913  1.0000
