data_image0
_chemical_formula_structural       Cu4H28C40N8O14
_chemical_formula_sum              "Cu4 H28 C40 N8 O14"
_cell_length_a       7.2215504843913445
_cell_length_b       9.954306758544085
_cell_length_c       13.778448598855144
_cell_angle_alpha    93.59008522952799
_cell_angle_beta     99.11262439628207
_cell_angle_gamma    103.76542201580506

_space_group_name_H-M_alt    "P 1"
_space_group_IT_number       1

loop_
  _space_group_symop_operation_xyz
  'x, y, z'

loop_
  _atom_site_type_symbol
  _atom_site_label
  _atom_site_symmetry_multiplicity
  _atom_site_fract_x
  _atom_site_fract_y
  _atom_site_fract_z
  _atom_site_occupancy
  Cu  Cu1       1.0  0.6623502985641351  0.3852520187985817  0.11943981999245779  1.0000
  Cu  Cu2       1.0  0.33766631106350076  0.6147385419754343  0.8805501584089939  1.0000
  Cu  Cu3       1.0  0.8914692486711997  0.33012395749231166  0.8120561582365369  1.0000
  Cu  Cu4       1.0  0.1085361208837838  0.6698707175408104  0.1879309474839843  1.0000
  H   H1        1.0  0.7871635676393751  0.8018884029944079  0.8284637331785591  1.0000
  H   H2        1.0  0.21284620895906403  0.19810906678867474  0.1715797482495063  1.0000
  H   H3        1.0  0.9118624843917831  0.8748622348975136  0.6733641344210924  1.0000
  H   H4        1.0  0.08816196909566539  0.1251819787449477  0.3266908067085624  1.0000
  H   H5        1.0  0.021450076803716862  0.7034736878885824  0.5702635467943651  1.0000
  H   H6        1.0  0.9785577088573872  0.29659658313460824  0.42976231501668855  1.0000
  H   H7        1.0  0.007344791903406583  0.4648483824346172  0.6270626032015088  1.0000
  H   H8        1.0  0.9926671424375896  0.5352023922486352  0.3729277914122732  1.0000
  H   H9        1.0  0.8269918415589501  0.9598076391766314  0.9976303483260268  1.0000
  H   H10       1.0  0.17296864574147724  0.04014513512326801  0.002377235198793  1.0000
  H   H11       1.0  0.7322608787591136  0.8183581961676227  0.1345972078400521  1.0000
  H   H12       1.0  0.26766117295034764  0.18162134691981183  0.865416607575078  1.0000
  H   H13       1.0  0.5581151045187057  0.9137871049112863  0.257818054655452  1.0000
  H   H14       1.0  0.44185767723402597  0.0862425487546261  0.7421964768656438  1.0000
  H   H15       1.0  0.5299385885177089  0.15919798879583172  0.250972866639863  1.0000
  H   H16       1.0  0.4700828169893469  0.8408393008492395  0.7490227007296539  1.0000
  H   H17       1.0  0.22118985123337612  0.17101011206062114  0.6326939220643268  1.0000
  H   H18       1.0  0.7788134203259887  0.828986629847634  0.3672931178814309  1.0000
  H   H19       1.0  0.6426144816007379  0.9591531942656817  0.48763746139235314  1.0000
  H   H20       1.0  0.3573856344237995  0.040838323681398905  0.5123519721814276  1.0000
  H   H21       1.0  0.4663591656955929  0.7039007106327871  0.40908691516743545  1.0000
  H   H22       1.0  0.5336268802194014  0.29609492168363977  0.5908972422481327  1.0000
  H   H23       1.0  0.6036289463511861  0.30638598142826373  0.4194079101110901  1.0000
  H   H24       1.0  0.3963627113985523  0.693609681416021  0.5805759713851444  1.0000
  H   H25       1.0  0.6784701607958253  0.6181613887397291  0.1759560672960632  1.0000
  H   H26       1.0  0.32154438791322804  0.381827050416753  0.8240394482247597  1.0000
  H   H27       1.0  0.7106726058810082  0.6087493403364095  0.0542401700316759  1.0000
  H   H28       1.0  0.28933594347375896  0.3912338837543814  0.9457538833902106  1.0000
  C   C1        1.0  0.7605439951576471  0.5473419695115284  0.8965128787736845  1.0000
  C   C2        1.0  0.23945091392536705  0.45263803193466146  0.1034871839422635  1.0000
  C   C3        1.0  0.834861632634734  0.598664024252905  0.8071843617350396  1.0000
  C   C4        1.0  0.16515137525991716  0.40133572303061266  0.1928290068804159  1.0000
  C   C5        1.0  0.8388647227532146  0.7321308177260876  0.781457391585441  1.0000
  C   C6        1.0  0.16115654264113738  0.2678803053842245  0.2185709873600601  1.0000
  C   C7        1.0  0.907425979961623  0.7713630102837359  0.6956587596075182  1.0000
  C   C8        1.0  0.09259865527715759  0.22867402447909774  0.30438132648009747  1.0000
  C   C9        1.0  0.9686491164671907  0.6760808124457258  0.6379936363486891  1.0000
  C   C10       1.0  0.031374362813338025  0.32397398336963323  0.36202836202404853  1.0000
  C   C11       1.0  0.9611182861131624  0.5440880516776048  0.6683756360137282  1.0000
  C   C12       1.0  0.03890008955239915  0.45595226360563146  0.3316321768159511  1.0000
  C   C13       1.0  0.779084369141593  0.22286091605576533  0.9763286965125816  1.0000
  C   C14       1.0  0.2209198818230647  0.7771140124785418  0.023659524172096307  1.0000
  C   C15       1.0  0.7293700587230062  0.13202299203545212  0.05378995315420099  1.0000
  C   C16       1.0  0.2706234043307632  0.867957029232649  0.9462056402613187  1.0000
  C   C17       1.0  0.7601506349439403  0.9992421981167185  0.05497433668955411  1.0000
  C   C18       1.0  0.23981797368047353  0.0007303685288845995  0.9450305162534678  1.0000
  C   C19       1.0  0.7040217471310015  0.9203906797009013  0.1304382120586425  1.0000
  C   C20       1.0  0.2959318999152458  0.07959942891742602  0.8695728420252067  1.0000
  C   C21       1.0  0.6135356116828845  0.9738508866849148  0.2004883913987001  1.0000
  C   C22       1.0  0.38643738724812937  0.026159070942206607  0.7995201063895081  1.0000
  C   C23       1.0  0.5920388432339436  0.10913333738743351  0.19612419448426271  1.0000
  C   C24       1.0  0.40796078000350616  0.8908809504451868  0.8038779343865842  1.0000
  C   C25       1.0  0.8413432869752667  0.145117584525515  0.6435270553822791  1.0000
  C   C26       1.0  0.15866139615688726  0.8548791595239253  0.3564608232396935  1.0000
  C   C27       1.0  0.9240574425144245  0.0724199428748733  0.5681099063317276  1.0000
  C   C28       1.0  0.0759465637067932  0.9275746992687103  0.4318814435864624  1.0000
  C   C29       1.0  0.1254428092465218  0.09558794600158652  0.5744799046568403  1.0000
  C   C30       1.0  0.8745636368714359  0.90440567802348  0.42551013845043434  1.0000
  C   C31       1.0  0.7989223518249488  0.9766307829648256  0.4929163839450226  1.0000
  C   C32       1.0  0.2010823546016738  0.0233617813771971  0.5070756453214003  1.0000
  C   C33       1.0  0.5816349109371189  0.5148334242104654  0.30126518813566616  1.0000
  C   C34       1.0  0.4183697790863263  0.4851633154463571  0.698723416611152  1.0000
  C   C35       1.0  0.5414496880656899  0.5064715804002662  0.40430323014664543  1.0000
  C   C36       1.0  0.45854514162204657  0.4935251310903866  0.595681682241171  1.0000
  C   C37       1.0  0.4824359221588566  0.6155605649449641  0.4496463159154871  1.0000
  C   C38       1.0  0.5175561050571531  0.3844361290854509  0.5503390974944224  1.0000
  C   C39       1.0  0.5586936765517051  0.3911044120264578  0.4551844889405388  1.0000
  C   C40       1.0  0.44129974845452574  0.608892292930392  0.5448003108959085  1.0000
  N   N1        1.0  0.7960763416117799  0.42494685913565194  0.9138524992556541  1.0000
  N   N2        1.0  0.203925476347429  0.575029083124555  0.0861377543647848  1.0000
  N   N3        1.0  0.7435041633203524  0.34869550034956387  0.9881493498931347  1.0000
  N   N4        1.0  0.25649553169866823  0.6512783598266979  0.011839905723100199  1.0000
  N   N5        1.0  0.8962934902586851  0.5074407226752129  0.7510684741114916  1.0000
  N   N6        1.0  0.10372819706886095  0.49257266486791457  0.24892956691864043  1.0000
  N   N7        1.0  0.6507633153867688  0.186438084769236  0.1252739618119776  1.0000
  N   N8        1.0  0.34924388344632007  0.8135575928428623  0.8747205973723313  1.0000
  O   O1        1.0  0.6744424833944577  0.6200285344438755  0.9446623324421992  1.0000
  O   O2        1.0  0.3255453481211887  0.3799389742781615  0.055336549203076395  1.0000
  O   O3        1.0  0.8488064017309115  0.17965611476261506  0.9035970939261377  1.0000
  O   O4        1.0  0.15119259308270466  0.8203198232152219  0.0963914823418719  1.0000
  O   O5        1.0  0.9716849905422292  0.234083183261042  0.7077845642780218  1.0000
  O   O6        1.0  0.02831964240991168  0.7659385819289001  0.2921878501001771  1.0000
  O   O7        1.0  0.6627385144832659  0.1178945615655351  0.6419328673354202  1.0000
  O   O8        1.0  0.33726869745279225  0.8820802833987358  0.3580715531985276  1.0000
  O   O9        1.0  0.5797296886534227  0.6262040322297225  0.2619364752072073  1.0000
  O   O10       1.0  0.4202760159113836  0.3737916959526333  0.7380485318027825  1.0000
  O   O11       1.0  0.6142236447414432  0.40546565476124397  0.2587564199326664  1.0000
  O   O12       1.0  0.38578316133090595  0.5945331713721488  0.7412324566935097  1.0000
  O   O13       1.0  0.7555113326570082  0.5874194250601125  0.12449800853023871  1.0000
  O   O14       1.0  0.24450566546067173  0.41256382505566347  0.8754988985744276  1.0000
