data_image0
_chemical_formula_structural       Hg2H44C56S4N8O8
_chemical_formula_sum              "Hg2 H44 C56 S4 N8 O8"
_cell_length_a       8.49038666849595
_cell_length_b       12.229574658006658
_cell_length_c       12.814938834429345
_cell_angle_alpha    90.00005137308013
_cell_angle_beta     98.03821426056533
_cell_angle_gamma    89.99988585453882

_space_group_name_H-M_alt    "P 1"
_space_group_IT_number       1

loop_
  _space_group_symop_operation_xyz
  'x, y, z'

loop_
  _atom_site_type_symbol
  _atom_site_label
  _atom_site_symmetry_multiplicity
  _atom_site_fract_x
  _atom_site_fract_y
  _atom_site_fract_z
  _atom_site_occupancy
  Hg  Hg1       1.0  0.5000004767421444  0.4999982369375715  7.585700249227518e-08  1.0000
  Hg  Hg2       1.0  0.4999988220743532  1.5233572626000005e-06  0.5000002400467238  1.0000
  H   H1        1.0  0.4979485012783512  0.761622575418379  0.7619967429911014  1.0000
  H   H2        1.0  0.5020549227705972  0.2616264313884997  0.7380029117635658  1.0000
  H   H3        1.0  0.5020525361583665  0.2383751842735222  0.2380021441557858  1.0000
  H   H4        1.0  0.4979496831217603  0.7383778698204965  0.26199630925941625  1.0000
  H   H5        1.0  0.5421750421910262  0.591271522540943  0.6668254172310526  1.0000
  H   H6        1.0  0.4578300396625962  0.0912706226995894  0.8331734655862489  1.0000
  H   H7        1.0  0.45782718971925357  0.40872950790879514  0.3331712406549627  1.0000
  H   H8        1.0  0.5421745629076822  0.9087304077504328  0.16682731580456792  1.0000
  H   H9        1.0  0.7394467063978639  0.45346041766402584  0.7496395520197154  1.0000
  H   H10       1.0  0.2605538131743756  0.9534601501937987  0.7503599961909017  1.0000
  H   H11       1.0  0.26055314321057915  0.5465397950980558  0.2503584436521322  1.0000
  H   H12       1.0  0.7394472209313036  0.0465408802585401  0.24964045132579568  1.0000
  H   H13       1.0  0.8849841154567956  0.4870421082081649  0.9284387739233678  1.0000
  H   H14       1.0  0.11501393148123638  0.9870443278826073  0.5715613522027425  1.0000
  H   H15       1.0  0.1150121640248827  0.5129572868666727  0.0715596680585193  1.0000
  H   H16       1.0  0.8849871042854857  0.012958337949214603  0.4284383151300375  1.0000
  H   H17       1.0  0.9923538916422956  0.808794492928058  0.1807019441843849  1.0000
  H   H18       1.0  0.0076469352716302  0.3087950209942321  0.3193011216408763  1.0000
  H   H19       1.0  0.007648328623908197  0.19120735521416782  0.8193001749927546  1.0000
  H   H20       1.0  0.9923505303683271  0.6912068271503456  0.6806989920019504  1.0000
  H   H21       1.0  0.17125510510645367  0.8533428868650221  0.34820323312114  1.0000
  H   H22       1.0  0.8287455997722901  0.35334539217976163  0.1517998596514047  1.0000
  H   H23       1.0  0.8287494941417461  0.14665487282603357  0.6517991086375119  1.0000
  H   H24       1.0  0.17125067638171027  0.646654820585738  0.848200142699561  1.0000
  H   H25       1.0  0.0893975334117201  0.5325706000856486  0.4665770225145636  1.0000
  H   H26       1.0  0.9106028640037066  0.0325736989421586  0.03342420456743873  1.0000
  H   H27       1.0  0.9106035023628392  0.4674263419166922  0.5334226448164827  1.0000
  H   H28       1.0  0.0893957878012515  0.9674256961326082  0.9665775807348425  1.0000
  H   H29       1.0  0.8987681071205742  0.49176641902805324  0.3046066236594669  1.0000
  H   H30       1.0  0.10123103241098619  0.9917679560327886  0.1953948811829846  1.0000
  H   H31       1.0  0.10123173749690298  0.5082346114250598  0.6953937125658598  1.0000
  H   H32       1.0  0.8987700000302895  0.0082338921098497  0.8046063465183693  1.0000
  H   H33       1.0  0.584600931229467  0.8044282413686404  0.03204686379072541  1.0000
  H   H34       1.0  0.41539753532233437  0.3044283441415133  0.46795285607293374  1.0000
  H   H35       1.0  0.41539653607488697  0.19557278908564507  0.9679524696674449  1.0000
  H   H36       1.0  0.5846035021087843  0.6955735040000165  0.5320460310751898  1.0000
  H   H37       1.0  0.5501188733385121  0.878921864383422  0.9110536030664989  1.0000
  H   H38       1.0  0.4498794681104386  0.37892565302439624  0.5889472378441241  1.0000
  H   H39       1.0  0.4498774061454114  0.12107589531156292  0.08894483891489098  1.0000
  H   H40       1.0  0.550122755480075  0.6210778304969511  0.4110533209646903  1.0000
  H   H41       1.0  0.7443476330151454  0.869638530146517  0.9835463582542444  1.0000
  H   H42       1.0  0.25564836320359063  0.36964251979587465  0.5164503535362925  1.0000
  H   H43       1.0  0.255649839283535  0.13035922954696844  0.016450634649707793  1.0000
  H   H44       1.0  0.7443502952500082  0.6303601460371269  0.4835483110293382  1.0000
  C   C1        1.0  0.773179545964844  0.6433665189145614  0.946810140682551  1.0000
  C   C2        1.0  0.2268170617708023  0.1433697651832304  0.5531903351611405  1.0000
  C   C3        1.0  0.22681792300839726  0.3566304230897259  0.053188412589968  1.0000
  C   C4        1.0  0.7731839723315163  0.8566337183388841  0.44681011235629603  1.0000
  C   C5        1.0  0.663678642875226  0.722677589393058  0.8997704141748812  1.0000
  C   C6        1.0  0.336315366963305  0.2226799104275942  0.6002306672443183  1.0000
  C   C7        1.0  0.3363188194448909  0.2773193526126931  0.10023125983529009  1.0000
  C   C8        1.0  0.663682100341049  0.7773211200266914  0.39976866621385204  1.0000
  C   C9        1.0  0.5838484890956225  0.7018502171665162  0.7985762237610672  1.0000
  C   C10       1.0  0.4161515285645264  0.20185170473725123  0.7014238411477437  1.0000
  C   C11       1.0  0.4161501677002946  0.298148360217219  0.20142322098773494  1.0000
  C   C12       1.0  0.5838506983547942  0.798150143403511  0.2985751572917508  1.0000
  C   C13       1.0  0.6104341588193734  0.606282663048603  0.743917740518782  1.0000
  C   C14       1.0  0.38956849794424636  0.1062842385960749  0.7560832693497802  1.0000
  C   C15       1.0  0.38956806644115  0.39371591433282305  0.2560820381041324  1.0000
  C   C16       1.0  0.6104349151378301  0.8937167918547219  0.24391740074966614  1.0000
  C   C17       1.0  0.7195676363105361  0.5293355340953951  0.790304281177761  1.0000
  C   C18       1.0  0.28043285558507586  0.029338034982636405  0.7096948991953127  1.0000
  C   C19       1.0  0.2804345872878216  0.47066222559646337  0.2096962776293267  1.0000
  C   C20       1.0  0.7195681818471655  0.9706629954689705  0.2903039879525693  1.0000
  C   C21       1.0  0.8011069831523728  0.5475724632892495  0.8911496049833686  1.0000
  C   C22       1.0  0.1988886991713983  0.04757416495203871  0.6088499214396279  1.0000
  C   C23       1.0  0.198889294667147  0.4524261140960279  0.10884961718268468  1.0000
  C   C24       1.0  0.801112338258598  0.9524285008794209  0.39114896570873736  1.0000
  C   C25       1.0  0.8239060002894902  0.6241577488325093  0.13311452686905062  1.0000
  C   C26       1.0  0.17609176892750614  0.12415972364262023  0.3668857528451994  1.0000
  C   C27       1.0  0.176095037146105  0.3758408285493218  0.8668843602780854  1.0000
  C   C28       1.0  0.8239056983746094  0.8758429421915181  0.6331135806134611  1.0000
  C   C29       1.0  0.9330946357947029  0.6484750003790368  0.23224945459124774  1.0000
  C   C30       1.0  0.06690782310002422  0.1484762158361761  0.2677520651818313  1.0000
  C   C31       1.0  0.0669087772884964  0.3515252123818301  0.7677512155079499  1.0000
  C   C32       1.0  0.9330908320292509  0.8515248146177046  0.7322481597521175  1.0000
  C   C33       1.0  0.012488923421130902  0.7493704032522787  0.2443297932842228  1.0000
  C   C34       1.0  0.9875108784471465  0.24937278603140817  0.2556723451210416  1.0000
  C   C35       1.0  0.9875133001749886  0.25062899181943277  0.755670765523348  1.0000
  C   C36       1.0  0.012485396042450202  0.7506282444243766  0.7443284374145805  1.0000
  C   C37       1.0  0.11203322522813149  0.7743180973644358  0.336964214866633  1.0000
  C   C38       1.0  0.8879676977884686  0.27432053121746947  0.16303804992052315  1.0000
  C   C39       1.0  0.8879701878584285  0.22567966232665534  0.6630364552318184  1.0000
  C   C40       1.0  0.1120285767022438  0.7256796815483922  0.8369627326148504  1.0000
  C   C41       1.0  0.134713045884709  0.6951812700166257  0.4162196500566111  1.0000
  C   C42       1.0  0.8652892834026602  0.19518284337227954  0.08378267815293576  1.0000
  C   C43       1.0  0.8652903655374544  0.30481730736475754  0.5837818002265038  1.0000
  C   C44       1.0  0.13470818057849246  0.8048157340129547  0.9162182156733181  1.0000
  C   C45       1.0  0.06225063743080741  0.5928498734752737  0.4044722043826354  1.0000
  C   C46       1.0  0.9377495948612661  0.0928521752071489  0.09552905916118698  1.0000
  C   C47       1.0  0.9377503966782258  0.407148703907282  0.595528243133316  1.0000
  C   C48       1.0  0.062249058606973114  0.9071472198672483  0.9044719459566863  1.0000
  C   C49       1.0  0.958913764446784  0.5704952029701715  0.31335538983847744  1.0000
  C   C50       1.0  0.04108771857170978  0.0704963782347647  0.1866459714743627  1.0000
  C   C51       1.0  0.041088459148212984  0.42950500979146994  0.686645168969349  1.0000
  C   C52       1.0  0.958912124383609  0.929503834528788  0.8133551449351302  1.0000
  C   C53       1.0  0.6332992865027123  0.8244138012133391  0.9592842840308577  1.0000
  C   C54       1.0  0.3666968286115305  0.3244176598495088  0.5407147409570854  1.0000
  C   C55       1.0  0.3666958018308435  0.17558314079285964  0.0407148268433346  1.0000
  C   C56       1.0  0.6333030209901834  0.6755874590521317  0.4592832547162402  1.0000
  S   S1        1.0  0.6592744010231613  0.5461772406257809  0.16095917070312282  1.0000
  S   S2        1.0  0.34072238899551616  0.0461773260800982  0.3390425109187234  1.0000
  S   S3        1.0  0.34072901372891806  0.4538188836850879  0.8390407192104234  1.0000
  S   S4        1.0  0.6592762628049582  0.9538253397543671  0.6609592743845524  1.0000
  N   N1        1.0  0.8599782575030446  0.662684779401424  0.04613553888690801  1.0000
  N   N2        1.0  0.14001821668644243  0.16268770327342716  0.45386465284069993  1.0000
  N   N3        1.0  0.14001921146795834  0.3373137979827163  0.9538630143861085  1.0000
  N   N4        1.0  0.8599804384394716  0.8373157802502293  0.5461355720939949  1.0000
  N   N5        1.0  0.2348072206712573  0.7187151812140088  0.516006612755433  1.0000
  N   N6        1.0  0.7651927474651572  0.21871563245784384  0.9839950227232634  1.0000
  N   N7        1.0  0.7651938117722638  0.28128503154876944  0.4839946149454306  1.0000
  N   N8        1.0  0.23480590766636314  0.7812837626161838  0.016005202210195104  1.0000
  O   O1        1.0  0.2573055218912117  0.644263711408776  0.5827432389203935  1.0000
  O   O2        1.0  0.742693454051718  0.1442633136277607  0.9172613609696966  1.0000
  O   O3        1.0  0.742696696713942  0.3557365013539667  0.4172596604406635  1.0000
  O   O4        1.0  0.25730638890583885  0.8557352637559321  0.0827397554392988  1.0000
  O   O5        1.0  0.29193996350449686  0.811914628329312  0.5300170252345424  1.0000
  O   O6        1.0  0.7080621316313227  0.3119151455454202  0.969983328833095  1.0000
  O   O7        1.0  0.7080622617537813  0.1880855844319598  0.46998275338886947  1.0000
  O   O8        1.0  0.29193771465055113  0.6880850672174006  0.0300162272075752  1.0000
