data_image0
_chemical_formula_structural       Zn4H44C56N8O16
_chemical_formula_sum              "Zn4 H44 C56 N8 O16"
_cell_length_a       7.492621067938341
_cell_length_b       13.256017978854867
_cell_length_c       16.33356522516843
_cell_angle_alpha    112.9498949036244
_cell_angle_beta     90.01814180728408
_cell_angle_gamma    106.4121850370248

_space_group_name_H-M_alt    "P 1"
_space_group_IT_number       1

loop_
  _space_group_symop_operation_xyz
  'x, y, z'

loop_
  _atom_site_type_symbol
  _atom_site_label
  _atom_site_symmetry_multiplicity
  _atom_site_fract_x
  _atom_site_fract_y
  _atom_site_fract_z
  _atom_site_occupancy
  Zn  Zn1       1.0  0.0518053237140848  0.6744554616829532  0.8232097351143254  1.0000
  Zn  Zn2       1.0  0.37714270435028396  0.3255085078037681  0.6767632649946549  1.0000
  Zn  Zn3       1.0  0.9481978204193452  0.3255477039914041  0.1767900842779042  1.0000
  Zn  Zn4       1.0  0.6228534251706677  0.6744886375799125  0.3232340107824783  1.0000
  H   H1        1.0  0.7972228123006528  0.47180637860224556  0.7728965694027468  1.0000
  H   H2        1.0  0.3252445680951652  0.5282155667058319  0.7272604285001592  1.0000
  H   H3        1.0  0.20277985567321372  0.5281985034466031  0.2271044126844615  1.0000
  H   H4        1.0  0.6747471082027089  0.4717806768661035  0.27274145569355573  1.0000
  H   H5        1.0  0.9609882621454561  0.48606112348449676  0.8495259931770534  1.0000
  H   H6        1.0  0.47446360151985806  0.5139112590908682  0.6505364528804591  1.0000
  H   H7        1.0  0.03901798643862258  0.513942913247959  0.1504728813184215  1.0000
  H   H8        1.0  0.5255302726428043  0.48608671115223967  0.34946537301284764  1.0000
  H   H9        1.0  0.45620568836535824  0.6904293438156089  0.08429267385098882  1.0000
  H   H10       1.0  0.7656044887805321  0.30961754564628297  0.415549981101762  1.0000
  H   H11       1.0  0.5437900376461542  0.3095643227022506  0.9157077718693003  1.0000
  H   H12       1.0  0.2344011088008243  0.6903718429153114  0.5844460320637593  1.0000
  H   H13       1.0  0.9194005179054656  0.5565459351947409  0.008174459654661268  1.0000
  H   H14       1.0  0.3626115647944843  0.4437702901229557  0.4921214476889447  1.0000
  H   H15       1.0  0.0806039128027862  0.443459802521744  0.9918274092423474  1.0000
  H   H16       1.0  0.6373924213751749  0.5562345561057427  0.5078838087359897  1.0000
  H   H17       1.0  0.5832524231433993  0.5894394943998333  0.8122372287773771  1.0000
  H   H18       1.0  0.993142663705747  0.41032053414084396  0.6876701099819159  1.0000
  H   H19       1.0  0.41674636628960826  0.4105576305541589  0.18776248963092002  1.0000
  H   H20       1.0  0.006846910897948504  0.5896688387302261  0.31232773371612405  1.0000
  H   H21       1.0  0.8384269703874593  0.8004247024646746  0.7767004023290911  1.0000
  H   H22       1.0  0.03836335053679819  0.19919035686061184  0.7230894892909774  1.0000
  H   H23       1.0  0.16157129715273302  0.19957671599971152  0.22330191756780243  1.0000
  H   H24       1.0  0.96163988271109  0.8008076494208752  0.2769080631184409  1.0000
  H   H25       1.0  0.6309507294777317  0.9175081165420875  0.846303710062891  1.0000
  H   H26       1.0  0.7138992903570979  0.0818837371795951  0.6534930375721686  1.0000
  H   H27       1.0  0.36905722669929014  0.0824993325096628  0.15369993245371213  1.0000
  H   H28       1.0  0.2860985995461859  0.9181142587506483  0.34650573561918196  1.0000
  H   H29       1.0  0.8205813492376776  0.9294560374565037  0.10053882280624996  1.0000
  H   H30       1.0  0.8907871630379418  0.07070696073360239  0.3993494598641263  1.0000
  H   H31       1.0  0.17941919822561658  0.07054193292299261  0.899463003620703  1.0000
  H   H32       1.0  0.10920616937117697  0.9292979364874867  0.6006496896626886  1.0000
  H   H33       1.0  0.02788531852975498  0.8135866114742356  0.019506709677010264  1.0000
  H   H34       1.0  0.2140788125754652  0.18661108053920117  0.48036748009177904  1.0000
  H   H35       1.0  0.9721151926084842  0.1864139565254135  0.9804941131258503  1.0000
  H   H36       1.0  0.7859185742513827  0.8133912498699372  0.5196290097527552  1.0000
  H   H37       1.0  0.54541447364452  0.9860127384723397  0.08638189867983205  1.0000
  H   H38       1.0  0.5590978092232817  0.013836911575914698  0.4135290901962208  1.0000
  H   H39       1.0  0.4545895606104365  0.0139895357415085  0.9136213083470539  1.0000
  H   H40       1.0  0.4409053009371318  0.9861688568396543  0.5864691149674925  1.0000
  H   H41       1.0  0.673018488956977  0.09842438287803645  0.05704433710452861  1.0000
  H   H42       1.0  0.5742630394999253  0.9014588188666082  0.4429301387803264  1.0000
  H   H43       1.0  0.32698730803236487  0.9015787470034408  0.942959756732158  1.0000
  H   H44       1.0  0.42573611241335385  0.09854437233122582  0.5570666272695775  1.0000
  C   C1        1.0  0.5001052966207735  0.6418811059593421  0.945205317961971  1.0000
  C   C2        1.0  0.8577644691491031  0.35805850843700426  0.5546584733905463  1.0000
  C   C3        1.0  0.49988466502801987  0.35811170993011376  0.05479363002390159  1.0000
  C   C4        1.0  0.1422340247053171  0.6419300192267912  0.4453372631426761  1.0000
  C   C5        1.0  0.5417056957720516  0.6558846364354309  0.033309077651068664  1.0000
  C   C6        1.0  0.885579095964239  0.34417379477937976  0.4666007310488781  1.0000
  C   C7        1.0  0.4582869351969947  0.3441081795085878  0.9666898705482653  1.0000
  C   C8        1.0  0.11442822332234923  0.6558190368278786  0.5333963865112068  1.0000
  C   C9        1.0  0.691365801582208  0.6238762992869625  0.0552651448488675  1.0000
  C   C10       1.0  0.06731849066930097  0.37625141238854093  0.44478616773466234  1.0000
  C   C11       1.0  0.30863075130889667  0.3761216914949443  0.9447342388401837  1.0000
  C   C12       1.0  0.9326842546587883  0.6237482846621276  0.5552156003918753  1.0000
  C   C13       1.0  0.8007407908623491  0.5785142350153691  0.9894398345472198  1.0000
  C   C14       1.0  0.22190596522936087  0.42164970259886286  0.5107210897611766  1.0000
  C   C15       1.0  0.19926325044875878  0.4214880545616709  0.010561540666387282  1.0000
  C   C16       1.0  0.7780972128770784  0.5783508603342824  0.48928034385956926  1.0000
  C   C17       1.0  0.7589785603537038  0.5641853566701442  0.901683919315204  1.0000
  C   C18       1.0  0.19435445137843735  0.4358980928356003  0.5984320202936787  1.0000
  C   C19       1.0  0.24102505523518394  0.43581608238759617  0.09831595859090206  1.0000
  C   C20       1.0  0.8056412312518688  0.5640981559392344  0.4015692536158042  1.0000
  C   C21       1.0  0.6089683219151069  0.5960004385136273  0.8799242130087919  1.0000
  C   C22       1.0  0.012447022336871824  0.4038900327776744  0.6200350583243335  1.0000
  C   C23       1.0  0.3910304675179078  0.40399668644036524  0.12007550539951242  1.0000
  C   C24       1.0  0.9875483236856866  0.5961002060849907  0.37996245129484413  1.0000
  C   C25       1.0  0.3389379011547787  0.6750467162999314  0.9213799718287774  1.0000
  C   C26       1.0  0.6633083084646856  0.3248415927036916  0.5783549304106046  1.0000
  C   C27       1.0  0.6610608038678691  0.3249555782890496  0.07862079235347609  1.0000
  C   C28       1.0  0.33668424985423673  0.6751564184806256  0.42164201054054457  1.0000
  C   C29       1.0  0.7325090720540359  0.6344618313539881  0.14870576309786537  1.0000
  C   C30       1.0  0.09812420248169222  0.3657049422915152  0.3513970331851369  1.0000
  C   C31       1.0  0.26749053720242705  0.36553960250086  0.8512947250924797  1.0000
  C   C32       1.0  0.9018812215748395  0.6342947752979525  0.6486022927371451  1.0000
  C   C33       1.0  0.8340618782405683  0.8335597166797938  0.8487117851135508  1.0000
  C   C34       1.0  0.0007392602355338208  0.16610365490104334  0.6510776616770428  1.0000
  C   C35       1.0  0.1659390609719296  0.16644170696021376  0.1512899243923727  1.0000
  C   C36       1.0  0.9992622149820606  0.8338935059549326  0.3489177827137268  1.0000
  C   C37       1.0  0.7169387172262488  0.8984572159955063  0.8885545969457738  1.0000
  C   C38       1.0  0.8187676086077502  0.10111989570148688  0.6112439458424817  1.0000
  C   C39       1.0  0.2830635566463684  0.10154420767177189  0.11144711266688741  1.0000
  C   C40       1.0  0.18122895133949862  0.8988781104436041  0.3887536060332907  1.0000
  C   C41       1.0  0.7082203517067711  0.9354766884008114  0.9808529954601043  1.0000
  C   C42       1.0  0.7727340207942602  0.0643284744206412  0.51898956721449  1.0000
  C   C43       1.0  0.2917814870354505  0.06452386426293089  0.019149659262765798  1.0000
  C   C44       1.0  0.227262072401622  0.935671268583185  0.4810067049385437  1.0000
  C   C45       1.0  0.8226818449462528  0.9043863980884838  0.02862402615861003  1.0000
  C   C46       1.0  0.9181127399249861  0.09556263342917497  0.47122656808352303  1.0000
  C   C47       1.0  0.17731917397251348  0.09560984567440299  0.9713778587822192  1.0000
  C   C48       1.0  0.08188330518559893  0.9044396815895012  0.5287717534675593  1.0000
  C   C49       1.0  0.9380340694959983  0.8401740223756915  0.9848414608951686  1.0000
  C   C50       1.0  0.09776008394366185  0.15980551560856068  0.5150084291429806  1.0000
  C   C51       1.0  0.06196691309769883  0.15982481900734066  0.015159420421568402  1.0000
  C   C52       1.0  0.9022377696345599  0.8401950779418427  0.4849893404242848  1.0000
  C   C53       1.0  0.5864672671476399  0.0071366117469083  0.028964072997524706  1.0000
  C   C54       1.0  0.5791930316156453  0.9927874776367671  0.47097221820187224  1.0000
  C   C55       1.0  0.4135319046263745  0.9928639459833375  0.9710379709074604  1.0000
  C   C56       1.0  0.4208070268835087  0.0072148579479858  0.5290236612516992  1.0000
  N   N1        1.0  0.8761962558434107  0.5272382420564198  0.8341673921445506  1.0000
  N   N2        1.0  0.3485563539415963  0.47277157578925977  0.6659436332432592  1.0000
  N   N3        1.0  0.12381041375878968  0.4727666349532029  0.1658342008672804  1.0000
  N   N4        1.0  0.6514379506473702  0.5272272552152658  0.3340584687486796  1.0000
  N   N5        1.0  0.9431907393384975  0.8042132804508527  0.8955486973200594  1.0000
  N   N6        1.0  0.13906591523742404  0.19569576979883146  0.6042813842988721  1.0000
  N   N7        1.0  0.05681015649278718  0.19579072544611614  0.104453840375065  1.0000
  N   N8        1.0  0.8609333163821304  0.804302241521874  0.3957155571859303  1.0000
  O   O1        1.0  0.3033859319202392  0.6555126312639387  0.8372467278455674  1.0000
  O   O2        1.0  0.6473230871084538  0.3441358016169502  0.662454599831456  1.0000
  O   O3        1.0  0.6966097167370506  0.3444862202521079  0.1627529318353993  1.0000
  O   O4        1.0  0.3526759276050626  0.6558751209885968  0.33754648259930065  1.0000
  O   O5        1.0  0.2432714187715491  0.718928797510273  0.9800749072140037  1.0000
  O   O6        1.0  0.5238334780679067  0.28118785649373734  0.5196265802983717  1.0000
  O   O7        1.0  0.7567352508306513  0.2810760794993498  0.01992668579782017  1.0000
  O   O8        1.0  0.47616532077329027  0.7188092889444986  0.4803706956922155  1.0000
  O   O9        1.0  0.6273377145100125  0.6810693302172622  0.20523368933555725  1.0000
  O   O10       1.0  0.9464977094168033  0.3188658271936617  0.2947189740967531  1.0000
  O   O11       1.0  0.3726463549844823  0.3189303869357544  0.7947656348790489  1.0000
  O   O12       1.0  0.053509869123310114  0.6811381993239464  0.7052811217143075  1.0000
  O   O13       1.0  0.8598806067013455  0.6000766625005484  0.16812910478388696  1.0000
  O   O14       1.0  0.2599491928090032  0.4003649508860718  0.33214123352119174  1.0000
  O   O15       1.0  0.1401188172700499  0.39993507477687  0.8318777491853595  1.0000
  O   O16       1.0  0.7400561421330635  0.599639926096266  0.6678603593839085  1.0000
