data_image0
_chemical_formula_structural       Mn4H16C32N32
_chemical_formula_sum              "Mn4 H16 C32 N32"
_cell_length_a       6.252732354074382
_cell_length_b       7.541263730122609
_cell_length_c       23.134694460116297
_cell_angle_alpha    90.00036363275807
_cell_angle_beta     89.9999757064705
_cell_angle_gamma    89.99944970691881

_space_group_name_H-M_alt    "P 1"
_space_group_IT_number       1

loop_
  _space_group_symop_operation_xyz
  'x, y, z'

loop_
  _atom_site_type_symbol
  _atom_site_label
  _atom_site_symmetry_multiplicity
  _atom_site_fract_x
  _atom_site_fract_y
  _atom_site_fract_z
  _atom_site_occupancy
  Mn  Mn1       1.0  0.21740538600452203  0.249999504077941  0.6670957228580574  1.0000
  Mn  Mn2       1.0  0.7174062082854674  0.750000171430642  0.8329043256536292  1.0000
  Mn  Mn3       1.0  0.7825973147129163  0.7500043383698554  0.3329042023230925  1.0000
  Mn  Mn4       1.0  0.282590095236948  0.2500023449969219  0.16709473502405095  1.0000
  H   H1        1.0  0.1520501383127879  0.2499989394692008  0.4450461113807334  1.0000
  H   H2        1.0  0.6520514123299677  0.7499981905704941  0.054953272630548576  1.0000
  H   H3        1.0  0.8479525624590135  0.7499956206979305  0.5549520847858886  1.0000
  H   H4        1.0  0.3479464905221263  0.24999902171659014  0.9450475170464326  1.0000
  H   H5        1.0  0.750662044723718  0.24999778049266297  0.4382238572408922  1.0000
  H   H6        1.0  0.25066368408907636  0.7500038567819656  0.06177638038252549  1.0000
  H   H7        1.0  0.24934225535612597  0.7499954536345043  0.5617747711754928  1.0000
  H   H8        1.0  0.7493358180184444  0.2500013117248443  0.9382244093026268  1.0000
  H   H9        1.0  0.5386058736179109  0.24999292790812427  0.5331090641618912  1.0000
  H   H10       1.0  0.03860685462502289  0.7499922801029439  0.9668914363403756  1.0000
  H   H11       1.0  0.4613968271611101  0.7500003062255087  0.46688956425457906  1.0000
  H   H12       1.0  0.9613942468892488  0.24999432386962178  0.03310935332542189  1.0000
  H   H13       1.0  0.7565265291800002  0.2500022196554638  0.6248293038819026  1.0000
  H   H14       1.0  0.2565228614127335  0.7499905095289635  0.8751707403005822  1.0000
  H   H15       1.0  0.24347937010230675  0.7500082529553252  0.37516932455227436  1.0000
  H   H16       1.0  0.7434750414699777  0.2500013986031319  0.12482961711967276  1.0000
  C   C1        1.0  0.05189229352328079  0.24999706774310934  0.4837568075390663  1.0000
  C   C2        1.0  0.5518920311417688  0.7499982196435296  0.016242587536176196  1.0000
  C   C3        1.0  0.9481136058501747  0.7499974924110971  0.5162413886273851  1.0000
  C   C4        1.0  0.4481090703047527  0.250000318664128  0.9837577698907862  1.0000
  C   C5        1.0  0.8283224592234647  0.2500005265783543  0.4802499104700288  1.0000
  C   C6        1.0  0.328320968323247  0.7500004831036475  0.019750318572711492  1.0000
  C   C7        1.0  0.17168184082646576  0.7499980116954175  0.519748285700629  1.0000
  C   C8        1.0  0.6716753351974062  0.25000203334488447  0.9802509033610886  1.0000
  C   C9        1.0  0.7133246920034892  0.24999883533608616  0.5313804818709966  1.0000
  C   C10       1.0  0.2133192729823392  0.7500008731838504  0.9686204315943666  1.0000
  C   C11       1.0  0.2866860052641584  0.7499970508448254  0.46861857879900964  1.0000
  C   C12       1.0  0.7866802291698746  0.2499963391051593  0.031381222584982986  1.0000
  C   C13       1.0  0.8325733177074709  0.25000282767421567  0.5825019630619861  1.0000
  C   C14       1.0  0.3325711804386913  0.7499932650438124  0.9174972082195506  1.0000
  C   C15       1.0  0.16743258158380306  0.7500063188820932  0.4174949363659265  1.0000
  C   C16       1.0  0.6674267224130546  0.250003947247464  0.08250401370865747  1.0000
  C   C17       1.0  0.4743816835170945  0.4017248012856668  0.7806711719998841  1.0000
  C   C18       1.0  0.974378024705821  0.5982674933564452  0.7193284158615396  1.0000
  C   C19       1.0  0.5256240835883332  0.9017348122189047  0.21932906807882083  1.0000
  C   C20       1.0  0.0256248083232791  0.09826333953577657  0.2806716266552128  1.0000
  C   C21       1.0  0.5256114214328846  0.5982724110166088  0.21932918542614022  1.0000
  C   C22       1.0  0.025627874674846396  0.40172574076425593  0.280670212554753  1.0000
  C   C23       1.0  0.4743770178650592  0.098262400059447  0.7806721538492095  1.0000
  C   C24       1.0  0.9743762931679428  0.9017272425540879  0.7193295952659394  1.0000
  C   C25       1.0  0.507455817300638  0.5985815263340368  0.6370295379132569  1.0000
  C   C26       1.0  0.0074545479859651  0.4014198458957097  0.8629731273035969  1.0000
  C   C27       1.0  0.4925454127579556  0.09859243484842035  0.3629705052709653  1.0000
  C   C28       1.0  0.9925416268627955  0.9014178559712318  0.13702754438151027  1.0000
  C   C29       1.0  0.49254688340677427  0.4014236421808233  0.3629734130278378  1.0000
  C   C30       1.0  0.9925369576257097  0.5985839965973268  0.13702679787817826  1.0000
  C   C31       1.0  0.5074524900274467  0.901416711761172  0.6370285554135078  1.0000
  C   C32       1.0  0.0074546766430785  0.09858731254850278  0.8629732453038198  1.0000
  N   N1        1.0  0.046595328553102895  0.25000202994414167  0.5829636507872846  1.0000
  N   N2        1.0  0.546594414860806  0.7499923957556688  0.9170351198370594  1.0000
  N   N3        1.0  0.9534073721581676  0.7500031385245759  0.4170345453903506  1.0000
  N   N4        1.0  0.4534034879995588  0.25000349048532655  0.08296480533610408  1.0000
  N   N5        1.0  0.1588886765080915  0.25000242495164565  0.5337782100429107  1.0000
  N   N6        1.0  0.658884484264149  0.7499950713906571  0.9662209804294617  1.0000
  N   N7        1.0  0.841118822098437  0.7500040695311936  0.4662195538846061  1.0000
  N   N8        1.0  0.34111181927199397  0.2500047929782879  0.03377980925036179  1.0000
  N   N9        1.0  0.41991038129473407  0.24999692026950973  0.7584546013939713  1.0000
  N   N10       1.0  0.9199097527313426  0.7500011187283987  0.7415462892451  1.0000
  N   N11       1.0  0.5800875215580631  0.75000029200919  0.2415453237805635  1.0000
  N   N12       1.0  0.08009294800809388  0.24999874561468965  0.25845450043436796  1.0000
  N   N13       1.0  0.5133781983734096  0.5459672060685392  0.7971215043631614  1.0000
  N   N14       1.0  0.013373390231706098  0.45403014018027216  0.7028789989392548  1.0000
  N   N15       1.0  0.4866300293546003  0.045972403330694085  0.20287799736717455  1.0000
  N   N16       1.0  0.9866333793258376  0.9540299790469289  0.29712091743269287  1.0000
  N   N17       1.0  0.4866133072602564  0.45403265831978956  0.20287928531692495  1.0000
  N   N18       1.0  0.9866293105001558  0.5459710502005207  0.29712179074159195  1.0000
  N   N19       1.0  0.5133646749123882  0.954022156877137  0.7971210633023345  1.0000
  N   N20       1.0  0.013372520024212502  0.045968559228761294  0.702878143240326  1.0000
  N   N21       1.0  0.43653244109081857  0.45463118611802134  0.6419384696054633  1.0000
  N   N22       1.0  0.9365371570156995  0.5453720226920636  0.8580637159558859  1.0000
  N   N23       1.0  0.5634679243402161  0.9546422576291604  0.3580614480259141  1.0000
  N   N24       1.0  0.0634630810608598  0.0453661966139975  0.14193881028677413  1.0000
  N   N25       1.0  0.563463862393057  0.5453779605064212  0.3580614555815415  1.0000
  N   N26       1.0  0.06345754719005468  0.4546331458257454  0.14193620922708305  1.0000
  N   N27       1.0  0.4365411735502462  0.045366888943583185  0.6419384771603871  1.0000
  N   N28       1.0  0.9365348217757585  0.9546336677526738  0.8580624116441836  1.0000
  N   N29       1.0  0.6001408398848724  0.7499960129904648  0.6288402582246275  1.0000
  N   N30       1.0  0.10014128522420408  0.2500006321108116  0.8711641257519599  1.0000
  N   N31       1.0  0.39985866221508093  0.25001048155404954  0.3711605314618963  1.0000
  N   N32       1.0  0.8998518196948027  0.7500018843506521  0.12883709618201777  1.0000
