data_image0
_chemical_formula_structural       CuH22C22N16O4
_chemical_formula_sum              "Cu1 H22 C22 N16 O4"
_cell_length_a       7.036224010551182
_cell_length_b       7.624189376911063
_cell_length_c       12.870648985068257
_cell_angle_alpha    89.08078707274537
_cell_angle_beta     106.03947778106475
_cell_angle_gamma    96.72951178163933

_space_group_name_H-M_alt    "P 1"
_space_group_IT_number       1

loop_
  _space_group_symop_operation_xyz
  'x, y, z'

loop_
  _atom_site_type_symbol
  _atom_site_label
  _atom_site_symmetry_multiplicity
  _atom_site_fract_x
  _atom_site_fract_y
  _atom_site_fract_z
  _atom_site_occupancy
  Cu  Cu1       1.0  0.5000006972814645  0.5000097277211282  0.49999908597083476  1.0000
  H   H1        1.0  0.3946436460819527  0.8304101341473853  0.950503296803852  1.0000
  H   H2        1.0  0.6053644484647335  0.1695815448158342  0.04949740307591805  1.0000
  H   H3        1.0  0.6315584671276326  0.8487149321225259  0.045142823695009285  1.0000
  H   H4        1.0  0.36844175629072135  0.15127260811105708  0.9548629255179435  1.0000
  H   H5        1.0  0.676943377391069  0.6185687990346763  0.7306856077776374  1.0000
  H   H6        1.0  0.32305481708974787  0.3814373613963652  0.2693151905384426  1.0000
  H   H7        1.0  0.1923050273933526  0.5750472387537471  0.8791475539213849  1.0000
  H   H8        1.0  0.8076968319389833  0.42494168810293326  0.12085610699376298  1.0000
  H   H9        1.0  0.9665556562880369  0.454143913374871  0.7011542489780638  1.0000
  H   H10       1.0  0.03344807565399323  0.5458597162557693  0.2988434817046368  1.0000
  H   H11       1.0  0.1142750587838748  0.4188167783339338  0.5476191830019488  1.0000
  H   H12       1.0  0.8857291073978786  0.58120140078438  0.45237784408409  1.0000
  H   H13       1.0  0.7981598616324134  0.412118095331138  0.9001578758303805  1.0000
  H   H14       1.0  0.2018371777498231  0.5878683200952252  0.099840407795881  1.0000
  H   H15       1.0  0.9982408431368553  0.2877823793888154  0.9407762691273689  1.0000
  H   H16       1.0  0.0017578610415114474  0.7122053134232402  0.0592238158116913  1.0000
  H   H17       1.0  0.31586936050232595  0.12015622028275168  0.6603140742272798  1.0000
  H   H18       1.0  0.6841314253826029  0.8798473649450996  0.3396847746615492  1.0000
  H   H19       1.0  0.3602631591235125  0.9539082692139901  0.7612289719381805  1.0000
  H   H20       1.0  0.6397322777200217  0.0460888642508195  0.2387636417911381  1.0000
  H   H21       1.0  0.5141545061672589  0.9854191505659884  0.6701320211769753  1.0000
  H   H22       1.0  0.48584296167827296  0.014581836195525  0.3298647809304995  1.0000
  C   C1        1.0  0.253082124826591  0.8066407133552714  0.43869332524145926  1.0000
  C   C2        1.0  0.7469063498030694  0.19338122742284716  0.5613083760825504  1.0000
  C   C3        1.0  0.19847899073187136  0.10069605915142427  0.43262142701052386  1.0000
  C   C4        1.0  0.8015160543713976  0.8993088453875089  0.5673765732515861  1.0000
  C   C5        1.0  0.5215815458185915  0.5812359580784374  0.7285112383833192  1.0000
  C   C6        1.0  0.4784222092291514  0.41876758416227483  0.2714896039878595  1.0000
  C   C7        1.0  0.45245033837651505  0.6041658522868758  0.8187854753409737  1.0000
  C   C8        1.0  0.5475464663744487  0.39582972048280135  0.18121588770121375  1.0000
  C   C9        1.0  0.2501596480538879  0.5592618858425097  0.8100484472010476  1.0000
  C   C10       1.0  0.7498445449455672  0.4407337105442153  0.18995323201429665  1.0000
  C   C11       1.0  0.12488677288495613  0.49134737705225706  0.7121333981961371  1.0000
  C   C12       1.0  0.8751168019480815  0.5086548663092003  0.28786663960342196  1.0000
  C   C13       1.0  0.20446642796960654  0.4728756296143147  0.6258628463038461  1.0000
  C   C14       1.0  0.7955363542587294  0.5271319399951365  0.374135523430418  1.0000
  C   C15       1.0  0.5972249636294081  0.6758963105754174  0.9211932926397208  1.0000
  C   C16       1.0  0.4027870671230929  0.3240913198794074  0.0788110954371959  1.0000
  C   C17       1.0  0.9933284266949157  0.9794826859496624  0.8572783299084531  1.0000
  C   C18       1.0  0.0066654921919280016  0.0205023643471733  0.1427210452744347  1.0000
  C   C19       1.0  0.7476014503881954  0.16035701819105697  0.8335676470614075  1.0000
  C   C20       1.0  0.25239464505676784  0.8396333153666332  0.1664320535385428  1.0000
  C   C21       1.0  0.42972180402382065  0.0504305168354335  0.7148695290802108  1.0000
  C   C22       1.0  0.5702780865639525  0.949566552148667  0.285126074872629  1.0000
  N   N1        1.0  0.32483731560623136  0.676479437621893  0.4300585529159163  1.0000
  N   N2        1.0  0.6751676662859438  0.3235333278584917  0.5699432539238883  1.0000
  N   N3        1.0  0.1524207687400576  0.9332164224951639  0.445523580259426  1.0000
  N   N4        1.0  0.847571264336693  0.0667989375585023  0.5544778663521299  1.0000
  N   N5        1.0  0.22634733475621968  0.25518946226317496  0.4237050041021604  1.0000
  N   N6        1.0  0.7736503384741908  0.7448352094818276  0.5762949517467035  1.0000
  N   N7        1.0  0.39884272114892383  0.518522673227487  0.6340361526454075  1.0000
  N   N8        1.0  0.6011589427038544  0.48148749378656663  0.3659636074130432  1.0000
  N   N9        1.0  0.530886975363785  0.7841795957450445  0.980153144339276  1.0000
  N   N10       1.0  0.4691144633461306  0.2158172114231718  0.019852013498066905  1.0000
  N   N11       1.0  0.15766817966384394  0.9423664031232591  0.8895661950134937  1.0000
  N   N12       1.0  0.8423280902194036  0.05762525116116989  0.11043353223595889  1.0000
  N   N13       1.0  0.809077235150468  0.007424988496744295  0.8177495585364483  1.0000
  N   N14       1.0  0.19091834275607067  0.9925613610332606  0.1822508400371206  1.0000
  N   N15       1.0  0.8578510082559064  0.29793956783671405  0.891108017956924  1.0000
  N   N16       1.0  0.14215213233740093  0.70204812603707  0.10889272343930398  1.0000
  O   O1        1.0  0.7711432536752767  0.6319676169880566  0.9485708453163111  1.0000
  O   O2        1.0  0.2288510256409921  0.3680200310672888  0.05143013900981688  1.0000
  O   O3        1.0  0.5580173517051534  0.1852352308544312  0.7880237999446392  1.0000
  O   O4        1.0  0.44198187578806614  0.8147564241378261  0.21197636494292735  1.0000
