data_image0
_chemical_formula_structural       Ni3H90C66N18O12
_chemical_formula_sum              "Ni3 H90 C66 N18 O12"
_cell_length_a       11.01718909665529
_cell_length_b       15.473211390028432
_cell_length_c       15.474010991412376
_cell_angle_alpha    114.5632074757017
_cell_angle_beta     103.75454820827728
_cell_angle_gamma    103.71274310838749

_space_group_name_H-M_alt    "P 1"
_space_group_IT_number       1

loop_
  _space_group_symop_operation_xyz
  'x, y, z'

loop_
  _atom_site_type_symbol
  _atom_site_label
  _atom_site_symmetry_multiplicity
  _atom_site_fract_x
  _atom_site_fract_y
  _atom_site_fract_z
  _atom_site_occupancy
  Ni  Ni1       1.0  0.5000004893532548  0.49999982968928686  0.9999995557512019  1.0000
  Ni  Ni2       1.0  5.293203954546479e-07  0.5000002549437425  0.5000008166667979  1.0000
  Ni  Ni3       1.0  0.500000333373599  3.4331869609998103e-07  0.5000004141071839  1.0000
  H   H1        1.0  0.5704357070891534  0.6443131868982732  0.967646054693503  1.0000
  H   H2        1.0  0.9261021487660768  0.32336759845939156  0.35557138481586026  1.0000
  H   H3        1.0  0.6027888085523685  0.03245453464558779  0.6767637407702122  1.0000
  H   H4        1.0  0.07389949303518516  0.6766332413699773  0.644429964950781  1.0000
  H   H5        1.0  0.39721321199047566  0.9675470736122732  0.32323863863958724  1.0000
  H   H6        1.0  0.4295640927994739  0.35568765219061743  0.03235174422280095  1.0000
  H   H7        1.0  0.2611659281811213  0.47837446138544937  0.9911590423146347  1.0000
  H   H8        1.0  0.7827830118760987  0.5128878221700361  0.5216489889438306  1.0000
  H   H9        1.0  0.2698783453608656  0.0086404667833762  0.48703709255422456  1.0000
  H   H10       1.0  0.2172163768659131  0.487112249358354  0.47835165260706675  1.0000
  H   H11       1.0  0.730122356581141  0.9913603731820825  0.5129647406159418  1.0000
  H   H12       1.0  0.7388344166226587  0.5216256095728581  0.008839179693865188  1.0000
  H   H13       1.0  0.2750911491263964  0.525203814978383  0.8527384875455721  1.0000
  H   H14       1.0  0.7501231311722875  0.32770532156359167  0.4748022781621869  1.0000
  H   H15       1.0  0.4222785055100076  0.14726775555034521  0.6723515261040658  1.0000
  H   H16       1.0  0.24987796571382156  0.6722962863963602  0.5251986485122656  1.0000
  H   H17       1.0  0.5777222018328416  0.852733084270447  0.32764966168647175  1.0000
  H   H18       1.0  0.7249097351917085  0.4747954879940152  0.1472608029347454  1.0000
  H   H19       1.0  0.3555124640673029  0.6575440819143807  0.8947294202265464  1.0000
  H   H20       1.0  0.6980315216791979  0.23727206966491107  0.34244379929902624  1.0000
  H   H21       1.0  0.4608012306230193  0.1054194722325121  0.7628264466204155  1.0000
  H   H22       1.0  0.3019691964653218  0.7627287698665554  0.6575560977322608  1.0000
  H   H23       1.0  0.5391998608622471  0.8945821358721132  0.23717512543365865  1.0000
  H   H24       1.0  0.6444861779932226  0.3424544524676989  0.10526787127877675  1.0000
  H   H25       1.0  0.4309639533619532  0.6952156771803716  0.07854189853179613  1.0000
  H   H26       1.0  0.7357112176516479  0.3833989488154683  0.30477351285421134  1.0000
  H   H27       1.0  0.352451056912791  0.9215930251193496  0.616808595016266  1.0000
  H   H28       1.0  0.2642904295504493  0.6166018908692407  0.6952271915328011  1.0000
  H   H29       1.0  0.6475515139460414  0.07840781486326877  0.38319356210610056  1.0000
  H   H30       1.0  0.5690377100426645  0.30478516207034545  0.921456869716344  1.0000
  H   H31       1.0  0.25198762057729596  0.6405187921626947  0.0153652289045355  1.0000
  H   H32       1.0  0.6114851253429946  0.3749177152605582  0.3594717467335967  1.0000
  H   H33       1.0  0.23658253953406225  0.9846882546184971  0.6250714705747523  1.0000
  H   H34       1.0  0.38851614311752763  0.6250823559956585  0.6405279280102573  1.0000
  H   H35       1.0  0.7634187181247825  0.0153118169270456  0.37492949492835226  1.0000
  H   H36       1.0  0.7480117897680714  0.3594812787870366  0.9846328311278607  1.0000
  H   H37       1.0  0.27551690681391966  0.5908877430664248  0.16200946769492217  1.0000
  H   H38       1.0  0.6845111049276653  0.5712755791003588  0.4092317357389063  1.0000
  H   H39       1.0  0.11348721121287754  0.8378047822220509  0.4288407136752353  1.0000
  H   H40       1.0  0.3154896132168545  0.4287252604311078  0.5907681612923807  1.0000
  H   H41       1.0  0.8865144305883844  0.1621960576073178  0.5711606360914059  1.0000
  H   H42       1.0  0.7244821139881878  0.4091115597441473  0.8379888534535664  1.0000
  H   H43       1.0  0.45366678811443234  0.6410039378216793  0.1982589070357078  1.0000
  H   H44       1.0  0.812497719398209  0.557385166415159  0.3590926070155759  1.0000
  H   H45       1.0  0.255545136735158  0.8016894074685084  0.4427558670066104  1.0000
  H   H46       1.0  0.18750392780388833  0.44261567326955026  0.6409080973714365  1.0000
  H   H47       1.0  0.7444564996652686  0.19831143250552688  0.5572461281396526  1.0000
  H   H48       1.0  0.5463316769708443  0.35899613340880177  0.8017402817798354  1.0000
  H   H49       1.0  0.2864882254017401  0.41402051624238817  0.11486852183163165  1.0000
  H   H50       1.0  0.872340864973843  0.7010493895868277  0.5861021410204257  1.0000
  H   H51       1.0  0.17147781332869264  0.8850127393413771  0.2991304412392352  1.0000
  H   H52       1.0  0.1276589025097508  0.29895145037004767  0.41389953017362996  1.0000
  H   H53       1.0  0.8285238230717268  0.11498810063265809  0.7008715539070278  1.0000
  H   H54       1.0  0.7135121248028753  0.5859795545712598  0.8851290547972394  1.0000
  H   H55       1.0  0.3588869126530483  0.5072439172277329  0.24654313054242746  1.0000
  H   H56       1.0  0.8516519114998928  0.739452646939803  0.4928767541742969  1.0000
  H   H57       1.0  0.1122792620600919  0.7533486401675588  0.26058974810324986  1.0000
  H   H58       1.0  0.14834841170053178  0.2605474245971635  0.507124049352704  1.0000
  H   H59       1.0  0.8877233087987478  0.2466521998150597  0.7394124090191239  1.0000
  H   H60       1.0  0.6411130480083144  0.492755385446756  0.7534547072025358  1.0000
  H   H61       1.0  0.40972281330828514  0.4567024746881785  0.7670512494202767  1.0000
  H   H62       1.0  0.9531534387326059  0.3103185021103484  0.5431034244938643  1.0000
  H   H63       1.0  0.6426285699445201  0.23292425379304393  0.6896082705230098  1.0000
  H   H64       1.0  0.04684726320940066  0.6896823378551106  0.45689840867629505  1.0000
  H   H65       1.0  0.3573740009143195  0.7670765861895675  0.31039388659935707  1.0000
  H   H66       1.0  0.5902779156379124  0.5432983645539621  0.23294735685175977  1.0000
  H   H67       1.0  0.4909789690134403  0.5788040713502908  0.781801163482214  1.0000
  H   H68       1.0  0.9122224917695263  0.20296586183353335  0.42095316746097194  1.0000
  H   H69       1.0  0.7092863615113741  0.21827968036286188  0.797024656923227  1.0000
  H   H70       1.0  0.0877778314309056  0.7970342097034405  0.5790476360660292  1.0000
  H   H71       1.0  0.2907152748890454  0.7817211596111733  0.20297733822303593  1.0000
  H   H72       1.0  0.5090213757903399  0.42119599960802384  0.21819705852629306  1.0000
  H   H73       1.0  0.9286955429213036  0.8888427572623384  0.19912092249335692  1.0000
  H   H74       1.0  0.04028877487436233  0.31050545754511927  0.11133730125363425  1.0000
  H   H75       1.0  0.7296031579357276  0.8008725735087908  0.6897445748435727  1.0000
  H   H76       1.0  0.9597128615260642  0.6894953824289229  0.8886646938926286  1.0000
  H   H77       1.0  0.27038903029001193  0.19912058357552098  0.3102526058107242  1.0000
  H   H78       1.0  0.07130665459679619  0.11115731414712827  0.8008795596062297  1.0000
  H   H79       1.0  0.06641955412668211  0.036268444887056696  0.3816632409163886  1.0000
  H   H80       1.0  0.030310491139374604  0.345418901266207  0.9637594081489166  1.0000
  H   H81       1.0  0.6848021881167057  0.6183633726995695  0.6547108230773516  1.0000
  H   H82       1.0  0.9696907611186275  0.6545811704240094  0.03624220273381695  1.0000
  H   H83       1.0  0.31518629468040876  0.38162978348243837  0.34528183739478635  1.0000
  H   H84       1.0  0.9335817089329977  0.9637316265138269  0.6183370792070946  1.0000
  H   H85       1.0  0.7209641080704826  0.7288640988605335  0.32318624956797465  1.0000
  H   H86       1.0  0.9924100311369841  0.5946221478473886  0.27122745485008426  1.0000
  H   H87       1.0  0.3975250210580938  0.6766777300283096  0.4056167115587072  1.0000
  H   H88       1.0  0.007589736346609739  0.40537869210949395  0.7287742163439713  1.0000
  H   H89       1.0  0.6024721880232846  0.3233254140224133  0.5943822376234205  1.0000
  H   H90       1.0  0.2790375337307793  0.2711367409688421  0.6768151001986663  1.0000
  C   C1        1.0  0.3598081431802953  0.5967237697297633  0.9139895956773781  1.0000
  C   C2        1.0  0.763198724735929  0.31737109528326357  0.4032474680225204  1.0000
  C   C3        1.0  0.44580943127472483  0.08609227345205278  0.6827152525252695  1.0000
  C   C4        1.0  0.23680292786701063  0.6826297442567862  0.596752590984863  1.0000
  C   C5        1.0  0.5541912760681241  0.9139085663687467  0.31728593526526777  1.0000
  C   C6        1.0  0.6401927519394803  0.4032755329533018  0.0860084040436887  1.0000
  C   C7        1.0  0.34483109339602436  0.6249101877939933  0.01677591568110857  1.0000
  C   C8        1.0  0.7199364755319239  0.3919522657297422  0.37507561091205577  1.0000
  C   C9        1.0  0.3280529829858095  0.9832782326147437  0.6081287252795914  1.0000
  C   C10       1.0  0.2800625344685129  0.6080470373701629  0.6249240009956833  1.0000
  C   C11       1.0  0.6719486588154524  0.0167226072146249  0.3918726244870497  1.0000
  C   C12       1.0  0.6551687010917604  0.37509065143957077  0.9832225286148241  1.0000
  C   C13       1.0  0.36144950232444717  0.571215056096463  0.1476380140088834  1.0000
  C   C14       1.0  0.7901236130087524  0.5765552161147979  0.4288879389796419  1.0000
  C   C15       1.0  0.21380175592774014  0.8522352760161739  0.4235520750965731  1.0000
  C   C16       1.0  0.20987841833576226  0.4234463918537372  0.5711131496709071  1.0000
  C   C17       1.0  0.7861995071319398  0.14776479538470969  0.5764482450269096  1.0000
  C   C18       1.0  0.6385499080209129  0.42878501485327547  0.8523600460235126  1.0000
  C   C19       1.0  0.37111517307453556  0.4869225313138158  0.1729091126612089  1.0000
  C   C20       1.0  0.8841253711794861  0.6861225514182862  0.5132265397014987  1.0000
  C   C21       1.0  0.19813527998337574  0.8269970442426455  0.3139761391671597  1.0000
  C   C22       1.0  0.11587758922260599  0.31387905670349175  0.48677535630477536  1.0000
  C   C23       1.0  0.8018672908754638  0.17300379573997296  0.6860260179552069  1.0000
  C   C24       1.0  0.6288842372708315  0.5130775396359155  0.8270889473711872  1.0000
  C   C25       1.0  0.4965884066331083  0.5302280617303551  0.8175709769354423  1.0000
  C   C26       1.0  0.9664582624436165  0.28732527686251785  0.4695768355850162  1.0000
  C   C27       1.0  0.6790376015176705  0.18245007750648773  0.712648327223995  1.0000
  C   C28       1.0  0.033543763500062995  0.7126763312506836  0.5304248984451546  1.0000
  C   C29       1.0  0.32096347916591833  0.8175515308874635  0.2873545355893226  1.0000
  C   C30       1.0  0.5034123277139314  0.46977277736711887  0.18242698395697216  1.0000
  C   C31       1.0  0.730366727619213  0.7098635993457307  0.1408831750579437  1.0000
  C   C32       1.0  0.02059844364934085  0.43117642442076226  0.2901364887758645  1.0000
  C   C33       1.0  0.5895207148240402  0.8590215451070191  0.5689338559779313  1.0000
  C   C34       1.0  0.9794018795510836  0.5688236471162041  0.7098643147511364  1.0000
  C   C35       1.0  0.4104786631162937  0.1409785267106969  0.43106807633221655  1.0000
  C   C36       1.0  0.26963491958289143  0.2901372403389786  0.8591175293290758  1.0000
  C   C37       1.0  0.815231999837998  0.7982430022697355  0.24822906457462307  1.0000
  C   C38       1.0  0.017338879093834605  0.45021524773621724  0.2018199846988721  1.0000
  C   C39       1.0  0.5669554293292479  0.7516661204030511  0.5499997830736445  1.0000
  C   C40       1.0  0.9826595697889217  0.549784823928256  0.7981811402555505  1.0000
  C   C41       1.0  0.43304211209928667  0.24833395052952772  0.4499979530065443  1.0000
  C   C42       1.0  0.1847696419632641  0.2017578375596401  0.7517722851920181  1.0000
  C   C43       1.0  0.9130207363417708  0.8861692667255168  0.2651180482466699  1.0000
  C   C44       1.0  0.027276380586954446  0.37914975657786687  0.11394195068246654  1.0000
  C   C45       1.0  0.6479239704651433  0.7348420248526037  0.6210660735084799  1.0000
  C   C46       1.0  0.9727248716710478  0.6208503151123426  0.8860596602002598  1.0000
  C   C47       1.0  0.3520707103920486  0.26515420479692864  0.37893022465755866  1.0000
  C   C48       1.0  0.08698239023390639  0.11383080483719245  0.7348832412086421  1.0000
  C   C49       1.0  0.9877905584354705  0.9670987464025131  0.3650220609398857  1.0000
  C   C50       1.0  0.020922547346998496  0.3979898081330616  0.03294617138895723  1.0000
  C   C51       1.0  0.6227789716416223  0.6349913194528792  0.6021654830608367  1.0000
  C   C52       1.0  0.9790768359941779  0.6020102635399879  0.967055115541569  1.0000
  C   C53       1.0  0.37721347775966774  0.36500414131701586  0.39782752537096394  1.0000
  C   C54       1.0  0.012212017824204198  0.0329020934354389  0.6349794508028592  1.0000
  C   C55       1.0  0.9617692313133617  0.9580835384187693  0.4461314613052067  1.0000
  C   C56       1.0  0.0038114481517367454  0.48808713641722073  0.04195967450116458  1.0000
  C   C57       1.0  0.5156365216137928  0.5538813775970723  0.512000440506213  1.0000
  C   C58       1.0  0.9961894199638477  0.5119121669891626  0.9580415521180252  1.0000
  C   C59       1.0  0.48435782370852115  0.4461140824666643  0.48798966497966473  1.0000
  C   C60       1.0  0.0382333449463204  0.0419173014191827  0.5538700504375381  1.0000
  C   C61       1.0  0.796937185239777  0.7965504603734388  0.33422194494311697  1.0000
  C   C62       1.0  0.0006936501199845101  0.5379218008253871  0.20354971173044575  1.0000
  C   C63       1.0  0.46253551738281834  0.6657023381392976  0.4623089958778833  1.0000
  C   C64       1.0  0.9993070518220222  0.46207903914007187  0.7964521214397136  1.0000
  C   C65       1.0  0.5374620402482293  0.33429773235928906  0.5376868040634333  1.0000
  C   C66       1.0  0.20306352210307207  0.2034503794473537  0.6657792428474208  1.0000
  N   N1        1.0  0.4848523100667776  0.5780749534329034  0.9178382045745291  1.0000
  N   N2        1.0  0.906860682701904  0.3398157664719718  0.4218295494154062  1.0000
  N   N3        1.0  0.5670135373438683  0.08220189132494939  0.6602508324866958  1.0000
  N   N4        1.0  0.0931404087833626  0.6601858416326463  0.5781720226386678  1.0000
  N   N5        1.0  0.4329884831989687  0.9177997169329117  0.3397515469231036  1.0000
  N   N6        1.0  0.5151484296811049  0.42192588551991145  0.08215911093824957  1.0000
  N   N7        1.0  0.34759789313639533  0.5425327868609456  0.04103755766415412  1.0000
  N   N8        1.0  0.8050533779964509  0.4986125340719881  0.457508379514067  1.0000
  N   N9        1.0  0.3065371012534327  0.9588727929414843  0.5014479942372103  1.0000
  N   N10       1.0  0.19494640028882057  0.5013883055955616  0.542492000920738  1.0000
  N   N11       1.0  0.6934641564054118  0.04112727860405838  0.4985529712658943  1.0000
  N   N12       1.0  0.6524028304089668  0.45746805252585426  0.958961693987504  1.0000
  N   N13       1.0  0.8667314465545389  0.873820338412479  0.43069239264796266  1.0000
  N   N14       1.0  0.993120821535797  0.5570034888544199  0.12622004610183518  1.0000
  N   N15       1.0  0.43593507048741026  0.5692578558509352  0.44314280985273047  1.0000
  N   N16       1.0  0.006879501664627686  0.4429965826825466  0.8737807574251659  1.0000
  N   N17       1.0  0.5640598715453251  0.43074067748418793  0.5568493160908045  1.0000
  N   N18       1.0  0.13326926618914567  0.12618050126365427  0.5693081497629463  1.0000
  O   O1        1.0  0.6452668397254228  0.6328426730237879  0.135255081783221  1.0000
  O   O2        1.0  0.012364957395590159  0.502573586484459  0.367074215911181  1.0000
  O   O3        1.0  0.5100506488761313  0.8645512899148856  0.4974426415956826  1.0000
  O   O4        1.0  0.9876308488846632  0.49742494873986937  0.6329264619435901  1.0000
  O   O5        1.0  0.4899498814914622  0.13545108675430836  0.502560443505075  1.0000
  O   O6        1.0  0.354734812877517  0.3671581665162549  0.8647449772241697  1.0000
  O   O7        1.0  0.7470404040661763  0.718702406183354  0.06668030515838551  1.0000
  O   O8        1.0  0.02834674070037114  0.34807240553971036  0.28122980916949547  1.0000
  O   O9        1.0  0.6804416604583778  0.9332295625190453  0.6520328504358159  1.0000
  O   O10       1.0  0.9716563804744637  0.6519276661676584  0.7187721256654453  1.0000
  O   O11       1.0  0.3195601367147844  0.06676974104058792  0.3479691835391065  1.0000
  O   O12       1.0  0.252961632679181  0.2812992016405147  0.9333201381125418  1.0000
