data_image0
_chemical_formula_structural       Na2H34C52O30
_chemical_formula_sum              "Na2 H34 C52 O30"
_cell_length_a       8.57532730011936
_cell_length_b       10.32771664931817
_cell_length_c       15.326
_cell_angle_alpha    74.52786404548338
_cell_angle_beta     80.59728142873205
_cell_angle_gamma    85.86474603280482

_space_group_name_H-M_alt    "P 1"
_space_group_IT_number       1

loop_
  _space_group_symop_operation_xyz
  'x, y, z'

loop_
  _atom_site_type_symbol
  _atom_site_label
  _atom_site_symmetry_multiplicity
  _atom_site_fract_x
  _atom_site_fract_y
  _atom_site_fract_z
  _atom_site_occupancy
  Na  Na1       1.0  0.12884479017463243  0.3849014585630997  0.4559690195592978  1.0000
  Na  Na2       1.0  0.8711507927274483  0.6151003467508573  0.5440332128812317  1.0000
  H   H1        1.0  0.3791021221653281  0.4691313507583885  0.16380551344351352  1.0000
  H   H2        1.0  0.6208983662128419  0.5308654289056705  0.8361952165716744  1.0000
  H   H3        1.0  0.7352237582165061  0.7231488040458061  0.19204402427458686  1.0000
  H   H4        1.0  0.2647742596829445  0.2768509910081889  0.8079544320430758  1.0000
  H   H5        1.0  0.8546901133619897  0.4433547924606742  0.02507594779582691  1.0000
  H   H6        1.0  0.14531030405349551  0.5566439974633397  0.97492442732608  1.0000
  H   H7        1.0  0.5792510313008921  0.3662251384332578  0.06259812414020159  1.0000
  H   H8        1.0  0.42074945707727107  0.6337716412308012  0.9374032583609592  1.0000
  H   H9        1.0  0.9333290826335984  0.6228509040147898  0.09034118883507598  1.0000
  H   H10       1.0  0.06667011728319491  0.3771488910392051  0.9096578119184003  1.0000
  H   H11       1.0  0.40896065150934663  0.6116537560547002  0.31897922690608743  1.0000
  H   H12       1.0  0.5910409124421392  0.3883460389992948  0.6810202102330365  1.0000
  H   H13       1.0  0.31110719646063967  0.8824820082319321  0.7895537648410952  1.0000
  H   H14       1.0  0.6888920034561608  0.11751778682206289  0.21044784585627244  1.0000
  H   H15       1.0  0.7488303613588486  0.7511306175162673  0.852664158639087  1.0000
  H   H16       1.0  0.2511712025926442  0.24886917753772764  0.14733527850004446  1.0000
  H   H17       1.0  0.9401711289223017  0.6588988855624294  0.7425288357868709  1.0000
  H   H18       1.0  0.0598316525278761  0.3410999043615917  0.2574726282066565  1.0000
  H   H19       1.0  0.8386329509454953  0.9050260685189073  0.933189284196736  1.0000
  H   H20       1.0  0.1613649250285931  0.0949777470550046  0.06681041979227591  1.0000
  H   H21       1.0  0.12169348366800392  0.9718571607869819  0.8996930332230519  1.0000
  H   H22       1.0  0.8783080093208044  0.0281446445269751  0.10030735399473663  1.0000
  H   H23       1.0  0.4880785282402869  0.5691076091962941  0.5945004103767744  1.0000
  H   H24       1.0  0.5119217827311715  0.43089419611765584  0.4054987799192276  1.0000
  H   H25       1.0  0.36491553496509965  0.0521471484126934  0.33398477767018164  1.0000
  H   H26       1.0  0.6350837359143783  0.9478506363813466  0.6660158829485284  1.0000
  H   H27       1.0  0.9120559781949142  0.7567322068862481  0.32891183770374244  1.0000
  H   H28       1.0  0.08794558575657163  0.2432675881677469  0.6710889044073343  1.0000
  H   H29       1.0  0.305237351729808  0.6065667932336964  0.7287729730296705  1.0000
  H   H30       1.0  0.6947654652017121  0.3934309915603436  0.27122801592452833  1.0000
  H   H31       1.0  0.2987228145370082  0.1855429735045533  0.5947594464737165  1.0000
  H   H32       1.0  0.7012787139331423  0.8144578266794227  0.4052404657047433  1.0000
  H   H33       1.0  0.3028850033290738  0.3414054638750414  0.596547825787468  1.0000
  H   H34       1.0  0.6971105795729997  0.6585963414389086  0.40345244919515005  1.0000
  C   C1        1.0  0.4569814972250724  0.8897380415464653  0.13707448090979574  1.0000
  C   C2        1.0  0.5430153386570282  0.1102617535075296  0.8629247359440059  1.0000
  C   C3        1.0  0.3903068786414963  0.8120696378505912  0.23126248831535176  1.0000
  C   C4        1.0  0.6096911392579543  0.18793015720340384  0.7687379254602291  1.0000
  C   C5        1.0  0.26762286484042624  0.7212611699462528  0.21790973116700477  1.0000
  C   C6        1.0  0.7323775525750591  0.2787376199777682  0.7820906439548949  1.0000
  C   C7        1.0  0.5440365898850175  0.6027211659360887  0.18440871684390459  1.0000
  C   C8        1.0  0.4559626100317829  0.39727862911790623  0.8155928938534629  1.0000
  C   C9        1.0  0.5010059862594077  0.5020453370331737  0.14764302396859816  1.0000
  C   C10       1.0  0.4989932491387279  0.4979534528908474  0.8523587641754062  1.0000
  C   C11       1.0  0.7006611815796902  0.6449396404215193  0.16377226994251257  1.0000
  C   C12       1.0  0.2993380538184526  0.3550591495025017  0.8362282132295463  1.0000
  C   C13       1.0  0.7681770256061214  0.48886205223563906  0.06935981968366887  1.0000
  C   C14       1.0  0.2318209922933292  0.5111377428183559  0.9306392891199666  1.0000
  C   C15       1.0  0.6128236792248174  0.4450534621242781  0.09056066562202858  1.0000
  C   C16       1.0  0.3871755206919759  0.5549463329297168  0.9094396401033933  1.0000
  C   C17       1.0  0.8121798714938179  0.5885156639504601  0.1060892503875408  1.0000
  C   C18       1.0  0.1878181464056325  0.4114841311035349  0.8939105109020675  1.0000
  C   C19       1.0  0.42274603258196924  0.6614257823282871  0.2458583226375808  1.0000
  C   C20       1.0  0.5772530963721467  0.33857602298567  0.7541422806805258  1.0000
  C   C21       1.0  0.13742467281095833  0.7662357108326248  0.7576255125217344  1.0000
  C   C22       1.0  0.8625768201778499  0.2337660944813251  0.2423748746960541  1.0000
  C   C23       1.0  0.1875954049873343  0.8544006868936053  0.8021424636710253  1.0000
  C   C24       1.0  0.8124049059841312  0.1456011184203518  0.19785737911094978  1.0000
  C   C25       1.0  0.8721645225699959  0.7796230370157886  0.8388465827354497  1.0000
  C   C26       1.0  0.12783704138149687  0.22037675803820633  0.16115415937562722  1.0000
  C   C27       1.0  0.9790343371610606  0.7289584553213331  0.7761893443921439  1.0000
  C   C28       1.0  0.020966080254424903  0.2710403346026879  0.22381233570170175  1.0000
  C   C29       1.0  0.9225500660124341  0.8670602989723618  0.8835086464989532  1.0000
  C   C30       1.0  0.07745035140305132  0.1329384909516591  0.11649303359489951  1.0000
  C   C31       1.0  0.08022298184940269  0.9046370832172387  0.8648736838063372  1.0000
  C   C32       1.0  0.9197761825860482  0.0953637169667374  0.13512644447244074  1.0000
  C   C33       1.0  0.3231855614675467  0.9313886175940596  0.5910508832793939  1.0000
  C   C34       1.0  0.6768136384492537  0.0686111774599354  0.40894876996005547  1.0000
  C   C35       1.0  0.3714449443661536  0.7857643811842081  0.6181494314008661  1.0000
  C   C36       1.0  0.6285566550666815  0.2142344087398129  0.38185279312879333  1.0000
  C   C37       1.0  0.23733953825016843  0.7130251349027219  0.5966306932452384  1.0000
  C   C38       1.0  0.7626596616666321  0.2869746601512801  0.4033689599942107  1.0000
  C   C39       1.0  0.11415800038694364  0.6804770159400917  0.2806975269670461  1.0000
  C   C40       1.0  0.8858423815471995  0.3195227791139033  0.7193026707082099  1.0000
  C   C41       1.0  0.3672226444471179  0.8738328647672517  0.3111349409925879  1.0000
  C   C42       1.0  0.63277662643236  0.1261649200267883  0.6888657196261152  1.0000
  C   C43       1.0  0.5449265310802431  0.7470769283131276  0.611789995578228  1.0000
  C   C44       1.0  0.45507617940725714  0.2529238718708484  0.38820850357812736  1.0000
  C   C45       1.0  0.2502504213532362  0.5867627172680159  0.5630498854769501  1.0000
  C   C46       1.0  0.7497487076008795  0.413239088045934  0.43694745541130003  1.0000
  C   C47       1.0  0.2535746183960014  0.7038482981993397  0.6957686524834301  1.0000
  C   C48       1.0  0.7464257990194838  0.2961504917246742  0.30423237512444257  1.0000
  C   C49       1.0  0.2641187197119663  0.760423044167169  0.11684705848620777  1.0000
  C   C50       1.0  0.7358817686661964  0.23957373549689007  0.883151061585096  1.0000
  C   C51       1.0  0.12366325962168641  0.8227682413413646  0.5600139620403655  1.0000
  C   C52       1.0  0.8763359048137715  0.1772325588426114  0.4399868187243854  1.0000
  O   O1        1.0  0.3837311315988004  0.8495107295483776  0.07289355198313531  1.0000
  O   O2        1.0  0.6162681747620127  0.1504860501156884  0.9271059811102663  1.0000
  O   O3        1.0  0.1465169695984514  0.5656228235609646  0.5212719237649709  1.0000
  O   O4        1.0  0.853479795320972  0.4343789817529924  0.478726285709577  1.0000
  O   O5        1.0  0.3674567617412521  0.5042938127949981  0.5845883652045034  1.0000
  O   O6        1.0  0.6325411497141716  0.4957089976489328  0.41540955877324165  1.0000
  O   O7        1.0  0.5875081245125954  0.6267829724905455  0.6016737732302531  1.0000
  O   O8        1.0  0.4124945859749047  0.3732178276934306  0.39832668338401334  1.0000
  O   O9        1.0  0.64433387942794  0.8242678952692302  0.6172716776144114  1.0000
  O   O10       1.0  0.3556700485582454  0.1757318997847648  0.38272689093842877  1.0000
  O   O11       1.0  0.3703204151405401  0.0065212833002732005  0.28271260768038803  1.0000
  O   O12       1.0  0.6296835483269874  0.9934775066237408  0.717286790805062  1.0000
  O   O13       1.0  0.3459462932382564  0.8055252365608112  0.3907247547322613  1.0000
  O   O14       1.0  0.6540551997505517  0.1944765687531458  0.6092775899434386  1.0000
  O   O15       1.0  0.08961417779019601  0.5623883152902636  0.3218357273438102  1.0000
  O   O16       1.0  0.9103826580919119  0.4376114797637314  0.678164141995957  1.0000
  O   O17       1.0  0.015146108302396011  0.7835822440009608  0.2825424769453662  1.0000
  O   O18       1.0  0.9848530916144046  0.21641755105303423  0.7174565238081172  1.0000
  O   O19       1.0  0.39322946666537467  0.028443168130579  0.5930328167605554  1.0000
  O   O20       1.0  0.6067684447900562  0.971559642313359  0.4069657597031551  1.0000
  O   O21       1.0  0.9997887407324342  0.8174430627154621  0.5341234244498024  1.0000
  O   O22       1.0  0.0002090642789695999  0.1825627631184119  0.46587657713189407  1.0000
  O   O23       1.0  0.23328267892786414  0.2672821536132091  0.5987258160812915  1.0000
  O   O24       1.0  0.7667165209889361  0.7327176414407859  0.4012744896441305  1.0000
  O   O25       1.0  0.5601877493018891  0.9700459165657875  0.11300379239078497  1.0000
  O   O26       1.0  0.4398114506149113  0.0299538784882074  0.8869952083626915  1.0000
  O   O27       1.0  0.1756362721039935  0.7243650113197475  0.07478820272554992  1.0000
  O   O28       1.0  0.8243594882047844  0.2756317683443115  0.9252116545183356  1.0000
  O   O29       1.0  0.17774909874628975  0.9466203572877063  0.5624359509573724  1.0000
  O   O30       1.0  0.8222501011705037  0.0533794377662886  0.43756696471193385  1.0000
