data_image0
_chemical_formula_structural       Zn4H23C48Cl7O13
_chemical_formula_sum              "Zn4 H23 C48 Cl7 O13"
_cell_length_a       19.546679546712
_cell_length_b       19.679045455818375
_cell_length_c       19.519023865664693
_cell_angle_alpha    95.58155802928832
_cell_angle_beta     95.77957976629996
_cell_angle_gamma    90.67014145297384

_space_group_name_H-M_alt    "P 1"
_space_group_IT_number       1

loop_
  _space_group_symop_operation_xyz
  'x, y, z'

loop_
  _atom_site_type_symbol
  _atom_site_label
  _atom_site_symmetry_multiplicity
  _atom_site_fract_x
  _atom_site_fract_y
  _atom_site_fract_z
  _atom_site_occupancy
  Zn  Zn1       1.0  0.443259827104427  0.5609119368413715  0.4433025027722834  1.0000
  Zn  Zn2       1.0  0.5516341692435631  0.43738170484174793  0.44388702676575054  1.0000
  Zn  Zn3       1.0  0.443441003127205  0.4468668801430767  0.5503675564594417  1.0000
  Zn  Zn4       1.0  0.5638394196496322  0.561821070102056  0.5676725725420154  1.0000
  H   H1        1.0  0.4092506902386717  0.7650151087901593  0.4735476283745967  1.0000
  H   H2        1.0  0.455455955048926  0.4110010085204579  0.8840585719624772  1.0000
  H   H3        1.0  0.38260567672548973  0.2396911754800684  0.5224162009800467  1.0000
  H   H4        1.0  0.4117316475926955  0.0014258838883093995  0.4743762458491503  1.0000
  H   H5        1.0  0.6200094983399181  0.9058144208125967  0.5452319881773419  1.0000
  H   H6        1.0  0.568664465312203  0.003171662251112701  0.5092573370504924  1.0000
  H   H7        1.0  0.7556869808152342  0.3823262571376206  0.49333243982891173  1.0000
  H   H8        1.0  0.9108768665162614  0.5860563776470117  0.536593337020321  1.0000
  H   H9        1.0  0.9907155635521007  0.5231006092780959  0.44165568096531876  1.0000
  H   H10       1.0  0.5101743224905704  0.3764404016938912  0.23266879033856475  1.0000
  H   H11       1.0  0.47988671784431597  0.4129506444664275  0.9927144703318689  1.0000
  H   H12       1.0  0.3738360254379813  0.11281020182351402  0.5165175053137787  1.0000
  H   H13       1.0  0.45659303567430953  0.5764958194676454  0.10173008496395401  1.0000
  H   H14       1.0  0.5562214285291134  0.6071894559080065  0.7832552494654622  1.0000
  H   H15       1.0  0.5133370298427239  0.5672788512195057  0.008870346221954213  1.0000
  H   H16       1.0  0.40521237224789536  0.8896125326937252  0.46683209886884913  1.0000
  H   H17       1.0  0.23744720837553504  0.40542899039441954  0.5208431324726065  1.0000
  H   H18       1.0  0.2253505424936719  0.6020418603676277  0.4423579014842219  1.0000
  H   H19       1.0  0.11002359599042678  0.39929809519131254  0.5166670397124308  1.0000
  H   H20       1.0  0.5746365241425622  0.22352839783825126  0.43336951721732936  1.0000
  H   H21       1.0  0.45956341991837485  0.4079776226164002  0.7574293464503299  1.0000
  H   H22       1.0  0.45561620103525513  0.5871562323965949  0.22967042836996407  1.0000
  H   H23       1.0  0.5502958514736919  0.6122625714143554  0.9107543167664004  1.0000
  C   C1        1.0  0.6844744560038477  0.4953266451083636  0.509544432227365  1.0000
  C   C2        1.0  0.5169855236586259  0.9806086315375073  0.4985661879196784  1.0000
  C   C3        1.0  0.4645467934926586  0.021855375014574505  0.48120514395139224  1.0000
  C   C4        1.0  0.3158555576426565  0.5076876491142814  0.48817316643088304  1.0000
  C   C5        1.0  0.48029130443016044  0.23948798705904306  0.48033244561668204  1.0000
  C   C6        1.0  0.23920713143710504  0.5044491499286252  0.4830763899209671  1.0000
  C   C7        1.0  0.20634942311182408  0.4472873610292325  0.5037513011069095  1.0000
  C   C8        1.0  0.13533653669429674  0.4444828260470857  0.5021327625454859  1.0000
  C   C9        1.0  0.0945189783616129  0.49902764215147505  0.4818021015634386  1.0000
  C   C10       1.0  0.1287961724879025  0.5552088525644834  0.45932026597009923  1.0000
  C   C11       1.0  0.2000017656685174  0.5579956344531852  0.4593022392110911  1.0000
  C   C12       1.0  0.512800312570093  0.9076857049683228  0.505407918102101  1.0000
  C   C13       1.0  0.8768706232614462  0.5411498680129158  0.5278999514174032  1.0000
  C   C14       1.0  0.8057917525545832  0.5492586211991508  0.5243124029017707  1.0000
  C   C15       1.0  0.7899793353581614  0.42686933507528135  0.5044300202131566  1.0000
  C   C16       1.0  0.4868564669411625  0.48901570491206314  0.3160065793614351  1.0000
  C   C17       1.0  0.860854652900812  0.4188817367211969  0.5092579265968311  1.0000
  C   C18       1.0  0.9056494639578149  0.4762887540229671  0.5213256393828516  1.0000
  C   C19       1.0  0.019948598601999403  0.4977231310541941  0.482199360316784  1.0000
  C   C20       1.0  0.981411952524958  0.47113050761984016  0.527040122691794  1.0000
  C   C21       1.0  0.7613852248522194  0.49171314377736053  0.5130579178193102  1.0000
  C   C22       1.0  0.5083016253654975  0.5073404258465147  0.7626348530017069  1.0000
  C   C23       1.0  0.5728675867053428  0.8755579069379565  0.5302168676685143  1.0000
  C   C24       1.0  0.48004608837327106  0.45210411026968006  0.7916624057036261  1.0000
  C   C25       1.0  0.477997207975278  0.4541412734925175  0.8625992291494313  1.0000
  C   C26       1.0  0.5031002115961556  0.5118835803150789  0.9069734404086063  1.0000
  C   C27       1.0  0.5308969092900143  0.5671181339620618  0.8771293405129158  1.0000
  C   C28       1.0  0.5087349012134368  0.5053984933272134  0.6862331028683215  1.0000
  C   C29       1.0  0.5342980459051744  0.5646742335980621  0.8061435083401636  1.0000
  C   C30       1.0  0.46913401074822053  0.5327457619350825  0.13054835512788543  1.0000
  C   C31       1.0  0.4681370674364871  0.5390200496476043  0.20180517492800482  1.0000
  C   C32       1.0  0.4982115824062276  0.42005520379120054  0.2036820887360946  1.0000
  C   C33       1.0  0.4973114780628549  0.41403458324734316  0.13206383392664384  1.0000
  C   C34       1.0  0.5743120226241913  0.8053426032510843  0.5354543395450051  1.0000
  C   C35       1.0  0.4845310745494659  0.4705634374676465  0.0933285815236502  1.0000
  C   C36       1.0  0.5007931990740957  0.5167356210892181  0.9815988747265294  1.0000
  C   C37       1.0  0.4871065229144308  0.46452477024788424  0.018821273131173717  1.0000
  C   C38       1.0  0.48385614845444985  0.4827496626609218  0.2390536282439442  1.0000
  C   C39       1.0  0.4877085605836625  0.3153455761837309  0.48656514828995523  1.0000
  C   C40       1.0  0.511464317703492  0.6881145872962195  0.5130220001546704  1.0000
  C   C41       1.0  0.515034707706377  0.7641906323155895  0.5143311723795563  1.0000
  C   C42       1.0  0.4548401100393633  0.7970396974371  0.4902147089871818  1.0000
  C   C43       1.0  0.4529127563397566  0.8668155749901775  0.48634960943992683  1.0000
  C   C44       1.0  0.526975161986151  0.12832064459841772  0.4509196260973739  1.0000
  C   C45       1.0  0.5312858241104835  0.19913291864001081  0.45287161395632575  1.0000
  C   C46       1.0  0.4227881114179938  0.20801134633747156  0.5023919485900947  1.0000
  C   C47       1.0  0.4183593006431892  0.1373622804045453  0.4989595593006797  1.0000
  C   C48       1.0  0.47122073973152123  0.09517469797179962  0.4760880040007081  1.0000
  Cl  Cl1       1.0  0.7752218656296251  0.631294583481065  0.5305762527003282  1.0000
  Cl  Cl2       1.0  0.0155609642256849  0.434395276690367  0.6000659920752298  1.0000
  Cl  Cl3       1.0  0.08204775957899808  0.6242690652594832  0.4329335120516831  1.0000
  Cl  Cl4       1.0  0.8928076520421158  0.33758372304075124  0.496807073272656  1.0000
  Cl  Cl5       1.0  0.5150918826012472  0.33490751508876576  0.09080524316215843  1.0000
  Cl  Cl6       1.0  0.5916491787154214  0.08294811667015985  0.4133514078968048  1.0000
  Cl  Cl7       1.0  0.6523584384502286  0.772763072495714  0.5650873343185054  1.0000
  O   O1        1.0  0.5014362480820509  0.5032496904693604  0.500889516501907  1.0000
  O   O2        1.0  0.5381475489528285  0.3410449710689606  0.4601929998562611  1.0000
  O   O3        1.0  0.5530567640607131  0.6592040566334135  0.5549540745162815  1.0000
  O   O4        1.0  0.4431275895082933  0.34884379269874444  0.5186935579920943  1.0000
  O   O5        1.0  0.46517222409948283  0.6582099984227839  0.4690090889068942  1.0000
  O   O6        1.0  0.459053506319357  0.5411025667045308  0.3451966287441479  1.0000
  O   O7        1.0  0.5448749123125581  0.5509850130179716  0.6631520440115253  1.0000
  O   O8        1.0  0.6514231260289236  0.45520861988005373  0.46194789139928355  1.0000
  O   O9        1.0  0.34654457619993917  0.4682285242290547  0.5288224393564249  1.0000
  O   O10       1.0  0.6595754561080015  0.5360480662781982  0.5546999213809231  1.0000
  O   O11       1.0  0.3442363298656587  0.5490477205486145  0.45251844715512146  1.0000
  O   O12       1.0  0.51770704879295  0.44160325385229265  0.3464029173011056  1.0000
  O   O13       1.0  0.47226819178931106  0.4580252782113803  0.6496097150281629  1.0000
