data_image0
_chemical_formula_structural       Er4H32C24N4O28
_chemical_formula_sum              "Er4 H32 C24 N4 O28"
_cell_length_a       6.558333023002001
_cell_length_b       6.7506476340905905
_cell_length_c       19.405105814037032
_cell_angle_alpha    93.34411753666528
_cell_angle_beta     90.00004906822849
_cell_angle_gamma    89.99991750245495

_space_group_name_H-M_alt    "P 1"
_space_group_IT_number       1

loop_
  _space_group_symop_operation_xyz
  'x, y, z'

loop_
  _atom_site_type_symbol
  _atom_site_label
  _atom_site_symmetry_multiplicity
  _atom_site_fract_x
  _atom_site_fract_y
  _atom_site_fract_z
  _atom_site_occupancy
  Er  Er1       1.0  0.7568332750375005  0.766601366441634  0.8978881657857086  1.0000
  Er  Er2       1.0  0.7431709261700662  0.26657008376444946  0.39789840599392784  1.0000
  Er  Er3       1.0  0.24315627184238053  0.23340563580550372  0.10211095846051418  1.0000
  Er  Er4       1.0  0.2568353932790616  0.7334220786221622  0.6021029929280672  1.0000
  H   H1        1.0  0.7053553966599397  0.9548314478037058  0.032905756638072596  1.0000
  H   H2        1.0  0.7946581469025846  0.45484329978103233  0.5329078401383356  1.0000
  H   H3        1.0  0.29464177410774545  0.045175554676063705  0.9670928522855389  1.0000
  H   H4        1.0  0.20536189554659504  0.5451458953397293  0.4670924677495946  1.0000
  H   H5        1.0  0.9206708667306245  0.8510687923299399  0.037680708915282  1.0000
  H   H6        1.0  0.5793397973550826  0.3510883509479755  0.537684441137081  1.0000
  H   H7        1.0  0.0793217297107915  0.1489307903471015  0.9623187796830378  1.0000
  H   H8        1.0  0.42067567075451967  0.648909747372244  0.46231604791638137  1.0000
  H   H9        1.0  0.6813005849542577  0.2717829547246637  0.7936287046665667  1.0000
  H   H10       1.0  0.8187170322506107  0.7717531406751093  0.29363504472008367  1.0000
  H   H11       1.0  0.3186889619281743  0.7282225631809499  0.20637142003223366  1.0000
  H   H12       1.0  0.1812892871984459  0.2282360546925588  0.7063647478428549  1.0000
  H   H13       1.0  0.4813657679435296  0.1886817407257979  0.8442625898644636  1.0000
  H   H14       1.0  0.0186510559669841  0.6886508439619946  0.3442693478469677  1.0000
  H   H15       1.0  0.5186253037156092  0.8113282280638147  0.155739171387907  1.0000
  H   H16       1.0  0.9813537387040301  0.31133983503503526  0.655730990233593  1.0000
  H   H17       1.0  0.323714058143267  0.49583998951150937  0.7489874141086401  1.0000
  H   H18       1.0  0.17628678165504402  0.9958281726063235  0.2489935692751999  1.0000
  H   H19       1.0  0.6762785382906956  0.5041729472469428  0.2510138922091159  1.0000
  H   H20       1.0  0.8237210625663495  0.0041684420906591005  0.7510063742596101  1.0000
  H   H21       1.0  0.5911478533683835  0.4920013664051055  0.7353551728909976  1.0000
  H   H22       1.0  0.9088463930581129  0.9919758824236168  0.2353636850085934  1.0000
  H   H23       1.0  0.4088416935112349  0.5080100864893211  0.26464610323208143  1.0000
  H   H24       1.0  0.0911599263906098  0.0080147965723896  0.764636653072138  1.0000
  H   H25       1.0  0.33168285817431814  0.4171680831656346  0.9249279857277201  1.0000
  H   H26       1.0  0.1683475758649138  0.9171295689752058  0.42492998835062673  1.0000
  H   H27       1.0  0.6683127878154593  0.5828463369813832  0.07507438143164079  1.0000
  H   H28       1.0  0.8316663674729554  0.08285517574007885  0.5750676523363083  1.0000
  H   H29       1.0  0.18621434763102943  0.4657578408837538  0.8509245728493368  1.0000
  H   H30       1.0  0.3138005530202079  0.9657428746847003  0.35092554518745084  1.0000
  H   H31       1.0  0.8137782488154954  0.5342387731102393  0.1490769166541384  1.0000
  H   H32       1.0  0.686208815976272  0.0342522573338329  0.6490717915358886  1.0000
  C   C1        1.0  0.5974592020331357  0.3050857171059533  0.8419046510916672  1.0000
  C   C2        1.0  0.9025478300750934  0.80505430633189  0.3419125256964435  1.0000
  C   C3        1.0  0.40252882006763013  0.6949242526366106  0.15809504886652087  1.0000
  C   C4        1.0  0.09745543981713921  0.1949378565322206  0.6580878425782898  1.0000
  C   C5        1.0  0.7525383391845966  0.2879944274423494  0.8994916428226601  1.0000
  C   C6        1.0  0.7474658343733297  0.7879647096455006  0.3994959056270417  1.0000
  C   C7        1.0  0.24745425724781717  0.7120155427726119  0.10050702648911879  1.0000
  C   C8        1.0  0.2525404850714282  0.21203042118643373  0.6005040077132546  1.0000
  C   C9        1.0  0.46987923291518296  0.5555153240720969  0.7689060874990332  1.0000
  C   C10       1.0  0.03011622854671001  0.05549768260749491  0.2689134598026257  1.0000
  C   C11       1.0  0.5301103139644355  0.4444961288223297  0.2310951886240389  1.0000
  C   C12       1.0  0.9698900908962359  0.9444989323282373  0.7310859684085498  1.0000
  C   C13       1.0  0.47692810053850837  0.7778578781727675  0.7604178547354505  1.0000
  C   C14       1.0  0.0230731005829057  0.27782689538019406  0.2604161932132101  1.0000
  C   C15       1.0  0.5230690702288427  0.22215060793534047  0.23958129970596073  1.0000
  C   C16       1.0  0.9769255949769403  0.7221652672492456  0.7395846903844685  1.0000
  C   C17       1.0  0.319033166009703  0.5160885476738599  0.8818898296016896  1.0000
  C   C18       1.0  0.18097945165062873  0.016061802645083403  0.38189396258260183  1.0000
  C   C19       1.0  0.6809563808727361  0.4839169702317606  0.1181102950971109  1.0000
  C   C20       1.0  0.8190299173516281  0.9839273934337315  0.6181042840102932  1.0000
  C   C21       1.0  0.27739595467666334  0.7208782988722434  0.9152585668886886  1.0000
  C   C22       1.0  0.22261949967199263  0.22084407619925636  0.4152682267809879  1.0000
  C   C23       1.0  0.7225935921970432  0.27913315592401483  0.08473858664671498  1.0000
  C   C24       1.0  0.7773883445606203  0.7791421502466135  0.5847340820107334  1.0000
  N   N1        1.0  0.5090997059771425  0.5049813713823781  0.8405236359899318  1.0000
  N   N2        1.0  0.9909077744512874  0.0049512423712699  0.3405313852558649  1.0000
  N   N3        1.0  0.490892890457154  0.49503008174773566  0.1594771248100244  1.0000
  N   N4        1.0  0.009097020220068001  0.9950379529974215  0.659468407306903  1.0000
  O   O1        1.0  0.8101321696818147  0.4468732745432861  0.9319730727779925  1.0000
  O   O2        1.0  0.6898779567601708  0.9468362135029054  0.431979233006949  1.0000
  O   O3        1.0  0.1898650010855364  0.5531352115648219  0.0680260816634188  1.0000
  O   O4        1.0  0.31013141224651974  0.053152981149537516  0.5680221055267083  1.0000
  O   O5        1.0  0.8243067204649391  0.11643973505048424  0.9098141587411134  1.0000
  O   O6        1.0  0.6757007908181976  0.6164115968823508  0.40981895099103127  1.0000
  O   O7        1.0  0.17568892552363016  0.8835702349247114  0.09018502589447049  1.0000
  O   O8        1.0  0.32430400385099745  0.38358056621846964  0.5901809019604158  1.0000
  O   O9        1.0  0.5563949280085936  0.8862062776851048  0.8086949952323081  1.0000
  O   O10       1.0  0.9435966387659891  0.3861821459880588  0.30870594662273726  1.0000
  O   O11       1.0  0.4436098666436692  0.1138051766254975  0.1913031889517214  1.0000
  O   O12       1.0  0.05640510634819411  0.6138115005054133  0.6912949671696254  1.0000
  O   O13       1.0  0.41138082692246064  0.8432975769949494  0.7045495464614291  1.0000
  O   O14       1.0  0.08860334270551111  0.3432813397258698  0.20456005399964985  1.0000
  O   O15       1.0  0.5886132942920314  0.1567094247736733  0.295450608432226  1.0000
  O   O16       1.0  0.9113923032942142  0.6567152749792698  0.7954398895337886  1.0000
  O   O17       1.0  0.09772373017420222  0.7856880307529436  0.9191926115120238  1.0000
  O   O18       1.0  0.40228858823555674  0.2856550508923021  0.41920388780654594  1.0000
  O   O19       1.0  0.9022658166969465  0.21432490838483892  0.08080354157080188  1.0000
  O   O20       1.0  0.5977177312255295  0.7143267230054773  0.5808003916958242  1.0000
  O   O21       1.0  0.42960685182580266  0.8193649036866262  0.9407585118314685  1.0000
  O   O22       1.0  0.07040547770540681  0.3193383051430773  0.44076571198996817  1.0000
  O   O23       1.0  0.5703796454914071  0.180648034977736  0.05923867189792989  1.0000
  O   O24       1.0  0.929603891299074  0.6806508902225519  0.5592340805733116  1.0000
  O   O25       1.0  0.7821310743894756  0.8327105289452208  0.017931816436089303  1.0000
  O   O26       1.0  0.7178810854830788  0.3327195132770556  0.5179394909115443  1.0000
  O   O27       1.0  0.21786152204797563  0.1672935055677485  0.9820672474217884  1.0000
  O   O28       1.0  0.2821313330750641  0.6672741332092756  0.4820614228820189  1.0000
