data_image0
_chemical_formula_structural       CdP2H54C36S4N4O4
_chemical_formula_sum              "Cd1 P2 H54 C36 S4 N4 O4"
_cell_length_a       9.279041476262739
_cell_length_b       11.567409940247138
_cell_length_c       12.690128630505663
_cell_angle_alpha    113.6204610274543
_cell_angle_beta     107.83595678725163
_cell_angle_gamma    90.233100943367

_space_group_name_H-M_alt    "P 1"
_space_group_IT_number       1

loop_
  _space_group_symop_operation_xyz
  'x, y, z'

loop_
  _atom_site_type_symbol
  _atom_site_label
  _atom_site_symmetry_multiplicity
  _atom_site_fract_x
  _atom_site_fract_y
  _atom_site_fract_z
  _atom_site_occupancy
  Cd  Cd1       1.0  0.500004268831681  0.4999962866820481  0.5000004013164058  1.0000
  P   P1        1.0  0.5059484204580825  0.36498605108491944  0.23221838065292383  1.0000
  P   P2        1.0  0.4940551119523206  0.6350104175395686  0.7677788548657173  1.0000
  H   H1        1.0  0.19354649887031875  0.28768879098444694  0.13185163343535314  1.0000
  H   H2        1.0  0.8064567542612195  0.7123124529276481  0.8681441352373083  1.0000
  H   H3        1.0  0.12063974137002022  0.0682520611503605  0.09979675298637147  1.0000
  H   H4        1.0  0.8793640086422342  0.9317511037339086  0.9002037625012417  1.0000
  H   H5        1.0  0.30412073815273294  0.13090827611457456  0.21275018314264565  1.0000
  H   H6        1.0  0.6958826341187178  0.8690929817997601  0.787249556542811  1.0000
  H   H7        1.0  0.42984343206566683  0.013737893004297098  0.06351123065699936  1.0000
  H   H8        1.0  0.5701602671406079  0.9862585952233258  0.9364915642795563  1.0000
  H   H9        1.0  0.2956138815114926  0.905363790030968  0.06332588456843517  1.0000
  H   H10       1.0  0.7043798975973202  0.09463475994486001  0.9366708550846781  1.0000
  H   H11       1.0  0.10781318829582882  0.9010382800162727  0.8754549872865521  1.0000
  H   H12       1.0  0.8921928404288053  0.09896578062073046  0.12454081576650101  1.0000
  H   H13       1.0  0.282496989058437  0.8669469216656438  0.8499403691181867  1.0000
  H   H14       1.0  0.7175103537055207  0.1330514023360294  0.15005991923113973  1.0000
  H   H15       1.0  0.1653635816152388  0.023646099447731196  0.7677835523289644  1.0000
  H   H16       1.0  0.8346543634903796  0.976354899425658  0.2322159945810466  1.0000
  H   H17       1.0  0.3471522907631766  0.08927110719634611  0.8808425345841897  1.0000
  H   H18       1.0  0.6528605572844698  0.9107319135728672  0.11916219984019678  1.0000
  H   H19       1.0  0.1640137986113857  0.24626784943654909  0.918154856463225  1.0000
  H   H20       1.0  0.8359820006089222  0.7537297033243178  0.08184036596597363  1.0000
  H   H21       1.0  0.03903977464826618  0.13400982473831388  0.9229980683039398  1.0000
  H   H22       1.0  0.960966618860219  0.8659779918641419  0.07699818267465718  1.0000
  H   H23       1.0  0.5091309566928998  0.4584854964769108  0.0744379721748416  1.0000
  H   H24       1.0  0.4908643474001551  0.5415092042303868  0.9255584691587939  1.0000
  H   H25       1.0  0.6680327681842755  0.644798018616818  0.26109150844144574  1.0000
  H   H26       1.0  0.3319635450877954  0.3551966490236822  0.7389011914205382  1.0000
  H   H27       1.0  0.6854907913615733  0.6434659156647626  0.12582033428168413  1.0000
  H   H28       1.0  0.31450549808251077  0.35652874917529687  0.8741715713777366  1.0000
  H   H29       1.0  0.9437280880712321  0.7014790621886888  0.2814631483963692  1.0000
  H   H30       1.0  0.0562703167962866  0.2985146166381938  0.7185304168493616  1.0000
  H   H31       1.0  0.9165219006439498  0.5676634635360641  0.30996753716459563  1.0000
  H   H32       1.0  0.08347212725880837  0.4323254994587271  0.6900218115472112  1.0000
  H   H33       1.0  0.9362823754467443  0.5644105358843274  0.0715679181804914  1.0000
  H   H34       1.0  0.06371677999889869  0.4355812169080693  0.9284251008042259  1.0000
  H   H35       1.0  0.0761973313790136  0.5234769610555787  0.17583657255762114  1.0000
  H   H36       1.0  0.9237944875418477  0.4765120456692029  0.8241539054770326  1.0000
  H   H37       1.0  0.895884624274217  0.33540425254226136  0.12975560336582245  1.0000
  H   H38       1.0  0.10410397963574519  0.6645915020350656  0.8702358776092679  1.0000
  H   H39       1.0  0.9139649376926754  0.3298385633510037  0.9934949749920746  1.0000
  H   H40       1.0  0.08602493084717372  0.6701523800714781  0.006493437154780635  1.0000
  H   H41       1.0  0.6714749268096796  0.4167822191175218  0.9464622540331716  1.0000
  H   H42       1.0  0.3285149704616259  0.5832144670797773  0.05352905018158072  1.0000
  H   H43       1.0  0.637308331295074  0.2805221388477576  0.9711754749608088  1.0000
  H   H44       1.0  0.36268398765651  0.719475459904963  0.028815882034734702  1.0000
  H   H45       1.0  0.6359301306394657  0.7452401988408537  0.48074853710719595  1.0000
  H   H46       1.0  0.364068454337783  0.25476311737512697  0.5192667147259014  1.0000
  H   H47       1.0  0.13107969975523304  0.7983192327874563  0.610260462146712  1.0000
  H   H48       1.0  0.8689154130067748  0.20169654045051286  0.38974915426401663  1.0000
  H   H49       1.0  0.11851937747803729  0.615365575757842  0.6651655952001575  1.0000
  H   H50       1.0  0.8814896185098391  0.3846614878605266  0.3348620902707181  1.0000
  H   H51       1.0  0.8579531400847813  0.5034667275247742  0.6218607754167278  1.0000
  H   H52       1.0  0.14205916622591988  0.4965535994428408  0.3781690839239431  1.0000
  H   H53       1.0  0.773586286838416  0.9196096510642492  0.4669245756657999  1.0000
  H   H54       1.0  0.22640161590283722  0.0803871040670785  0.5330750056948189  1.0000
  C   C1        1.0  0.24299251971370947  0.20825041234616043  0.07800036630136017  1.0000
  C   C2        1.0  0.7570115793078926  0.7917489167332333  0.9219980329205124  1.0000
  C   C3        1.0  0.24113049707225537  0.09772082264095866  0.11470935167339034  1.0000
  C   C4        1.0  0.7588722847600167  0.9022775720180221  0.8852884301062645  1.0000
  C   C5        1.0  0.3064836786948746  0.9853974426310544  0.03905161934109457  1.0000
  C   C6        1.0  0.6935191746213435  0.014600960429263  0.9609485450462427  1.0000
  C   C7        1.0  0.22750138064220954  0.942953752926904  0.9016191724474536  1.0000
  C   C8        1.0  0.7725077267823649  0.057048351947862806  0.0983789260345347  1.0000
  C   C9        1.0  0.2285120181876508  0.05462925725235121  0.8656820639960259  1.0000
  C   C10       1.0  0.7715005456776682  0.9453727988301  0.13431910571704728  1.0000
  C   C11       1.0  0.16040177196501298  0.16476582868060058  0.9416059161511043  1.0000
  C   C12       1.0  0.8396028172803724  0.8352306124779929  0.05838916630099069  1.0000
  C   C13       1.0  0.6322683392399284  0.4586592346844397  0.1147682110445131  1.0000
  C   C14       1.0  0.3677262791020155  0.5413325915657055  0.8852230955730888  1.0000
  C   C15       1.0  0.7147330252797132  0.5953549728337606  0.18753632115185317  1.0000
  C   C16       1.0  0.2852616627927133  0.40463779289911617  0.8124514023540357  1.0000
  C   C17       1.0  0.8885531341076174  0.6016582265588397  0.23748822394265542  1.0000
  C   C18       1.0  0.11144397739855087  0.3983345206480705  0.7625055180634205  1.0000
  C   C19       1.0  0.95209088016059  0.5214689899917386  0.13712027129697893  1.0000
  C   C20       1.0  0.04789976278537718  0.4785200301967051  0.8628683887914121  1.0000
  C   C21       1.0  0.8705950364705684  0.3835736768236088  0.0681690880834792  1.0000
  C   C22       1.0  0.1293938926207545  0.6164182391483947  0.9318194824233144  1.0000
  C   C23       1.0  0.697274859480146  0.37883761033663876  0.016302135233068726  1.0000
  C   C24       1.0  0.3027167039898373  0.6211561744762049  0.9836876701581615  1.0000
  C   C25       1.0  0.7457953130378385  0.7202864533334647  0.522345736861453  1.0000
  C   C26       1.0  0.25420536843832753  0.2797216140432609  0.4776724782207393  1.0000
  C   C27       1.0  0.8846093751537011  0.7879354789889272  0.5423117717427954  1.0000
  C   C28       1.0  0.1153859454032187  0.21207551056009066  0.4576969289062375  1.0000
  C   C29       1.0  0.021127091873808002  0.7488348048531819  0.5944893176964638  1.0000
  C   C30       1.0  0.9788688906062434  0.2511790563525338  0.40552372346603954  1.0000
  C   C31       1.0  0.01380203266178629  0.6466711354359731  0.6244676496253162  1.0000
  C   C32       1.0  0.9862059474901346  0.3533511523562041  0.3755557137324955  1.0000
  C   C33       1.0  0.8704023628702587  0.5848245274563554  0.6007571732838242  1.0000
  C   C34       1.0  0.1296032670853293  0.4151968561817442  0.3992685199008647  1.0000
  C   C35       1.0  0.883894083795603  0.8925492115278285  0.5066019991043046  1.0000
  C   C36       1.0  0.11609414903048079  0.10744944497253778  0.4933967696533585  1.0000
  S   S1        1.0  0.5856331320088444  0.29237997433328633  0.35405452170275703  1.0000
  S   S2        1.0  0.4143724681690202  0.7076155026771289  0.6459427849970821  1.0000
  S   S3        1.0  0.395594606398511  0.5162569275498613  0.28253689785763203  1.0000
  S   S4        1.0  0.6044100322562969  0.4837385881282401  0.7174657387189781  1.0000
  N   N1        1.0  0.7395094149717067  0.6209793997233817  0.550368049052629  1.0000
  N   N2        1.0  0.2604974270543465  0.379031427184607  0.4496508890333643  1.0000
  N   N3        1.0  0.011216049388060884  0.9522632023649817  0.5200068810061181  1.0000
  N   N4        1.0  0.988771715288763  0.047739275938028  0.47999003300448334  1.0000
  O   O1        1.0  0.4012788339159528  0.2581185784701816  0.10116283093097418  1.0000
  O   O2        1.0  0.5987258268133785  0.7418778710897554  0.8988346341288034  1.0000
  O   O3        1.0  0.6504225432352371  0.3971451173515632  0.1991659744030442  1.0000
  O   O4        1.0  0.3495773676920066  0.6028504493807105  0.8008285961859867  1.0000
