data_image0
_chemical_formula_structural       Cs8H16C16N48O16
_chemical_formula_sum              "Cs8 H16 C16 N48 O16"
_cell_length_a       4.945146460030827
_cell_length_b       15.324102881104913
_cell_length_c       18.118091263014726
_cell_angle_alpha    89.99986500296828
_cell_angle_beta     90.00004790685043
_cell_angle_gamma    89.99959764122131

_space_group_name_H-M_alt    "P 1"
_space_group_IT_number       1

loop_
  _space_group_symop_operation_xyz
  'x, y, z'

loop_
  _atom_site_type_symbol
  _atom_site_label
  _atom_site_symmetry_multiplicity
  _atom_site_fract_x
  _atom_site_fract_y
  _atom_site_fract_z
  _atom_site_occupancy
  Cs  Cs1       1.0  0.43797247573706244  0.6814955546226925  0.6576133656103738  1.0000
  Cs  Cs2       1.0  0.5620165137309884  0.31850457044662756  0.15761128330931484  1.0000
  Cs  Cs3       1.0  0.43799046852432616  0.8185020064298527  0.15760581655735711  1.0000
  Cs  Cs4       1.0  0.5620248093268215  0.18149877118833757  0.6576105533470271  1.0000
  Cs  Cs5       1.0  0.9379430473822054  0.9309723356261018  0.8162375083060314  1.0000
  Cs  Cs6       1.0  0.06204034205769201  0.0690273355276787  0.31623358321957085  1.0000
  Cs  Cs7       1.0  0.9379179477967979  0.5690282088192615  0.31622823511876424  1.0000
  Cs  Cs8       1.0  0.0620452197597814  0.4309727675114131  0.8162285061056594  1.0000
  H   H1        1.0  0.44913446778182475  0.7540815320100761  0.87750676892113  1.0000
  H   H2        1.0  0.5508571905477737  0.24592318432967633  0.37750868821672173  1.0000
  H   H3        1.0  0.44911562192257287  0.7459127643022896  0.3775109512000584  1.0000
  H   H4        1.0  0.5508740143559693  0.2540802058327429  0.8775083694905776  1.0000
  H   H5        1.0  0.42640418039502487  0.8468732073394348  0.9329032401633841  1.0000
  H   H6        1.0  0.573587640861227  0.15313135047535545  0.4329053447308341  1.0000
  H   H7        1.0  0.4264096020225879  0.6531177189931084  0.432907050391009  1.0000
  H   H8        1.0  0.5735862637250194  0.3468757451815776  0.9329020864489697  1.0000
  H   H9        1.0  0.05691415956400191  0.39771190276103846  0.040996213528494314  1.0000
  H   H10       1.0  0.9430866200583808  0.6022865983041543  0.5409985692531623  1.0000
  H   H11       1.0  0.0569241823792481  0.10228965205229913  0.5409972929154706  1.0000
  H   H12       1.0  0.9430867081299326  0.8977121118367891  0.04099638599519301  1.0000
  H   H13       1.0  0.022190251729888595  0.49393152967932963  0.09297234180608173  1.0000
  H   H14       1.0  0.9778167473099446  0.5060668226457635  0.5929721326223004  1.0000
  H   H15       1.0  0.0221942839479823  0.0060725651985365  0.5929747115810928  1.0000
  H   H16       1.0  0.9778248481445362  0.9939310076460401  0.09297031477818513  1.0000
  C   C1        1.0  0.13566154158604604  0.7552055022699522  0.9502953031630528  1.0000
  C   C2        1.0  0.8643363973950856  0.24479704807044558  0.45029564323385796  1.0000
  C   C3        1.0  0.13565283121564417  0.7447840741288376  0.4503022472991773  1.0000
  C   C4        1.0  0.864347130039107  0.2552112979647632  0.9502958742536906  1.0000
  C   C5        1.0  0.818422964890722  0.6627137856932349  0.9844817460500582  1.0000
  C   C6        1.0  0.18157911902486754  0.33728670911514763  0.48448064091767423  1.0000
  C   C7        1.0  0.81841628199669  0.8372774116174639  0.48448961475828894  1.0000
  C   C8        1.0  0.18158984631266153  0.1627224306030187  0.9844843628354741  1.0000
  C   C9        1.0  0.6476138923102469  0.5865209355559743  0.9860360472385425  1.0000
  C   C10       1.0  0.35238617398623967  0.4134802073721745  0.4860359388125916  1.0000
  C   C11       1.0  0.6476095922832741  0.9134739064281021  0.4860443201778681  1.0000
  C   C12       1.0  0.3523924962372149  0.0865252787801367  0.9860398084348392  1.0000
  C   C13       1.0  0.33729913423532304  0.49212170862270455  0.021087877166401408  1.0000
  C   C14       1.0  0.6627116977304227  0.5078794596683665  0.5210903493592199  1.0000
  C   C15       1.0  0.33731121575628714  0.0078805741811578  0.5210963147154999  1.0000
  C   C16       1.0  0.6627117493487235  0.9921192889468956  0.021092950503231105  1.0000
  N   N1        1.0  0.023194005890331902  0.7851558699431463  0.012289719624028802  1.0000
  N   N2        1.0  0.9768026448890552  0.21484662867680984  0.5122906266709677  1.0000
  N   N3        1.0  0.0231975300406972  0.7148371719006336  0.5122988598459131  1.0000
  N   N4        1.0  0.9768011429990792  0.28516010616488785  0.012294180948337903  1.0000
  N   N5        1.0  0.8240304085373256  0.7267658717626517  0.033380945053799814  1.0000
  N   N6        1.0  0.17597237082572548  0.27323656649699046  0.5333804449792299  1.0000
  N   N7        1.0  0.82403063724869  0.7732272563092623  0.5333905240204546  1.0000
  N   N8        1.0  0.1759701200012813  0.2267706139640993  0.033385768248791706  1.0000
  N   N9        1.0  0.0121068580106751  0.6784559898587829  0.9304654594654455  1.0000
  N   N10       1.0  0.9878950670096528  0.32154726979139536  0.43046457621117906  1.0000
  N   N11       1.0  0.012090407464967303  0.8215352278523298  0.4304717028852637  1.0000
  N   N12       1.0  0.9879155620099097  0.17846150611235603  0.9304677156849978  1.0000
  N   N13       1.0  0.3299363996307605  0.7936996011841942  0.9093180143567001  1.0000
  N   N14       1.0  0.6700573744508488  0.2063043715540687  0.4093200387425569  1.0000
  N   N15       1.0  0.32992246207495407  0.7062929159591322  0.4093233773067696  1.0000
  N   N16       1.0  0.6700733342983723  0.2937019208352538  0.9093196432122572  1.0000
  N   N17       1.0  0.07320962183679572  0.6306926930145309  0.8673435216599261  1.0000
  N   N18       1.0  0.9267900953549101  0.36931074726634  0.3673452909868331  1.0000
  N   N19       1.0  0.0732062850390278  0.8693005248241192  0.3673524321625977  1.0000
  N   N20       1.0  0.9268075875273499  0.13069704232341917  0.8673479711164378  1.0000
  N   N21       1.0  0.9204965805384975  0.6582653708075841  0.8111091950000573  1.0000
  N   N22       1.0  0.0795009490767811  0.34173823039891715  0.3111102647536087  1.0000
  N   N23       1.0  0.9205059781002162  0.8417273969075939  0.3111148473473194  1.0000
  N   N24       1.0  0.0795117734573623  0.15826837346637035  0.8111106836960505  1.0000
  N   N25       1.0  0.6527468502370583  0.5203115744993312  0.939131612663971  1.0000
  N   N26       1.0  0.34725712247998797  0.4796897026464109  0.4391324785420353  1.0000
  N   N27       1.0  0.652757283916678  0.9796840426500566  0.4391397572571521  1.0000
  N   N28       1.0  0.3472507332075382  0.020315276775065203  0.9391353726416299  1.0000
  N   N29       1.0  0.4586137507986764  0.4603689389373429  0.960943548012452  1.0000
  N   N30       1.0  0.5413902860763856  0.5396316232238617  0.4609443437661158  1.0000
  N   N31       1.0  0.4586337803241777  0.039631810795114596  0.4609508898513824  1.0000
  N   N32       1.0  0.5413803674848124  0.9603694039048207  0.9609485925526686  1.0000
  N   N33       1.0  0.4498065935796376  0.5712270023985154  0.03888494243350491  1.0000
  N   N34       1.0  0.5501941798153637  0.4287728098454764  0.5388847815982062  1.0000
  N   N35       1.0  0.4498115192844027  0.9287715242072779  0.5388931160136678  1.0000
  N   N36       1.0  0.5501993650390348  0.0712295931406146  0.03888930251194011  1.0000
  N   N37       1.0  0.1441668091317823  0.45383838667096654  0.0626281391141887  1.0000
  N   N38       1.0  0.8558340341169951  0.5461593999269638  0.5626289271296019  1.0000
  N   N39       1.0  0.14418210019249497  0.046165519170088494  0.5626331908425827  1.0000
  N   N40       1.0  0.855832898301081  0.953837487937932  0.06262939474302703  1.0000
  N   N41       1.0  0.3735778753102679  0.619864105772976  0.10022523296740363  1.0000
  N   N42       1.0  0.6264109453578116  0.38013814121543277  0.6002268403066324  1.0000
  N   N43       1.0  0.3735798172196922  0.8801350702639754  0.6002329488952967  1.0000
  N   N44       1.0  0.6264312475179422  0.11986521898403167  0.10022961113914873  1.0000
  N   N45       1.0  0.5017140350458503  0.5893916186252214  0.15986897771588812  1.0000
  N   N46       1.0  0.49826080579308746  0.41060588973636675  0.6598682878381228  1.0000
  N   N47       1.0  0.5017234012502741  0.9106038341073415  0.6598760826427041  1.0000
  N   N48       1.0  0.4982757058003314  0.08939563191205478  0.15987166966817065  1.0000
  O   O1        1.0  0.753228863835055  0.7210894600844924  0.8152563502400768  1.0000
  O   O2        1.0  0.24676463358732548  0.2789154343985061  0.3152531659984704  1.0000
  O   O3        1.0  0.753237609116212  0.7789062843195539  0.3152571569584737  1.0000
  O   O4        1.0  0.24677004367964628  0.22109143191161712  0.8152534631577526  1.0000
  O   O5        1.0  0.9529408730634684  0.6171524100440776  0.7508286062555671  1.0000
  O   O6        1.0  0.04704636830025069  0.3828546265098042  0.25082903667232875  1.0000
  O   O7        1.0  0.9529736403169906  0.8828417619054606  0.2508341789065868  1.0000
  O   O8        1.0  0.04705606708666471  0.11715157068919518  0.7508300872538671  1.0000
  O   O9        1.0  0.6749350509060507  0.5280932200337459  0.1582673437086157  1.0000
  O   O10       1.0  0.32502562997586887  0.4718997249625049  0.6582648380919595  1.0000
  O   O11       1.0  0.6749511691862651  0.9719011929624487  0.658274329810027  1.0000
  O   O12       1.0  0.3250479331163447  0.0281015404757952  0.15826889067601974  1.0000
  O   O13       1.0  0.4398631732305347  0.6266609943431903  0.22025112264785926  1.0000
  O   O14       1.0  0.5600997120776795  0.373337646371219  0.7202521754971658  1.0000
  O   O15       1.0  0.43987941872404684  0.8733311626323683  0.72025940369457  1.0000
  O   O16       1.0  0.5601198659275824  0.1266674780243022  0.22025548507969014  1.0000
