data_image0
_chemical_formula_structural       Cd4H20C6Se4N4
_chemical_formula_sum              "Cd4 H20 C6 Se4 N4"
_cell_length_a       6.739111238220758
_cell_length_b       6.77557062065204
_cell_length_c       10.936852997946286
_cell_angle_alpha    108.05257445920869
_cell_angle_beta     89.99993160312529
_cell_angle_gamma    90.00095076227467

_space_group_name_H-M_alt    "P 1"
_space_group_IT_number       1

loop_
  _space_group_symop_operation_xyz
  'x, y, z'

loop_
  _atom_site_type_symbol
  _atom_site_label
  _atom_site_symmetry_multiplicity
  _atom_site_fract_x
  _atom_site_fract_y
  _atom_site_fract_z
  _atom_site_occupancy
  Cd  Cd1       1.0  0.5556327049915311  0.6460907078922064  0.5790851013246153  1.0000
  Cd  Cd2       1.0  0.5557420993699297  0.0668474553526792  0.42073265664559756  1.0000
  Cd  Cd3       1.0  0.0557355407744211  0.9331435785248843  0.5792655747064329  1.0000
  Cd  Cd4       1.0  0.0556297733083539  0.35390507510605573  0.42090583136155146  1.0000
  H   H1        1.0  0.4226528814070463  0.42655666798602004  0.7488444545494416  1.0000
  H   H2        1.0  0.4225998474399971  0.6777189271702044  0.2508735752528537  1.0000
  H   H3        1.0  0.9225858182656594  0.3222784018133496  0.7491186221081774  1.0000
  H   H4        1.0  0.9226500105838938  0.573459216034536  0.251157779213564  1.0000
  H   H5        1.0  0.2548578755453548  0.6040857272707356  0.7470980923701872  1.0000
  H   H6        1.0  0.2545614931295646  0.8569594648025787  0.2529142893526313  1.0000
  H   H7        1.0  0.7545665057699223  0.14305371964541547  0.7470745926783663  1.0000
  H   H8        1.0  0.7548265764955318  0.3959271795030617  0.2529154230212995  1.0000
  H   H9        1.0  0.4639840839557793  0.8796944513403276  0.8775397696958861  1.0000
  H   H10       1.0  0.4630296534526863  0.0025060278110799997  0.1223707777297633  1.0000
  H   H11       1.0  0.962984178028151  0.9974966527213529  0.877621559127661  1.0000
  H   H12       1.0  0.963918720421937  0.12028631467030952  0.12246564597046466  1.0000
  H   H13       1.0  0.6426646990935723  0.6916036959726952  0.8811638564725045  1.0000
  H   H14       1.0  0.6422623518979904  0.8112646082023288  0.11877344775366788  1.0000
  H   H15       1.0  0.1422202973736759  0.1887495488907902  0.8812357262982075  1.0000
  H   H16       1.0  0.1426222103565209  0.30838580938643645  0.11882494297993419  1.0000
  H   H17       1.0  0.39934973136458035  0.5320878002766848  4.138718976781549e-05  1.0000
  H   H18       1.0  0.8992689628689162  0.46790115349024575  0.9999683676081687  1.0000
  H   H19       1.0  0.22442563358595893  0.7273567294875535  0.9997216453615748  1.0000
  H   H20       1.0  0.724372451038427  0.27260598915214734  0.0002820317047707115  1.0000
  C   C1        1.0  0.4815398429834304  0.7186769993870072  0.8791448479122719  1.0000
  C   C2        1.0  0.4810336300205621  0.8399211157051382  0.12073856967909789  1.0000
  C   C3        1.0  0.9809983041135197  0.16008806837635353  0.8792559582382892  1.0000
  C   C4        1.0  0.9814907390944186  0.28132445270979645  0.12084633626147928  1.0000
  C   C5        1.0  0.3846912753203213  0.6942000143111572  0.9998747219883413  1.0000
  C   C6        1.0  0.8846461097398617  0.30578148452051584  8.510901096061293e-05  1.0000
  Se  Se1       1.0  0.9305436354146792  0.6031502696559059  0.6420559640463422  1.0000
  Se  Se2       1.0  0.9306928982529428  0.960960555002501  0.3580281154176532  1.0000
  Se  Se3       1.0  0.4306833296459446  0.03903217056384281  0.6419704958306411  1.0000
  Se  Se4       1.0  0.4305373013575391  0.3968456102466647  0.35793869347417473  1.0000
  N   N1        1.0  0.404377362530532  0.5810273799088108  0.7570193870452542  1.0000
  N   N2        1.0  0.4041135811327123  0.8241243406357981  0.24292063127818145  1.0000
  N   N3        1.0  0.9040894633028814  0.17590640687998874  0.7571146864989301  1.0000
  N   N4        1.0  0.9043494898117287  0.4190002152053225  0.24301988485346723  1.0000
