data_image0
_chemical_formula_structural       Zn2H40C36N12O8
_chemical_formula_sum              "Zn2 H40 C36 N12 O8"
_cell_length_a       9.675124534285484
_cell_length_b       9.959084620593712
_cell_length_c       13.168743889439895
_cell_angle_alpha    103.90305569713509
_cell_angle_beta     101.14384830014325
_cell_angle_gamma    104.08913599047617

_space_group_name_H-M_alt    "P 1"
_space_group_IT_number       1

loop_
  _space_group_symop_operation_xyz
  'x, y, z'

loop_
  _atom_site_type_symbol
  _atom_site_label
  _atom_site_symmetry_multiplicity
  _atom_site_fract_x
  _atom_site_fract_y
  _atom_site_fract_z
  _atom_site_occupancy
  Zn  Zn1       1.0  0.5453961386045593  0.41929256759188166  0.19730386195509905  1.0000
  Zn  Zn2       1.0  0.45460143720654134  0.5807150732757761  0.8026968436366811  1.0000
  H   H1        1.0  0.10164536632799331  0.6254929563061608  0.19822066059268903  1.0000
  H   H2        1.0  0.8983549898389709  0.3744869885287727  0.8017772881698872  1.0000
  H   H3        1.0  0.2644633681294836  0.6469625502346334  0.0722574281451074  1.0000
  H   H4        1.0  0.7355344136032542  0.3530131301926289  0.9277401997862852  1.0000
  H   H5        1.0  0.16879039947158966  0.9168191441004296  0.12112366384219796  1.0000
  H   H6        1.0  0.8311958071998404  0.08319500145775288  0.8788909707783572  1.0000
  H   H7        1.0  0.9180932896512672  0.7477293599669466  0.010807905109785966  1.0000
  H   H8        1.0  0.08190442025059498  0.25228747419897246  0.9892072801982718  1.0000
  H   H9        1.0  0.45620917183532567  0.24118299598118406  0.3725671028053909  1.0000
  H   H10       1.0  0.5438006562907489  0.7588117101880841  0.6274270691867655  1.0000
  H   H11       1.0  0.7999489813130793  0.6147321770273423  0.4107551865253497  1.0000
  H   H12       1.0  0.200049506229  0.3852721059708841  0.5892450814219287  1.0000
  H   H13       1.0  0.5362133632191046  0.3097251301209738  0.6463285817646706  1.0000
  H   H14       1.0  0.4637804239602374  0.6902925941349594  0.3536717713126832  1.0000
  H   H15       1.0  0.3966971820188263  0.3366553916897318  0.9334909612642616  1.0000
  H   H16       1.0  0.6033060181205769  0.663344346171016  0.06651300078267038  1.0000
  H   H17       1.0  0.8388474303288689  0.5211288744655178  0.6803489901693421  1.0000
  H   H18       1.0  0.16115043054075073  0.4788677340216339  0.3196506561092533  1.0000
  H   H19       1.0  0.771283109870609  0.6695971115431052  0.6713117410312605  1.0000
  H   H20       1.0  0.22871665877129035  0.33040485559884303  0.3286867977167488  1.0000
  H   H21       1.0  0.9679711059901093  0.7471732633797288  0.5724294324667837  1.0000
  H   H22       1.0  0.032033900203231325  0.25281971628814404  0.4275721256502151  1.0000
  H   H23       1.0  0.038935723434832495  0.6069079193611843  0.5992262576721925  1.0000
  H   H24       1.0  0.9610635776504634  0.3930897638131583  0.4007752911404977  1.0000
  H   H25       1.0  0.07020845909772092  0.7195341729913595  0.799606159827867  1.0000
  H   H26       1.0  0.9297979386177956  0.28046862889491564  0.20039572980967077  1.0000
  H   H27       1.0  0.004411585635779141  0.858993931644541  0.769663550435723  1.0000
  H   H28       1.0  0.9955929589751589  0.14100664740637112  0.23033390662015304  1.0000
  H   H29       1.0  0.28705706041044016  0.7976060758140805  0.7256145277235431  1.0000
  H   H30       1.0  0.7129464481697169  0.20239455547081064  0.27438279252534403  1.0000
  H   H31       1.0  0.2205791144462027  0.9367135412415168  0.6936506960562311  1.0000
  H   H32       1.0  0.77942324250737  0.06328385786888902  0.3063466772546305  1.0000
  H   H33       1.0  0.23032453685650717  0.0377070697458635  0.8919118648055286  1.0000
  H   H34       1.0  0.7696792516087356  0.9622913828247309  0.10808664671895948  1.0000
  H   H35       1.0  0.30043990726156283  0.9001215380938918  0.9206691142614004  1.0000
  H   H36       1.0  0.6995698000952826  0.0998787373331425  0.079327498188519  1.0000
  H   H37       1.0  0.5038446204731314  0.12283115546318162  0.9737564994739001  1.0000
  H   H38       1.0  0.49616426980993106  0.877166844894518  0.02623581720135352  1.0000
  H   H39       1.0  0.5267365566257354  0.0013160855509326973  0.8582073594393689  1.0000
  H   H40       1.0  0.4732647580366845  0.9986843530238689  0.141778986708978  1.0000
  C   C1        1.0  0.8123043602066886  0.4769842126338092  0.1467775963380404  1.0000
  C   C2        1.0  0.18768697495052317  0.5230059493972447  0.8532147299523272  1.0000
  C   C3        1.0  0.9091172874824167  0.48681005965340074  0.0705843099391856  1.0000
  C   C4        1.0  0.09087383389123721  0.5131735760147436  0.9294099247300661  1.0000
  C   C5        1.0  0.058502477885966256  0.5700685536995991  0.11129745140465984  1.0000
  C   C6        1.0  0.9414949605899708  0.42990614839551  0.8887037610429115  1.0000
  C   C7        1.0  0.14847245117621818  0.5830238241789447  0.0413337516245633  1.0000
  C   C8        1.0  0.8515253887548083  0.4169638669609768  0.958661351103842  1.0000
  C   C9        1.0  0.2918423669000417  0.1902237316580226  0.12575637754026298  1.0000
  C   C10       1.0  0.7081511657054874  0.8097754979763395  0.8742499377598989  1.0000
  C   C11       1.0  0.13979371736017748  0.0938908405835903  0.06146796932887358  1.0000
  C   C12       1.0  0.860199022640735  0.9061239062218859  0.9385416086560736  1.0000
  C   C13       1.0  0.093550288781586  0.9519380779957917  0.06791258436598471  1.0000
  C   C14       1.0  0.9064589991562285  0.04807276092766698  0.9321070156045151  1.0000
  C   C15       1.0  0.9546893862111715  0.8582780799738929  0.006635381968841617  1.0000
  C   C16       1.0  0.04529150132830749  0.1417211165410492  0.9933843409705784  1.0000
  C   C17       1.0  0.5489154467984391  0.3393670364391213  0.41128378673999316  1.0000
  C   C18       1.0  0.45109401195880133  0.6606266277169938  0.5887116768069375  1.0000
  C   C19       1.0  0.7233776137534278  0.5300563497513124  0.42863217427831296  1.0000
  C   C20       1.0  0.276625525457888  0.4699432395204185  0.5713664375253414  1.0000
  C   C21       1.0  0.5042862125132714  0.28323157959625433  0.7156854698261552  1.0000
  C   C22       1.0  0.4957044717471533  0.716777447695378  0.2843122222414251  1.0000
  C   C23       1.0  0.4338370534773118  0.30151823368847624  0.8615837635662016  1.0000
  C   C24       1.0  0.5661614340647674  0.6984860493097501  0.13841650438107675  1.0000
  C   C25       1.0  0.8277537796913349  0.5963147338501074  0.6327298502644181  1.0000
  C   C26       1.0  0.1722499652538403  0.4036836125854748  0.36726483965773576  1.0000
  C   C27       1.0  0.979063652662333  0.6824050459824278  0.6289052510923054  1.0000
  C   C28       1.0  0.020943621968115236  0.31759431312639924  0.37109314361886436  1.0000
  C   C29       1.0  0.06573172441252251  0.7836645981080609  0.7422657956524998  1.0000
  C   C30       1.0  0.9342730652674548  0.21633371732054482  0.2577297953971111  1.0000
  C   C31       1.0  0.22286925341476407  0.8710900019314566  0.7501860804418424  1.0000
  C   C32       1.0  0.7771371181887189  0.12891273627381142  0.24981351623429046  1.0000
  C   C33       1.0  0.2978864497201671  0.9685476065213908  0.8664100108942562  1.0000
  C   C34       1.0  0.7021184903716458  0.03145407822368182  0.13358844756825755  1.0000
  C   C35       1.0  0.45563743841729815  0.06427596620243752  0.8869398826845366  1.0000
  C   C36       1.0  0.5443653599808514  0.9357256531945666  0.11305218760024613  1.0000
  N   N1        1.0  0.6094750111260723  0.4249223773412965  0.35428483563265434  1.0000
  N   N2        1.0  0.3905286391619143  0.5750816020330518  0.6457145877086601  1.0000
  N   N3        1.0  0.618870015708083  0.3867959939576054  0.5161085804688739  1.0000
  N   N4        1.0  0.38113389352638893  0.6131968893552299  0.48388749059785835  1.0000
  N   N5        1.0  0.7295424292574211  0.5077744182120156  0.5256325601798507  1.0000
  N   N6        1.0  0.27045887425734344  0.4922229906783572  0.4743631476830854  1.0000
  N   N7        1.0  0.45893150383209047  0.373014871868051  0.7895543459867083  1.0000
  N   N8        1.0  0.5410693391872171  0.6269960028411602  0.21045040175942376  1.0000
  N   N9        1.0  0.508325022840161  0.16131553180767363  0.7384749440859791  1.0000
  N   N10       1.0  0.49167222086178713  0.838694160412267  0.261519984307398  1.0000
  N   N11       1.0  0.46366666180511357  0.17538569843982543  0.8314597326203312  1.0000
  N   N12       1.0  0.5363317648088782  0.8246184359693844  0.16853518508366963  1.0000
  O   O1        1.0  0.6768480178769989  0.3908764874099475  0.10248712220798946  1.0000
  O   O2        1.0  0.32313957569909485  0.6091327390376192  0.8975116880795465  1.0000
  O   O3        1.0  0.8621335204859976  0.5497534668877366  0.2448286104370183  1.0000
  O   O4        1.0  0.13786398489222765  0.4502332671470413  0.7551708411280271  1.0000
  O   O5        1.0  0.34225259991988094  0.30880079975322167  0.10174081111344437  1.0000
  O   O6        1.0  0.6577391527437443  0.6912052517550225  0.8982702010780553  1.0000
  O   O7        1.0  0.36484202312968955  0.1536130732862517  0.19827180268319466  1.0000
  O   O8        1.0  0.6351684403728584  0.8463893286211005  0.8017237552981056  1.0000
