data_image0
_chemical_formula_structural       Zn2H32C48N8O8
_chemical_formula_sum              "Zn2 H32 C48 N8 O8"
_cell_length_a       7.372719751574429
_cell_length_b       17.036176621472272
_cell_length_c       18.51530553029096
_cell_angle_alpha    62.61187960499374
_cell_angle_beta     88.24833861230728
_cell_angle_gamma    86.21037116902703

_space_group_name_H-M_alt    "P 1"
_space_group_IT_number       1

loop_
  _space_group_symop_operation_xyz
  'x, y, z'

loop_
  _atom_site_type_symbol
  _atom_site_label
  _atom_site_symmetry_multiplicity
  _atom_site_fract_x
  _atom_site_fract_y
  _atom_site_fract_z
  _atom_site_occupancy
  Zn  Zn1       1.0  0.24974146429334354  0.09163924332415271  0.8165634835949332  1.0000
  Zn  Zn2       1.0  0.7502597625642622  0.908360608654689  0.1834366522616121  1.0000
  H   H1        1.0  0.6697985992674732  0.2016271736494842  0.7367720239196061  1.0000
  H   H2        1.0  0.8306963135852572  0.06186977567933389  0.7367411096868678  1.0000
  H   H3        1.0  0.3302037181304627  0.7983743557697806  0.2632284242672112  1.0000
  H   H4        1.0  0.16930489263926765  0.9381279209213957  0.26326118959856604  1.0000
  H   H5        1.0  0.42988132344780194  0.312538956011906  0.650649839986194  1.0000
  H   H6        1.0  0.07030364223202676  0.037203354284344084  0.6504205413379934  1.0000
  H   H7        1.0  0.5701182710121061  0.6874615264155037  0.3493516490601534  1.0000
  H   H8        1.0  0.9296965431286496  0.9627901248496753  0.3495833314593779  1.0000
  H   H9        1.0  0.8383957806202246  0.49652732717615317  0.5207489883563595  1.0000
  H   H10       1.0  0.6612274728745149  0.9833432057751065  0.5206068983604479  1.0000
  H   H11       1.0  0.1616025581550389  0.5034738636407426  0.4792511209614004  1.0000
  H   H12       1.0  0.3387722118949553  0.016656892004135736  0.47939431309922037  1.0000
  H   H13       1.0  0.0799272380344576  0.3870097582213459  0.6116091967675246  1.0000
  H   H14       1.0  0.4200780422471766  0.0018231906422699958  0.6117120069549599  1.0000
  H   H15       1.0  0.9200729240741555  0.6129911105397028  0.38838792247263115  1.0000
  H   H16       1.0  0.5799188395912438  0.9981773224823344  0.3882894412364663  1.0000
  H   H17       1.0  0.2932838065307166  0.9963020314964194  0.12118412488783292  1.0000
  H   H18       1.0  0.2071275394385595  0.8821780733220164  0.12117423241689086  1.0000
  H   H19       1.0  0.706714978634075  0.003696697235120968  0.8788151373537545  1.0000
  H   H20       1.0  0.79287116057494  0.11782157890221602  0.8788247665541533  1.0000
  H   H21       1.0  0.3803733249581213  0.13894733939009277  0.10995147861845567  1.0000
  H   H22       1.0  0.11964803718887401  0.7507644438243161  0.1099906826511087  1.0000
  H   H23       1.0  0.6196267210495918  0.8610512197964867  0.8900486224944969  1.0000
  H   H24       1.0  0.880347950203138  0.2492352390971108  0.8900082754650142  1.0000
  H   H25       1.0  0.41631912235122576  0.26840390923253216  0.9708005512309368  1.0000
  H   H26       1.0  0.08353407277314057  0.7605182402300842  0.9708038672086868  1.0000
  H   H27       1.0  0.5836821896576653  0.7315950192536106  0.029199847896158714  1.0000
  H   H28       1.0  0.9164646323986292  0.23948195083867319  0.029194590905134994  1.0000
  H   H29       1.0  0.3578202840096835  0.24621382721940693  0.847691785454671  1.0000
  H   H30       1.0  0.14197617139547702  0.9057728045576068  0.8476970028550209  1.0000
  H   H31       1.0  0.6421812189348729  0.7537854096594642  0.15230697678461516  1.0000
  H   H32       1.0  0.8580224434667301  0.09422777115931777  0.1523017328454799  1.0000
  C   C1        1.0  0.03404299351984718  0.2221675444781042  0.7312232144207157  1.0000
  C   C2        1.0  0.46637000047989113  0.046941744928936824  0.7313279839092103  1.0000
  C   C3        1.0  0.9659595096554768  0.7778337544893644  0.2687761377355286  1.0000
  C   C4        1.0  0.5336311360681523  0.9530584916980656  0.2686724295340142  1.0000
  C   C5        1.0  0.8896253340997617  0.2880096577894804  0.6800499794025257  1.0000
  C   C6        1.0  0.6106471351571943  0.03228142774376154  0.6800854257072118  1.0000
  C   C7        1.0  0.11037734453640986  0.7119903330371213  0.3199493584375829  1.0000
  C   C8        1.0  0.389352645080102  0.967718824231845  0.3199149673085485  1.0000
  C   C9        1.0  0.7067830600859041  0.26687930582937713  0.6910272289714285  1.0000
  C   C10       1.0  0.7935148543045046  0.04243650305755153  0.6909803222047016  1.0000
  C   C11       1.0  0.2932180867786799  0.7331220084866814  0.3089721027573588  1.0000
  C   C12       1.0  0.2064863570782905  0.9575617323877023  0.3090214362235171  1.0000
  C   C13       1.0  0.5726039809033523  0.3280866728822786  0.6419975668732575  1.0000
  C   C14       1.0  0.9275201414912999  0.030320533947055157  0.6418271340140292  1.0000
  C   C15       1.0  0.4273956187148258  0.6719143483896557  0.35800338131586773  1.0000
  C   C16       1.0  0.0724812401940795  0.9696758545128075  0.358175150955276  1.0000
  C   C17       1.0  0.6212076019511912  0.4101784845829002  0.5798049656443495  1.0000
  C   C18       1.0  0.8787561864980235  0.010428755048607807  0.5796421763838636  1.0000
  C   C19       1.0  0.3787908271336348  0.589822321585835  0.42019486608673157  1.0000
  C   C20       1.0  0.12124485458219433  0.9895713273820377  0.42035905550326197  1.0000
  C   C21       1.0  0.8046291021960599  0.4319738647500486  0.5687725585040012  1.0000
  C   C22       1.0  0.6952353423866101  0.9997522726702571  0.5686850295199973  1.0000
  C   C23       1.0  0.19536798089455948  0.5680280344563399  0.43122617108517136  1.0000
  C   C24       1.0  0.30476011346458165  0.0002507958292241898  0.43131451240175517  1.0000
  C   C25       1.0  0.9372131013877975  0.3714990433513065  0.6189879925770184  1.0000
  C   C26       1.0  0.5628386479605894  0.009941332073367488  0.6190135940042935  1.0000
  C   C27       1.0  0.06278822609589697  0.6285015016684241  0.3810107839784038  1.0000
  C   C28       1.0  0.4371596108216523  0.9900613210807591  0.38098571118570096  1.0000
  C   C29       1.0  0.2764680458694641  0.04612016605413074  0.9900985438974812  1.0000
  C   C30       1.0  0.22355903051444412  0.963482604892057  0.9900882438061483  1.0000
  C   C31       1.0  0.7235359839191846  0.9538792705793496  0.009901355227306253  1.0000
  C   C32       1.0  0.7764411058028244  0.0365155696463546  0.009911579720124995  1.0000
  C   C33       1.0  0.304748653777807  0.052817776108191994  0.06133984147047758  1.0000
  C   C34       1.0  0.19538039903745405  0.8855123514024326  0.061337585917364296  1.0000
  C   C35       1.0  0.695252838850202  0.9471803830816226  0.938660002483253  1.0000
  C   C36       1.0  0.8046182106664904  0.11448768546996037  0.9386616906403588  1.0000
  C   C37       1.0  0.355846611871236  0.13318653374483347  0.05483761259818459  1.0000
  C   C38       1.0  0.14415883772829124  0.8116396638163434  0.05486917105302058  1.0000
  C   C39       1.0  0.6441547052959252  0.866812933585841  0.9451622456716817  1.0000
  C   C40       1.0  0.8558386014422935  0.18836015795285027  0.9451289890466581  1.0000
  C   C41       1.0  0.3759763933425688  0.20478081050991656  0.9781210160424718  1.0000
  C   C42       1.0  0.12396134365056345  0.8167889928211662  0.9781447587821716  1.0000
  C   C43       1.0  0.6240248283567668  0.7952185026244007  0.02187966067129555  1.0000
  C   C44       1.0  0.8760374466725055  0.18321027475489868  0.021853962602193612  1.0000
  C   C45       1.0  0.34505325019321736  0.19324769331785066  0.9097248350764388  1.0000
  C   C46       1.0  0.15478640701168433  0.8966874520414475  0.909723311013458  1.0000
  C   C47       1.0  0.6549481469669658  0.8067503116756  0.09027582732119999  1.0000
  C   C48       1.0  0.8452136493125622  0.1033121848341878  0.09027570838505027  1.0000
  N   N1        1.0  0.2974286982516858  0.1158906067349434  0.9160688592357502  1.0000
  N   N2        1.0  0.20240428458254914  0.9677350056957222  0.9160506525414505  1.0000
  N   N3        1.0  0.7025740655357783  0.884108460598966  0.08393074187489441  1.0000
  N   N4        1.0  0.7975957768999676  0.0322651700244379  0.08394782599982879  1.0000
  N   N5        1.0  0.47588267042587523  0.4666327265328859  0.5319147360011057  1.0000
  N   N6        1.0  0.02409443292581407  0.0018018967516442287  0.5317511450902187  1.0000
  N   N7        1.0  0.5241156631911252  0.5333679254394849  0.46808591417387635  1.0000
  N   N8        1.0  0.9759027843595051  0.9981943835576527  0.46825189704059494  1.0000
  O   O1        1.0  0.19692851281608634  0.24309486494559002  0.7282431865487807  1.0000
  O   O2        1.0  0.303452989913005  0.02889457572130281  0.7284513726724525  1.0000
  O   O3        1.0  0.8030724585876428  0.7569077575113355  0.27175615949613524  1.0000
  O   O4        1.0  0.6965493274849308  0.9711069536979692  0.27154907551436486  1.0000
  O   O5        1.0  0.9899651181893958  0.14193865362943817  0.7788241107135434  1.0000
  O   O6        1.0  0.5103769200821873  0.07956624275485077  0.7789303813088607  1.0000
  O   O7        1.0  0.010038746454945622  0.8580631688339506  0.22117472101293595  1.0000
  O   O8        1.0  0.4896269239290732  0.9204334243304259  0.221070613846507  1.0000
