data_image0
_chemical_formula_structural       Cu2H12C8N24O8
_chemical_formula_sum              "Cu2 H12 C8 N24 O8"
_cell_length_a       6.976652578306736
_cell_length_b       8.78971556033372
_cell_length_c       9.49089515782852
_cell_angle_alpha    101.73529664112296
_cell_angle_beta     90.00072720699502
_cell_angle_gamma    90.00064477309668

_space_group_name_H-M_alt    "P 1"
_space_group_IT_number       1

loop_
  _space_group_symop_operation_xyz
  'x, y, z'

loop_
  _atom_site_type_symbol
  _atom_site_label
  _atom_site_symmetry_multiplicity
  _atom_site_fract_x
  _atom_site_fract_y
  _atom_site_fract_z
  _atom_site_occupancy
  Cu  Cu1       1.0  1.5925917792999993e-06  2.750974488018019e-07  0.9999990768232507  1.0000
  Cu  Cu2       1.0  0.499996178548308  1.5797684796009256e-06  0.49999961642017604  1.0000
  H   H1        1.0  0.0995697649795275  0.3327669072129567  0.7830752547191648  1.0000
  H   H2        1.0  0.5995707878473125  0.6672428325464992  0.7169375482584711  1.0000
  H   H3        1.0  0.9004285913684953  0.6672296424461022  0.216924577917858  1.0000
  H   H4        1.0  0.4004347352808963  0.3327548621646486  0.283063568905895  1.0000
  H   H5        1.0  0.2011259693129546  0.3721129287294929  0.6196232290027125  1.0000
  H   H6        1.0  0.7011291839118458  0.6278978309217821  0.8803970501077885  1.0000
  H   H7        1.0  0.7988723870332352  0.627882442223715  0.3803774198630662  1.0000
  H   H8        1.0  0.2988734725420983  0.37210217064527024  0.11960558565451149  1.0000
  H   H9        1.0  0.047280513123773515  0.5124451932016568  0.7280432132490872  1.0000
  H   H10       1.0  0.5472769331808608  0.487566242551125  0.7719726045743796  1.0000
  H   H11       1.0  0.9527207099673946  0.4875536464982914  0.27195918837634986  1.0000
  H   H12       1.0  0.45272428992093694  0.5124337590080187  0.22803003117964238  1.0000
  C   C1        1.0  0.07678053613869201  0.388532690196179  0.6915422838048784  1.0000
  C   C2        1.0  0.5767837182838988  0.6114790880567114  0.8084728247166522  1.0000
  C   C3        1.0  0.9232163868853861  0.6114649876208348  0.3084598836671261  1.0000
  C   C4        1.0  0.42321893815245204  0.3885209472036735  0.19152771033096624  1.0000
  C   C5        1.0  0.8364376290606829  0.17419884864756338  0.6026063372800435  1.0000
  C   C6        1.0  0.3364401440519132  0.8258031668203287  0.8973997442084423  1.0000
  C   C7        1.0  0.1635564272715442  0.8258011697186943  0.3973952480752131  1.0000
  C   C8        1.0  0.6635625123668518  0.17419690213339584  0.10259869012449487  1.0000
  N   N1        1.0  0.6599890552504347  0.3068383052673908  0.47982760224137166  1.0000
  N   N2        1.0  0.15999465748846833  0.6931654017286348  0.020175868218835453  1.0000
  N   N3        1.0  0.34001216784621846  0.6931640705501464  0.5201723506977769  1.0000
  N   N4        1.0  0.8400051321695515  0.3068324108775399  0.9798178964109993  1.0000
  N   N5        1.0  0.9205006998447091  0.07223213622677352  0.6722530202258452  1.0000
  N   N6        1.0  0.4205035475727997  0.9277742758474331  0.8277557857654968  1.0000
  N   N7        1.0  0.07949335651755972  0.9277701890112124  0.3277500837439076  1.0000
  N   N8        1.0  0.5795005422175379  0.0722269381267253  0.17224393306164384  1.0000
  N   N9        1.0  0.8518264241860295  0.9307510136389111  0.6540133008756894  1.0000
  N   N10       1.0  0.3518268530376574  0.0692582439114986  0.8459880611205789  1.0000
  N   N11       1.0  0.1481676321711021  0.06925368585746841  0.3459871202792044  1.0000
  N   N12       1.0  0.6481758034023528  0.930744148760617  0.15401084146951394  1.0000
  N   N13       1.0  0.7977740512764484  0.3982026860592213  0.5356875091306178  1.0000
  N   N14       1.0  0.2977758065449052  0.6018034995394076  0.964322212994034  1.0000
  N   N15       1.0  0.20222717180592303  0.6017961704873898  0.46431384213747146  1.0000
  N   N16       1.0  0.7022239831607565  0.39819658624515597  0.03567517096499268  1.0000
  N   N17       1.0  0.9090724841337874  0.3192900632225815  0.6131570578338454  1.0000
  N   N18       1.0  0.4090755298612478  0.680716172170058  0.8868547671220312  1.0000
  N   N19       1.0  0.09092587223548071  0.6807088101548755  0.3868432430603405  1.0000
  N   N20       1.0  0.5909271265857327  0.31928502494952943  0.1131460020541724  1.0000
  N   N21       1.0  0.6795837042328686  0.16736692288380084  0.5184840563652101  1.0000
  N   N22       1.0  0.17958918310308292  0.8326380592508967  0.9815179973723002  1.0000
  N   N23       1.0  0.3204117854057031  0.8326320010178421  0.4815130934403766  1.0000
  N   N24       1.0  0.8204120399547319  0.1673620265415821  0.018479386595004088  1.0000
  O   O1        1.0  0.9294695737081184  0.8392111900072337  0.7219570519052565  1.0000
  O   O2        1.0  0.42946590902970183  0.16078728909353399  0.778043916683316  1.0000
  O   O3        1.0  0.07052448259588572  0.16078770019316116  0.27804219860672663  1.0000
  O   O4        1.0  0.5705367473590146  0.8392104729884621  0.22195299903511762  1.0000
  O   O5        1.0  0.7113782739045078  0.8763746327387735  0.5674389511615486  1.0000
  O   O6        1.0  0.21137094821659022  0.1236307171148496  0.9325624196855812  1.0000
  O   O7        1.0  0.2886186491569305  0.12363006677342267  0.43256147000990797  1.0000
  O   O8        1.0  0.7886302748694407  0.8763704968434922  0.06743729912498952  1.0000
