data_image0
_chemical_formula_structural       Cu2H20C26N4O8
_chemical_formula_sum              "Cu2 H20 C26 N4 O8"
_cell_length_a       6.687933871000977
_cell_length_b       6.307827644392653
_cell_length_c       14.174036288578968
_cell_angle_alpha    90.00360590625812
_cell_angle_beta     98.21522797846241
_cell_angle_gamma    90.00023822855927

_space_group_name_H-M_alt    "P 1"
_space_group_IT_number       1

loop_
  _space_group_symop_operation_xyz
  'x, y, z'

loop_
  _atom_site_type_symbol
  _atom_site_label
  _atom_site_symmetry_multiplicity
  _atom_site_fract_x
  _atom_site_fract_y
  _atom_site_fract_z
  _atom_site_occupancy
  Cu  Cu1       1.0  0.2718699688938031  0.6938901642708829  0.5844303514475158  1.0000
  Cu  Cu2       1.0  0.7281572161876538  0.1938966234632602  0.415554381500236  1.0000
  H   H1        1.0  0.7794280798358884  0.10774236146199458  0.582981873255477  1.0000
  H   H2        1.0  0.22061033236730754  0.6077743420977838  0.4170053432010405  1.0000
  H   H3        1.0  0.7931571683141598  0.565049914497024  0.7603130142599924  1.0000
  H   H4        1.0  0.20689474813553935  0.0650491118802208  0.2397077167959267  1.0000
  H   H5        1.0  0.8306404265510137  0.4962903312508756  0.9345251804333615  1.0000
  H   H6        1.0  0.1693342621731588  0.9963100670857087  0.0654867145323976  1.0000
  H   H7        1.0  0.8747480189611563  0.1290811538955055  0.9963526620722546  1.0000
  H   H8        1.0  0.1251970340765212  0.6291015852998072  0.003636848845118799  1.0000
  H   H9        1.0  0.8879255958818318  0.8287263331073405  0.8831688712433206  1.0000
  H   H10       1.0  0.11200609489051058  0.328739666630021  0.11679235987213593  1.0000
  H   H11       1.0  0.8399623530079124  0.8970831669649256  0.7084032196781251  1.0000
  H   H12       1.0  0.1599942998851702  0.3970875834810598  0.2915686612335762  1.0000
  H   H13       1.0  0.4060104251430089  0.5731815576275849  0.7871366277387892  1.0000
  H   H14       1.0  0.5940338450768009  0.0731576069082536  0.21286690660200955  1.0000
  H   H15       1.0  0.4299170727646953  0.0758825066833992  0.9779553309002297  1.0000
  H   H16       1.0  0.5700262226231344  0.5758404453839174  0.022062164393368295  1.0000
  H   H17       1.0  0.3191579579094892  0.3225281885949584  0.8417461539321849  1.0000
  H   H18       1.0  0.6808000684091979  0.8225072290902276  0.15828504928624204  1.0000
  H   H19       1.0  0.2679202842058075  0.1690532689833119  0.6752959345320022  1.0000
  H   H20       1.0  0.7320783220169459  0.6690412944730962  0.3247229086088055  1.0000
  C   C1        1.0  0.5842938127147191  0.3750881690658048  0.5728964030639787  1.0000
  C   C2        1.0  0.4157277407673944  0.875107063065009  0.42709529875271807  1.0000
  C   C3        1.0  0.7823020654867604  0.2655375323748714  0.6168184728379629  1.0000
  C   C4        1.0  0.21772747039911872  0.7655521571080115  0.38317694323693274  1.0000
  C   C5        1.0  0.9483776599764508  0.3898331888308491  0.5750312540956557  1.0000
  C   C6        1.0  0.051666679074713784  0.8898317768899415  0.42495953411116005  1.0000
  C   C7        1.0  0.8125500056573853  0.23531265349528493  0.7228684547265943  1.0000
  C   C8        1.0  0.18747468853631227  0.7353124795629142  0.2771264807600105  1.0000
  C   C9        1.0  0.8137699406400428  0.40400907576062645  0.7872560159909412  1.0000
  C   C10       1.0  0.1862505238301608  0.9040222333789033  0.2127477361826635  1.0000
  C   C11       1.0  0.8366146930904961  0.3651689058684582  0.8849930747932007  1.0000
  C   C12       1.0  0.16337366137285866  0.8651779722626641  0.1150095837927907  1.0000
  C   C13       1.0  0.862615601161792  0.15854242521639608  0.9200231384655595  1.0000
  C   C14       1.0  0.13734631936938507  0.6585670982741264  0.07996267550144859  1.0000
  C   C15       1.0  0.8662628507151878  0.9902443679141514  0.8564425203660804  1.0000
  C   C16       1.0  0.1336963044714423  0.4902599459701875  0.1435336179925812  1.0000
  C   C17       1.0  0.8394151096509219  0.028410372052284992  0.7585368590546153  1.0000
  C   C18       1.0  0.1605605240381536  0.5284257109457399  0.2414432777556712  1.0000
  C   C19       1.0  0.38483215763038453  0.740939068701195  0.8008254000206492  1.0000
  C   C20       1.0  0.6151821907945559  0.24091338549136054  0.19918525035157592  1.0000
  C   C21       1.0  0.3972984779249202  0.016658879138375896  0.9048542422200683  1.0000
  C   C22       1.0  0.6026654428796404  0.5166191758517299  0.09517206253077148  1.0000
  C   C23       1.0  0.3406157047861171  0.15481515807651647  0.8293702217662471  1.0000
  C   C24       1.0  0.6593738582169806  0.6547957492272187  0.1706638492149892  1.0000
  C   C25       1.0  0.3098562560867392  0.07006326302747819  0.7379340591850507  1.0000
  C   C26       1.0  0.6901429193663017  0.5700566460308494  0.2620911417778302  1.0000
  N   N1        1.0  0.331742836969255  0.8613759612287166  0.7232307202547403  1.0000
  N   N2        1.0  0.6682878369268009  0.36137083678153187  0.2767802294538626  1.0000
  N   N3        1.0  0.41866098778250915  0.807099710876237  0.8911383550265554  1.0000
  N   N4        1.0  0.5813329041513811  0.3070518559883553  0.108872868217361  1.0000
  O   O1        1.0  0.4875456485889486  0.4804844427763796  0.6275029050977777  1.0000
  O   O2        1.0  0.512467997468427  0.9805091939298122  0.3724962560930791  1.0000
  O   O3        1.0  0.5336135824522684  0.35726744161029694  0.48310433192501273  1.0000
  O   O4        1.0  0.46642133626485804  0.8573022131945861  0.5168834942142126  1.0000
  O   O5        1.0  0.06900893286234579  0.502941021089775  0.6310918010113369  1.0000
  O   O6        1.0  0.9310254404973861  0.0029424975756526996  0.3688998941867255  1.0000
  O   O7        1.0  0.9509840207166816  0.3735726415406546  0.4856070150518762  1.0000
  O   O8        1.0  0.0490404864838325  0.8735977771206721  0.5143798969211488  1.0000
