data_image0
_chemical_formula_structural       Mn2H16C14N8O6
_chemical_formula_sum              "Mn2 H16 C14 N8 O6"
_cell_length_a       7.292839313661184
_cell_length_b       7.398468731399598
_cell_length_c       9.432956113787277
_cell_angle_alpha    82.66036281001689
_cell_angle_beta     73.0597614863647
_cell_angle_gamma    62.59840359418804

_space_group_name_H-M_alt    "P 1"
_space_group_IT_number       1

loop_
  _space_group_symop_operation_xyz
  'x, y, z'

loop_
  _atom_site_type_symbol
  _atom_site_label
  _atom_site_symmetry_multiplicity
  _atom_site_fract_x
  _atom_site_fract_y
  _atom_site_fract_z
  _atom_site_occupancy
  Mn  Mn1       1.0  0.5000035944478327  8.96925574520252e-06  0.9999956167850068  1.0000
  Mn  Mn2       1.0  0.9999948429503999  0.5000029175408829  1.2737439193822033e-07  1.0000
  H   H1        1.0  0.13068684345969217  0.029960894130439907  0.17160289718654548  1.0000
  H   H2        1.0  0.8693142700461464  0.9700392903617184  0.8283994755218556  1.0000
  H   H3        1.0  0.30340202615552414  0.7860365703363856  0.19244881023269758  1.0000
  H   H4        1.0  0.6965962124428771  0.21396361285219712  0.8075520964663593  1.0000
  H   H5        1.0  0.4500406732184886  0.77174358335094  0.6438161292786331  1.0000
  H   H6        1.0  0.5499611622859889  0.2282550786980906  0.3561862277870559  1.0000
  H   H7        1.0  0.4762934770395475  0.6822511574260374  0.3935039580892194  1.0000
  H   H8        1.0  0.5237047843144821  0.31774596435069935  0.6064983024455869  1.0000
  H   H9        1.0  0.9878297418796719  0.3839530546712454  0.589449714713183  1.0000
  H   H10       1.0  0.012176334594059346  0.6160487183663648  0.4105471331532298  1.0000
  H   H11       1.0  0.013742541633732194  0.29581166961738603  0.33699911455815357  1.0000
  H   H12       1.0  0.9862614127928706  0.704185510324777  0.6629986645548769  1.0000
  H   H13       1.0  0.3024388709870819  0.6097008515774933  0.8309757054663219  1.0000
  H   H14       1.0  0.6975629645173952  0.39029781047153733  0.16902665159936697  1.0000
  H   H15       1.0  0.176410893992248  0.8220613343791783  0.9014906452694118  1.0000
  H   H16       1.0  0.8235844859107929  0.1779388316320336  0.09851091354614984  1.0000
  C   C1        1.0  0.20684435942116855  0.14634668254814193  0.7810218079019575  1.0000
  C   C2        1.0  0.79315456220813  0.853655055482932  0.21897561119278905  1.0000
  C   C3        1.0  0.21562027651555843  0.08444869719524918  0.6348801257769451  1.0000
  C   C4        1.0  0.7843843787165384  0.9155530593167786  0.36511810721064814  1.0000
  C   C5        1.0  0.3502619575425283  0.8860238785046308  0.5787152763945328  1.0000
  C   C6        1.0  0.6497398617498503  0.11397479941819465  0.4212849625453075  1.0000
  C   C7        1.0  0.36787993257946977  0.8359699248525275  0.43675958323223785  1.0000
  C   C8        1.0  0.6321190280175626  0.16402873589292716  0.5632413078241071  1.0000
  C   C9        1.0  0.09566488278630907  0.23099045150398478  0.5455238899457128  1.0000
  C   C10       1.0  0.9043412002309592  0.7690082759955816  0.45447219363060753  1.0000
  C   C11       1.0  0.11077348799349099  0.18207083994907694  0.4042637595133555  1.0000
  C   C12       1.0  0.8892326031298271  0.8179278796135919  0.5957333831258821  1.0000
  C   C13       1.0  0.24874493474868584  0.9839967145174104  0.3479982565952751  1.0000
  C   C14       1.0  0.7512597351330045  0.016001988519683204  0.6520002711651357  1.0000
  N   N1        1.0  0.30271100221428776  0.31658066115760874  0.06514480805655863  1.0000
  N   N2        1.0  0.6972865209290262  0.6834179989360508  0.9348553499951178  1.0000
  N   N3        1.0  0.3496386870982774  0.4066271838180101  0.1343902415890454  1.0000
  N   N4        1.0  0.6503559789121807  0.5933744966994327  0.8656123919321599  1.0000
  N   N5        1.0  0.3928954447112999  0.49687311730888  0.2020078484929542  1.0000
  N   N6        1.0  0.607095684553947  0.5031209080494891  0.7979963371059283  1.0000
  N   N7        1.0  0.2687000762275034  0.9365254238109914  0.20173688618127977  1.0000
  N   N8        1.0  0.7313010291722933  0.06347476861806461  0.7982644274642039  1.0000
  O   O1        1.0  0.27708693302374593  0.009229820679564703  0.8775876161343632  1.0000
  O   O2        1.0  0.7229098388217491  0.9907764688071128  0.12241196801437587  1.0000
  O   O3        1.0  0.13078340768394267  0.3366856592051732  0.8048472858688597  1.0000
  O   O4        1.0  0.8692155301574477  0.66331606295212  0.19515225135173597  1.0000
  O   O5        1.0  0.155018605606827  0.7044245438954563  0.8831180974603609  1.0000
  O   O6        1.0  0.844979616779483  0.29557565516691403  0.11688069111284703  1.0000
