data_image0
_chemical_formula_structural       Hg4H44C52N8Cl8
_chemical_formula_sum              "Hg4 H44 C52 N8 Cl8"
_cell_length_a       9.610213253
_cell_length_b       10.757850056039004
_cell_length_c       13.9104
_cell_angle_alpha    110.42106688817388
_cell_angle_beta     90.0
_cell_angle_gamma    90.0

_space_group_name_H-M_alt    "P 1"
_space_group_IT_number       1

loop_
  _space_group_symop_operation_xyz
  'x, y, z'

loop_
  _atom_site_type_symbol
  _atom_site_label
  _atom_site_symmetry_multiplicity
  _atom_site_fract_x
  _atom_site_fract_y
  _atom_site_fract_z
  _atom_site_occupancy
  Hg  Hg1       1.0  0.5805282206675741  0.6837457196791235  0.04541085426497918  1.0000
  Hg  Hg2       1.0  0.08052682907514  0.3162553080184551  0.4545896387157028  1.0000
  Hg  Hg3       1.0  0.41947560307691845  0.3162553080184551  0.9545889198291133  1.0000
  Hg  Hg4       1.0  0.919472832430806  0.6837447277887847  0.5454105866125261  1.0000
  H   H1        1.0  0.4764691354346979  0.5778822555402527  0.22342957709484068  1.0000
  H   H2        1.0  0.9764694864674938  0.4221177802669871  0.2765713671199777  1.0000
  H   H3        1.0  0.5235274043923468  0.42211381270562504  0.7765702965101794  1.0000
  H   H4        1.0  0.0235322561577291  0.5778832474305915  0.7234298447472937  1.0000
  H   H5        1.0  0.37237883341276057  0.6607289043305045  0.4012240762445813  1.0000
  H   H6        1.0  0.8723771033262864  0.3392721233670741  0.09877713562268296  1.0000
  H   H7        1.0  0.6276208280931925  0.3392701395863966  0.5987773192043732  1.0000
  H   H8        1.0  0.1276225581796666  0.6607289043305045  0.9012247951311706  1.0000
  H   H9        1.0  0.3437988224630288  0.905120765297788  0.48962107263460547  1.0000
  H   H10       1.0  0.8437991734958247  0.0948812542901365  0.0103804068851119  1.0000
  H   H11       1.0  0.6562018796025556  0.0948782786191131  0.5103803228143491  1.0000
  H   H12       1.0  0.1562004880101284  0.905120765297788  0.9896210726346054  1.0000
  H   H13       1.0  0.40138235213415646  0.0574443371730169  0.39443672805255386  1.0000
  H   H14       1.0  0.9013858248458605  0.94255569863423  0.10556349727567482  1.0000
  H   H15       1.0  0.5986131471332499  0.9425537148535454  0.6055629619707757  1.0000
  H   H16       1.0  0.0986179988986322  0.0574443371730169  0.8944360091659647  1.0000
  H   H17       1.0  0.6964226311950696  0.1235865607408542  0.3352300184963041  1.0000
  H   H18       1.0  0.196422280162281  0.8764134750663857  0.16477092571851407  1.0000
  H   H19       1.0  0.3035770303108762  0.8764144669567244  0.6647711933709672  1.0000
  H   H20       1.0  0.8035773813436721  0.1235865607408542  0.8352300184963042  1.0000
  H   H21       1.0  0.7064952484670927  0.3683493886954423  0.4233108815678577  1.0000
  H   H22       1.0  0.2064969785535737  0.6316516390021434  0.076688892526235  1.0000
  H   H23       1.0  0.2935075347177616  0.6316526308924821  0.5766898790652774  1.0000
  H   H24       1.0  0.793504764071649  0.3683493886954423  0.9233108815678576  1.0000
  H   H25       1.0  0.5221830013432296  0.5105596824673526  0.3957350795226375  1.0000
  H   H26       1.0  0.0221826503104339  0.48944134523023314  0.10426397568486578  1.0000
  H   H27       1.0  0.4778166601627234  0.4894403533398872  0.6042637080324197  1.0000
  H   H28       1.0  0.9778190923147889  0.5105596824673526  0.8957350795226374  1.0000
  H   H29       1.0  0.3232852298080005  0.4091379032727218  0.27538799529554575  1.0000
  H   H30       1.0  0.8232855808407964  0.590862132534518  0.22461079225950437  1.0000
  H   H31       1.0  0.6767154722575839  0.590862132534518  0.7246107922595044  1.0000
  H   H32       1.0  0.1767151212247953  0.4091379032727218  0.7753872764089564  1.0000
  H   H33       1.0  0.3161407473503886  0.1679815885957794  0.1845191019008823  1.0000
  H   H34       1.0  0.8161421389428156  0.8320184472114677  0.3154811234273538  1.0000
  H   H35       1.0  0.6838589141555644  0.8320184472114677  0.8154811234273537  1.0000
  H   H36       1.0  0.1838585631227687  0.1679815885957794  0.6845191019008823  1.0000
  H   H37       1.0  0.6508096995711911  0.9524517885602394  0.9921372761658345  1.0000
  H   H38       1.0  0.1508083079787639  0.0475502310276781  0.5078634844672933  1.0000
  H   H39       1.0  0.349189961934762  0.0475492391373393  0.007863935701436694  1.0000
  H   H40       1.0  0.8491892724079193  0.9524498047795618  0.4921360219743462  1.0000
  H   H41       1.0  0.5864635728286913  0.1067194655026213  0.08080439373953399  1.0000
  H   H42       1.0  0.0864642623555341  0.8932815621949574  0.4191960992411481  1.0000
  H   H43       1.0  0.4135371292369001  0.8932805703046186  0.9191965504752845  1.0000
  H   H44       1.0  0.9135364397100574  0.1067184736122826  0.5808041260870809  1.0000
  C   C1        1.0  0.45658508135917236  0.6830494126601749  0.2642734568391489  1.0000
  C   C2        1.0  0.9565854323919681  0.3169526069277495  0.23572730379397905  1.0000
  C   C3        1.0  0.5434104179082341  0.3169496312567261  0.7357265008366269  1.0000
  C   C4        1.0  0.043415269673623406  0.6830484207698362  0.7642739080732921  1.0000
  C   C5        1.0  0.4013292835927444  0.7297585206792121  0.3632847707407265  1.0000
  C   C6        1.0  0.9013285940659017  0.2702425070183736  0.1367171600131272  1.0000
  C   C7        1.0  0.5986693373535701  0.270240523237689  0.6367166247082281  1.0000
  C   C8        1.0  0.09867106744004421  0.7297585206792121  0.8632847707407265  1.0000
  C   C9        1.0  0.3837719208622872  0.8655225191289659  0.41155676825575677  1.0000
  C   C10       1.0  0.8837733124547144  0.1344785085686198  0.0884430058383359  1.0000
  C   C11       1.0  0.616225659524396  0.1344755328975964  0.5884436406541624  1.0000
  C   C12       1.0  0.1162273896108701  0.8655225191289659  0.911557487142346  1.0000
  C   C13       1.0  0.4178138293389679  0.9507239155872896  0.3591572229756892  1.0000
  C   C14       1.0  0.9178162614910264  0.0492771121102891  0.1408432700049858  1.0000
  C   C15       1.0  0.5821827104880769  0.0492761202199503  0.6408422834659504  1.0000
  C   C16       1.0  0.0821854811341893  0.9507239155872896  0.8591572229756891  1.0000
  C   C17       1.0  0.47099058895358337  0.8969198159634858  0.2594628438263342  1.0000
  C   C18       1.0  0.9709930211056489  0.10308121173409292  0.2405376491543478  1.0000
  C   C19       1.0  0.529004910313823  0.1030782360630695  0.7405361273104063  1.0000
  C   C20       1.0  0.029008721519574  0.8969198159634858  0.7594628438263342  1.0000
  C   C21       1.0  0.5023457724512994  0.9837052612954054  0.1989762467550591  1.0000
  C   C22       1.0  0.0023475025377806  0.0162947745118345  0.3010232596865805  1.0000
  C   C23       1.0  0.4976528484950151  0.0162947745118345  0.8010239785731699  1.0000
  C   C24       1.0  0.9976552806470806  0.9837052612954054  0.6989755278684768  1.0000
  C   C25       1.0  0.5056100080279862  0.129532943331462  0.2543157601045536  1.0000
  C   C26       1.0  0.0056127786740987  0.8704651086951004  0.24568321103218685  1.0000
  C   C27       1.0  0.4943875723586899  0.8704661005854392  0.745685635344401  1.0000
  C   C28       1.0  0.9943900045107555  0.129532943331462  0.7543157601045534  1.0000
  C   C29       1.0  0.6148864592734569  0.18663607022737952  0.3222859045572406  1.0000
  C   C30       1.0  0.11488714880029963  0.8133679331412225  0.1777153913807935  1.0000
  C   C31       1.0  0.38511424279213463  0.8133659493605379  0.6777155749624767  1.0000
  C   C32       1.0  0.885113553265292  0.18663607022737952  0.82228662344383  1.0000
  C   C33       1.0  0.6206199428652753  0.3236538180673847  0.3715015172763572  1.0000
  C   C34       1.0  0.1206216729517564  0.676342250178493  0.128496199668902  1.0000
  C   C35       1.0  0.37937659696176246  0.6763432420688389  0.6284957484347586  1.0000
  C   C36       1.0  0.8793811102330977  0.3236538180673847  0.871501517276357  1.0000
  C   C37       1.0  0.5156201917218795  0.4039275033146836  0.3554225219224064  1.0000
  C   C38       1.0  0.015618800129452402  0.5960735243829021  0.1445772521716862  1.0000
  C   C39       1.0  0.48438259146298185  0.5960715406022175  0.6445774357533692  1.0000
  C   C40       1.0  0.9843808613765007  0.40392849520502244  0.8554227895748596  1.0000
  C   C41       1.0  0.4060471809802806  0.3476496291819586  0.28866209559394207  1.0000
  C   C42       1.0  0.9060496131323462  0.6523504066252812  0.21133669196110816  1.0000
  C   C43       1.0  0.5939524805256654  0.6523494147349425  0.7113364243086621  1.0000
  C   C44       1.0  0.0939521294928767  0.3476496291819586  0.7886620955939421  1.0000
  C   C45       1.0  0.40133864862946217  0.2108133972742507  0.2375853816076372  1.0000
  C   C46       1.0  0.9013400402218963  0.7891896142040125  0.2624149277913546  1.0000
  C   C47       1.0  0.5986599723168524  0.7891866385329891  0.7624148437205918  1.0000
  C   C48       1.0  0.0986617024033265  0.2108133972742507  0.7375846627210477  1.0000
  C   C49       1.0  0.5598554223883029  0.002732657887762  0.037182056987497  1.0000
  C   C50       1.0  0.05985715247478401  0.9972673779194849  0.4628174494541425  1.0000
  C   C51       1.0  0.44014423911764317  0.9972673779194849  0.9628174494541424  1.0000
  C   C52       1.0  0.9401435495908005  0.0027336497781008  0.5371823246399501  1.0000
  N   N1        1.0  0.491459437544286  0.7648258117731572  0.21462609366308524  1.0000
  N   N2        1.0  0.9914618696963444  0.2351742240340897  0.2853748505517331  1.0000
  N   N3        1.0  0.5085350211634889  0.23517224025340513  0.7853735963602446  1.0000
  N   N4        1.0  0.0085398729288713  0.7648258117731572  0.7146260936630852  1.0000
  N   N5        1.0  0.5230810043087004  0.9278340622022441  0.10193750295059088  1.0000
  N   N6        1.0  0.0230796127162662  0.0721659736049958  0.3980627223776381  1.0000
  N   N7        1.0  0.476919697756891  0.072164981714657  0.8980631736117741  1.0000
  N   N8        1.0  0.9769210893493182  0.9278340622022441  0.6019382218371803  1.0000
  Cl  Cl1       1.0  0.6201745833412673  0.4358733155074361  0.07287001279441799  1.0000
  Cl  Cl2       1.0  0.1201731917488402  0.5641277121901425  0.4271297612996675  1.0000
  Cl  Cl3       1.0  0.3798281998435868  0.5641277121901425  0.9271304801862568  1.0000
  Cl  Cl4       1.0  0.8798275103167441  0.43587430739777483  0.5728717182200497  1.0000
  Cl  Cl5       1.0  0.7952820399291483  0.7193704531443643  0.9648186894215485  1.0000
  Cl  Cl6       1.0  0.295282729455991  0.2806305745532143  0.5351818035591336  1.0000
  Cl  Cl7       1.0  0.2047207432557059  0.2806295826628755  0.0351800981335018  1.0000
  Cl  Cl8       1.0  0.7047190131692318  0.7193714450347031  0.4648175193008228  1.0000
