data_image0
_chemical_formula_structural       CuH26C26S2N4O6
_chemical_formula_sum              "Cu1 H26 C26 S2 N4 O6"
_cell_length_a       7.505817270226244
_cell_length_b       9.57859297706069
_cell_length_c       10.103458554493498
_cell_angle_alpha    68.17799056471402
_cell_angle_beta     70.70261605574332
_cell_angle_gamma    86.00955536323343

_space_group_name_H-M_alt    "P 1"
_space_group_IT_number       1

loop_
  _space_group_symop_operation_xyz
  'x, y, z'

loop_
  _atom_site_type_symbol
  _atom_site_label
  _atom_site_symmetry_multiplicity
  _atom_site_fract_x
  _atom_site_fract_y
  _atom_site_fract_z
  _atom_site_occupancy
  Cu  Cu1       1.0  9.315701844998436e-07  2.1559160642996144e-06  0.5000019058371521  1.0000
  H   H1        1.0  0.2861108556702304  0.4975780914301995  0.30362673757350217  1.0000
  H   H2        1.0  0.7138800735931311  0.5024290766664167  0.6963760858540908  1.0000
  H   H3        1.0  0.5827060622930914  0.3591358029678844  0.2468519544586272  1.0000
  H   H4        1.0  0.4172799434020432  0.6408634993237072  0.7531519007068114  1.0000
  H   H5        1.0  0.8529199335650544  0.4932356799225772  0.013091434181518494  1.0000
  H   H6        1.0  0.1470653862222875  0.5067557118233594  0.9869094634840677  1.0000
  H   H7        1.0  0.18909614352612178  0.039235417932744106  0.8740718763430381  1.0000
  H   H8        1.0  0.8109066044871439  0.9607614724702104  0.12592181578872183  1.0000
  H   H9        1.0  0.2116188637833147  0.953002033430572  0.05779671760994616  1.0000
  H   H10       1.0  0.7883742046792077  0.0469971942933114  0.9422004888259892  1.0000
  H   H11       1.0  0.1488266646245009  0.8392542395864667  0.9710543106557026  1.0000
  H   H12       1.0  0.8511778941959064  0.16074714231017853  0.028936351644752334  1.0000
  H   H13       1.0  0.608032269896533  0.8997478131989567  0.5521397663050536  1.0000
  H   H14       1.0  0.3919706606893739  0.10025136690709502  0.4478619747579771  1.0000
  H   H15       1.0  0.6744383403819824  0.610624258288496  0.3000954087898505  1.0000
  H   H16       1.0  0.3255754721451821  0.3893703407124536  0.6999082709151166  1.0000
  H   H17       1.0  0.02671671137980521  0.6434542466449145  0.2354565980570555  1.0000
  H   H18       1.0  0.9732981981843024  0.35655274092044215  0.7645414176381706  1.0000
  H   H19       1.0  0.14943328013856672  0.817712924817272  0.32103204930735524  1.0000
  H   H20       1.0  0.8505751750747804  0.18230087259366465  0.6789641323399564  1.0000
  H   H21       1.0  0.3795884472722619  0.7647549391956759  0.35772791657944225  1.0000
  H   H22       1.0  0.6204166813383407  0.23525326314428702  0.6422750272161935  1.0000
  H   H23       1.0  0.3512666119668852  0.6166647009580757  0.5328380061249902  1.0000
  H   H24       1.0  0.6487374361609569  0.3833310763180153  0.46716170270642  1.0000
  H   H25       1.0  0.1885281142354884  0.7696585305258239  0.6316246127684264  1.0000
  H   H26       1.0  0.8114670750326524  0.23033279738029935  0.368376864424711  1.0000
  C   C1        1.0  0.8643834543477452  0.7608527830817523  0.8001466772762599  1.0000
  C   C2        1.0  0.13561053252988128  0.23914078860854462  0.19984934697075823  1.0000
  C   C3        1.0  0.7027575009927248  0.6910534620199584  0.9431753406379854  1.0000
  C   C4        1.0  0.2972336552598804  0.3089401516639115  0.05682630942548877  1.0000
  C   C5        1.0  0.5259560015881917  0.7568677646110019  0.9805574169081906  1.0000
  C   C6        1.0  0.4740371609196855  0.24313260188117877  0.019442330831054726  1.0000
  C   C7        1.0  0.4072550902001524  0.5496250801232492  0.2016334518455452  1.0000
  C   C8        1.0  0.5927356454544395  0.4503798226032459  0.7983672553001001  1.0000
  C   C9        1.0  0.5715604488961148  0.47312033305758683  0.17222054678856571  1.0000
  C   C10       1.0  0.4284255641564343  0.5268789530120087  0.8277793532773288  1.0000
  C   C11       1.0  0.7207858230666914  0.5471509751908529  0.04165509363794943  1.0000
  C   C12       1.0  0.2792025172757278  0.4528426480426191  0.9583442720429005  1.0000
  C   C13       1.0  0.23222822855466774  0.93890412083487  0.9511234418517276  1.0000
  C   C14       1.0  0.7677720907659591  0.061097309857899504  0.04887219846131787  1.0000
  C   C15       1.0  0.6941398354122869  0.840607811486919  0.4821091810670238  1.0000
  C   C16       1.0  0.3058702538257165  0.1593924287642281  0.5178874637949207  1.0000
  C   C17       1.0  0.6126734781650498  0.7510629031330751  0.43296219482710535  1.0000
  C   C18       1.0  0.3873308649743379  0.2489362620594307  0.5670382164900261  1.0000
  C   C19       1.0  0.7333122215238319  0.6783519526382663  0.3435870930091126  1.0000
  C   C20       1.0  0.2667020924991235  0.3216482712607345  0.6564124840393291  1.0000
  C   C21       1.0  0.9280943152978196  0.6967789306594979  0.30597602529058326  1.0000
  C   C22       1.0  0.07192059242693462  0.30322806096135235  0.6940229791795288  1.0000
  C   C23       1.0  0.9984504808659835  0.7923828674724549  0.35475542933328086  1.0000
  C   C24       1.0  0.0015590882105911074  0.20762753521950833  0.6452406976321825  1.0000
  C   C25       1.0  0.40192988273137326  0.7358792085452495  0.46749262782215323  1.0000
  C   C26       1.0  0.5980747535801996  0.26412334861917947  0.5325094747555781  1.0000
  S   S1        1.0  0.4788319672078742  0.9277632164094526  0.855159230990317  1.0000
  S   S2        1.0  0.5211683447553312  0.0722382305053131  0.14484036442227216  1.0000
  N   N1        1.0  0.3844104456827466  0.6873227995570874  0.10989816349783144  1.0000
  N   N2        1.0  0.6155859309889848  0.31268206379273533  0.8901021685386323  1.0000
  N   N3        1.0  0.8834645189281503  0.8615885725867191  0.4416110901438726  1.0000
  N   N4        1.0  0.11654032386767449  0.1384162215593392  0.558386207291619  1.0000
  O   O1        1.0  0.8432803820116348  0.8961263164817836  0.716187978194391  1.0000
  O   O2        1.0  0.15672415105781565  0.10387512219183043  0.28381652695446746  1.0000
  O   O3        1.0  0.006008945947684223  0.6848663824802728  0.7702917048799662  1.0000
  O   O4        1.0  0.9939759921401716  0.3151204663589483  0.2297019938970521  1.0000
  O   O5        1.0  0.30148306522037416  0.8291668625733594  0.5437408157000262  1.0000
  O   O6        1.0  0.6985205680996102  0.1708244447949667  0.4562694921907563  1.0000
