data_image0
_chemical_formula_structural       Nd2H38C60N10O14
_chemical_formula_sum              "Nd2 H38 C60 N10 O14"
_cell_length_a       10.599531242232041
_cell_length_b       11.181160805045474
_cell_length_c       13.656
_cell_angle_alpha    110.25424684087052
_cell_angle_beta     101.11624737969558
_cell_angle_gamma    107.96073685716965

_space_group_name_H-M_alt    "P 1"
_space_group_IT_number       1

loop_
  _space_group_symop_operation_xyz
  'x, y, z'

loop_
  _atom_site_type_symbol
  _atom_site_label
  _atom_site_symmetry_multiplicity
  _atom_site_fract_x
  _atom_site_fract_y
  _atom_site_fract_z
  _atom_site_occupancy
  Nd  Nd1       1.0  0.0005172640477227001  0.0822064109417795  0.8807651597494228  1.0000
  Nd  Nd2       1.0  0.9994824048238584  0.9177932552176599  0.11923469607140899  1.0000
  H   H1        1.0  0.12579048395837586  0.35194603373446387  0.8608725740919569  1.0000
  H   H2        1.0  0.8742091849132053  0.6480536324249753  0.139127281728875  1.0000
  H   H3        1.0  0.23725240215895843  0.3592752850420595  0.959623490594943  1.0000
  H   H4        1.0  0.7627482281897784  0.6407243811173798  0.040375776830096216  1.0000
  H   H5        1.0  0.6530205816924307  0.9182254315517111  0.7246708592427139  1.0000
  H   H6        1.0  0.3469790871791503  0.0817742346077353  0.2753289965781107  1.0000
  H   H7        1.0  0.47433120708787874  0.7665868652230756  0.5311415763972533  1.0000
  H   H8        1.0  0.5256688907970712  0.2334138448405554  0.4688586395172507  1.0000
  H   H9        1.0  0.5589800560379814  0.682179904251896  0.3735513557630412  1.0000
  H   H10       1.0  0.441019183820238  0.31781871800335887  0.6264481399641184  1.0000
  H   H11       1.0  0.2655828045498865  0.8861692217306327  0.486023605797854  1.0000
  H   H12       1.0  0.7344168643217017  0.11383044442881379  0.5139762500229708  1.0000
  H   H13       1.0  0.42211262512348213  0.03774861936108209  0.6856804431508792  1.0000
  H   H14       1.0  0.577887043748099  0.9622510467983573  0.31431941266995256  1.0000
  H   H15       1.0  0.3092673912741049  0.10058016856392267  0.8303689853969304  1.0000
  H   H16       1.0  0.6907322775974764  0.8994194975955168  0.16963013814505254  1.0000
  H   H17       1.0  0.7656908577191288  0.6875560108227744  0.30562752754894257  1.0000
  H   H18       1.0  0.2343097726296079  0.3124436553366721  0.6943724721549458  1.0000
  H   H19       1.0  0.02117902768673469  0.7577543918840064  0.3470168968594365  1.0000
  H   H20       1.0  0.9788206411848536  0.2422452742754402  0.6529829589613954  1.0000
  H   H21       1.0  0.999910382246149  0.7632067034606462  0.701084134667262  1.0000
  H   H22       1.0  9.024810258040398e-05  0.236792962698793  0.29891659731547554  1.0000
  H   H23       1.0  0.9248109935438508  0.5786496624512123  0.5048114341348294  1.0000
  H   H24       1.0  0.0751910272954035  0.42135104761241843  0.4951898018246368  1.0000
  H   H25       1.0  0.7690482701537249  0.3337883642793429  0.4605878889663728  1.0000
  H   H26       1.0  0.23095182773122497  0.6662123457842881  0.5394123269481312  1.0000
  H   H27       1.0  0.728715457196877  0.2400812608926373  0.9384509329720814  1.0000
  H   H28       1.0  0.2712851731518597  0.7599184052668021  0.06154906673180699  1.0000
  H   H29       1.0  0.5260658413378323  0.3037959530389641  0.970015934269476  1.0000
  H   H30       1.0  0.47393382753374874  0.696203713120475  0.029983189272499457  1.0000
  H   H31       1.0  0.45799266307469816  0.44706971510498755  0.8814252555152038  1.0000
  H   H32       1.0  0.5420074348102517  0.5529309949586363  0.11857496039930031  1.0000
  H   H33       1.0  0.5555688183233869  0.6757651130134332  0.7943443151394192  1.0000
  H   H34       1.0  0.44443085054819426  0.3242345531460059  0.2056555406814127  1.0000
  H   H35       1.0  0.29135833413228335  0.5540406651110316  0.7213283859092385  1.0000
  H   H36       1.0  0.7086413347393048  0.44595900104840774  0.27867146991159325  1.0000
  H   H37       1.0  0.15399727541763042  0.6796369536486608  0.8079462926088185  1.0000
  H   H38       1.0  0.846003783944468  0.3203637564149702  0.1920540671887423  1.0000
  C   C1        1.0  0.6851431016124749  0.8797554743963616  0.6527506077496099  1.0000
  C   C2        1.0  0.3148565672591062  0.12024419176307789  0.347249248071222  1.0000
  C   C3        1.0  0.5864457668937958  0.7955656454963955  0.5453468014165779  1.0000
  C   C4        1.0  0.4135539019777923  0.2044340206630437  0.454653054404254  1.0000
  C   C5        1.0  0.6333948195008503  0.7496526514769002  0.4575645928841041  1.0000
  C   C6        1.0  0.3666048493707379  0.25034701468254633  0.5424352629367277  1.0000
  C   C7        1.0  0.779506634355343  0.7905475980621759  0.4773908807096845  1.0000
  C   C8        1.0  0.2204926055028764  0.209451024193072  0.5226086150174751  1.0000
  C   C9        1.0  0.8714708508402254  0.8761226878203131  0.5886957032146399  1.0000
  C   C10       1.0  0.12852838901799396  0.12387593443494178  0.4113037925125198  1.0000
  C   C11       1.0  0.021524149712043132  0.919577287475839  0.6127355681053501  1.0000
  C   C12       1.0  0.978475519159538  0.0804223786836005  0.38726428771548177  1.0000
  C   C13       1.0  0.07468134741536406  0.8754420622893946  0.524865357695596  1.0000
  C   C14       1.0  0.9253183214562172  0.1245576038700449  0.4751344981252359  1.0000
  C   C15       1.0  0.2221672161306358  0.9189739108548807  0.5519708518247484  1.0000
  C   C16       1.0  0.7778324527409454  0.0810257553045659  0.4480290039960835  1.0000
  C   C17       1.0  0.3078651999627695  0.0008591331471520997  0.6613346781499772  1.0000
  C   C18       1.0  0.6921344689088116  0.9991405330122871  0.33866517767085463  1.0000
  C   C19       1.0  0.2458079745531734  0.0379626197197283  0.7430100837683327  1.0000
  C   C20       1.0  0.7541926557955634  0.9620370464397111  0.2569891836566994  1.0000
  C   C21       1.0  0.8370806384640161  0.7497737443627627  0.3909908840831521  1.0000
  C   C22       1.0  0.16291860139420322  0.2502248778924852  0.6090086116440077  1.0000
  C   C23       1.0  0.9790335839799128  0.790173880362687  0.4136917816707993  1.0000
  C   C24       1.0  0.0209656558783067  0.2098247418925681  0.5863077140563604  1.0000
  C   C25       1.0  0.9250109033605156  0.7328666721254891  0.8684264605118771  1.0000
  C   C26       1.0  0.0749883364977038  0.2671319501297589  0.131574499772988  1.0000
  C   C27       1.0  0.8779265003922988  0.6214163292465072  0.7529666091618736  1.0000
  C   C28       1.0  0.1220741299564381  0.3785833369129321  0.2470348550997201  1.0000
  C   C29       1.0  0.9280221926165666  0.6560948263891504  0.6749003798774423  1.0000
  C   C30       1.0  0.07198036068647441  0.3439048397702891  0.3251006398714082  1.0000
  C   C31       1.0  0.8885761672571065  0.5539989089434911  0.5677422668109742  1.0000
  C   C32       1.0  0.1114235016144747  0.4460007572159483  0.4322583212887068  1.0000
  C   C33       1.0  0.8014759290743214  0.4180627494185813  0.5434112265151043  1.0000
  C   C34       1.0  0.1985222458563243  0.5819379606450497  0.4565894339121357  1.0000
  C   C35       1.0  0.7895841774117045  0.4814120750989303  0.7201341800960535  1.0000
  C   C36       1.0  0.2104154914598766  0.518587591060509  0.2798656757247784  1.0000
  C   C37       1.0  0.724407541559948  0.4348810897998304  0.7957591727353447  1.0000
  C   C38       1.0  0.27559212731163296  0.5651185763596089  0.20424068308548732  1.0000
  C   C39       1.0  0.7698858775861908  0.3546059016068098  0.8415297156487186  1.0000
  C   C40       1.0  0.2301137912853974  0.6453937645526295  0.15847014017211333  1.0000
  C   C41       1.0  0.6965491126680023  0.3047970571557599  0.9039053082592332  1.0000
  C   C42       1.0  0.3034515176807346  0.6952026090036794  0.09609469144465514  1.0000
  C   C43       1.0  0.5843402383992427  0.33936907607117206  0.9206291737197319  1.0000
  C   C44       1.0  0.4156603919494941  0.6606305900882674  0.07937082598415655  1.0000
  C   C45       1.0  0.5469924178317456  0.4199396891495367  0.8716731429285006  1.0000
  C   C46       1.0  0.453008641530353  0.5800610209140871  0.12832721686906007  1.0000
  C   C47       1.0  0.8937542534869609  0.3208846646050461  0.8264849980840552  1.0000
  C   C48       1.0  0.10624680587513785  0.679116045458585  0.17351536171350548  1.0000
  C   C49       1.0  0.7147314696025546  0.9288314981070724  0.9534256556599984  1.0000
  C   C50       1.0  0.2852681992690265  0.07116816805236678  0.04657420016083341  1.0000
  C   C51       1.0  0.5563871407231744  0.8651971865832593  0.9115059968659409  1.0000
  C   C52       1.0  0.44361295716177546  0.1348035234803717  0.08849421904856308  1.0000
  C   C53       1.0  0.49128930920124947  0.7291065292384429  0.8261106564101084  1.0000
  C   C54       1.0  0.5087107886837003  0.27089418082518785  0.1738895595043957  1.0000
  C   C55       1.0  0.3451272921664668  0.6607683854411519  0.7863598780777964  1.0000
  C   C56       1.0  0.6548723767051144  0.3392312807182876  0.21363997774303561  1.0000
  C   C57       1.0  0.26834655383539285  0.7313331768725531  0.8339625021252316  1.0000
  C   C58       1.0  0.7316535440495572  0.26866753319107056  0.1660369815104161  1.0000
  C   C59       1.0  0.47021820900881295  0.928695790562564  0.9539616372311812  1.0000
  C   C60       1.0  0.529781888876137  0.0713049195010598  0.04603931096217202  1.0000
  N   N1        1.0  0.8233344690216386  0.9175416743082251  0.6743607707817532  1.0000
  N   N2        1.0  0.1766651998499498  0.08245799185121427  0.3256390850390787  1.0000
  N   N3        1.0  0.10729231636577202  0.9989682888211815  0.720123477209313  1.0000
  N   N4        1.0  0.8927073525058162  0.0010313773382578  0.2798756463326697  1.0000
  N   N5        1.0  0.7530671427530181  0.3814342392517815  0.6172777852806847  1.0000
  N   N6        1.0  0.2469329551319319  0.6185664708118495  0.3827231629126686  1.0000
  N   N7        1.0  0.6143850029516926  0.4663788108800517  0.8095340109830574  1.0000
  N   N8        1.0  0.3856146659198885  0.5336208552793877  0.19046511255892545  1.0000
  N   N9        1.0  0.3289447067302831  0.8615727512407146  0.9143209582814081  1.0000
  N   N10       1.0  0.6710563526318154  0.1384279588229163  0.08567940151615257  1.0000
  O   O1        1.0  0.9267130551537477  0.6993583915781797  0.9481149288561852  1.0000
  O   O2        1.0  0.07328704273120216  0.300642318485444  0.05188601933717508  1.0000
  O   O3        1.0  0.9644400987733946  0.8595381819772925  0.8824615524244592  1.0000
  O   O4        1.0  0.03555957009819371  0.140461484182147  0.11753830339637261  1.0000
  O   O5        1.0  0.0023167658064480222  0.411349401582207  0.8289676790078674  1.0000
  O   O6        1.0  0.9976838645422889  0.5886502645772325  0.17103232069601404  1.0000
  O   O7        1.0  0.8781882085198305  0.1971381742894778  0.8122982230553292  1.0000
  O   O8        1.0  0.1218114603517506  0.8028614918699616  0.1877016327655028  1.0000
  O   O9        1.0  0.7765905763624944  0.9987824738756288  0.9080169543034842  1.0000
  O   O10       1.0  0.22340952152245563  0.0012182361880022  0.0919832616110199  1.0000
  O   O11       1.0  0.770568829429962  0.8911569959433762  0.021923716911700718  1.0000
  O   O12       1.0  0.229431268454988  0.1088437141202476  0.9780764990028032  1.0000
  O   O13       1.0  0.18555486826778633  0.3029420394127555  0.8805292030145538  1.0000
  O   O14       1.0  0.814444800603802  0.6970576267466839  0.11946992052742901  1.0000
