data_image0
_chemical_formula_structural       Cd12H24C24Br12N36
_chemical_formula_sum              "Cd12 H24 C24 Br12 N36"
_cell_length_a       8.465223392588186
_cell_length_b       12.64424013400143
_cell_length_c       15.695400403670561
_cell_angle_alpha    89.99999182357075
_cell_angle_beta     102.67252095427695
_cell_angle_gamma    89.99994877076078

_space_group_name_H-M_alt    "P 1"
_space_group_IT_number       1

loop_
  _space_group_symop_operation_xyz
  'x, y, z'

loop_
  _atom_site_type_symbol
  _atom_site_label
  _atom_site_symmetry_multiplicity
  _atom_site_fract_x
  _atom_site_fract_y
  _atom_site_fract_z
  _atom_site_occupancy
  Cd  Cd1       1.0  0.8847300273102476  0.5520810952115838  0.6000509032847674  1.0000
  Cd  Cd2       1.0  0.6152694180646138  0.052081199836933885  0.3999491769262775  1.0000
  Cd  Cd3       1.0  0.11526934415231692  0.44791850239194286  0.3999491367317844  1.0000
  Cd  Cd4       1.0  0.3847287426038406  0.9479183977669693  0.6000507180264307  1.0000
  Cd  Cd5       1.0  0.6292844634173278  0.4669831211981544  0.769381440015117  1.0000
  Cd  Cd6       1.0  0.8707168060840689  0.9669830915867477  0.23061881274599474  1.0000
  Cd  Cd7       1.0  0.37071612226476713  0.5330156855311116  0.23061810834384033  1.0000
  Cd  Cd8       1.0  0.1292837761731747  0.0330157151424615  0.7693813723345073  1.0000
  Cd  Cd9       1.0  0.7704097393332676  0.5094791758704957  0.015722444480580636  1.0000
  Cd  Cd10      1.0  0.7295873458011286  0.009478315364326298  0.9842773576757154  1.0000
  Cd  Cd11      1.0  0.2295896389778562  0.4905220034810184  0.984276322092633  1.0000
  Cd  Cd12      1.0  0.27041081144248114  0.9905212822395199  0.015723173998544792  1.0000
  H   H1        1.0  0.5448881398334465  0.6197934660029175  0.44216564469168423  1.0000
  H   H2        1.0  0.9551099938163433  0.11979333711074247  0.5578349079883297  1.0000
  H   H3        1.0  0.4551100208355763  0.38020534072704487  0.5578342502611306  1.0000
  H   H4        1.0  0.04489058844146851  0.880204678744526  0.44216527709229336  1.0000
  H   H5        1.0  0.7837493788486043  0.5042981352077047  0.2539960319565751  1.0000
  H   H6        1.0  0.7162489279643014  0.004298907426353099  0.7460032800100151  1.0000
  H   H7        1.0  0.21624877839614243  0.4956998806482601  0.7460044997179054  1.0000
  H   H8        1.0  0.283750440073419  0.9957006901771166  0.2539973967280886  1.0000
  H   H9        1.0  0.6627224379289985  0.7813934841476351  0.5434664424623747  1.0000
  H   H10       1.0  0.8372754698647144  0.2813942354855995  0.4565327909791321  1.0000
  H   H11       1.0  0.3372769335329977  0.21860690432983174  0.4565335975540563  1.0000
  H   H12       1.0  0.162723901597289  0.7186061529918673  0.5434672490373063  1.0000
  H   H13       1.0  0.4539232293675469  0.7314885912423176  0.7597310225138615  1.0000
  H   H14       1.0  0.04607637641824881  0.2314887663894395  0.2402696753630309  1.0000
  H   H15       1.0  0.5460749347263274  0.26851021548770143  0.24026823571740158  1.0000
  H   H16       1.0  0.9539217842502128  0.7685108312144704  0.7597302195896705  1.0000
  H   H17       1.0  0.6050229363530663  0.18444499285268984  0.7995558717040296  1.0000
  H   H18       1.0  0.8949739036790164  0.6844441631647978  0.20044260742619713  1.0000
  H   H19       1.0  0.39498007776693816  0.8155538138759295  0.20044269333949674  1.0000
  H   H20       1.0  0.10502789964744612  0.31555385269025743  0.7995558125535993  1.0000
  H   H21       1.0  0.8133453333784431  0.24745075949973472  0.0637684354362875  1.0000
  H   H22       1.0  0.6866538306622942  0.7474515047080245  0.9362315894095303  1.0000
  H   H23       1.0  0.18665161649533962  0.7525496289784852  0.9362313144524566  1.0000
  H   H24       1.0  0.31334674474298657  0.2525504655168334  0.06376986911363501  1.0000
  C   C1        1.0  0.6371997782146934  0.5882953045929253  0.4109790936219397  1.0000
  C   C2        1.0  0.8627983973677901  0.08829522578631809  0.5890221047057693  1.0000
  C   C3        1.0  0.362798379029492  0.4117035021369801  0.589021438052427  1.0000
  C   C4        1.0  0.1372021780397645  0.9117035809427771  0.41097935381784373  1.0000
  C   C5        1.0  0.7581993910753014  0.5302973272420601  0.31554200022627305  1.0000
  C   C6        1.0  0.7417976675044855  0.030298095131477996  0.6844571593086499  1.0000
  C   C7        1.0  0.2417987695925845  0.4697030612357834  0.6844578947263145  1.0000
  C   C8        1.0  0.2582017005332347  0.9697015024719914  0.3155435174294539  1.0000
  C   C9        1.0  0.6266511556114693  0.7458452881851086  0.5993862423223035  1.0000
  C   C10       1.0  0.8733480107411611  0.2458460278304457  0.4006137829784891  1.0000
  C   C11       1.0  0.37334942664520554  0.2541543094180411  0.400613942758092  1.0000
  C   C12       1.0  0.1266513607208353  0.7541543606470141  0.5993862570379491  1.0000
  C   C13       1.0  0.5213174947770157  0.7207326899108676  0.708970145758137  1.0000
  C   C14       1.0  0.9786804969438523  0.2207333857371196  0.29102974159538775  1.0000
  C   C15       1.0  0.4786830840548149  0.27926690769222506  0.29103067604381033  1.0000
  C   C16       1.0  0.021317663724033802  0.7792670027407238  0.7089701533572068  1.0000
  C   C17       1.0  0.6574672293618208  0.2245082726789462  0.8603515264626438  1.0000
  C   C18       1.0  0.8425319642925119  0.7245074855899745  0.13964914160654024  1.0000
  C   C19       1.0  0.3425369852766167  0.7754921157970075  0.1396490938091759  1.0000
  C   C20       1.0  0.15747104640207255  0.2754921120125289  0.8603500601584315  1.0000
  C   C21       1.0  0.7619071979217724  0.2566295741031013  0.9946253566304649  1.0000
  C   C22       1.0  0.7380943813397849  0.7566296651013359  0.005373682298873913  1.0000
  C   C23       1.0  0.23809580249656653  0.7433723961210529  0.0053757552988429  1.0000
  C   C24       1.0  0.26190741855898386  0.24337230512335842  0.9946253744019131  1.0000
  Br  Br1       1.0  0.795990969126116  0.36600192358920935  0.660163765096506  1.0000
  Br  Br2       1.0  0.7040092315698914  0.8660019748981465  0.3398370079390177  1.0000
  Br  Br3       1.0  0.20400840233702416  0.6339968831403763  0.33983627492015966  1.0000
  Br  Br4       1.0  0.29599013646782885  0.13399762270532278  0.6601636687990864  1.0000
  Br  Br5       1.0  0.9391934238193402  0.5600609722634144  0.8726927070753447  1.0000
  Br  Br6       1.0  0.560804799269704  0.060061949747748096  0.12730722581033402  1.0000
  Br  Br7       1.0  0.06080959372550862  0.43993783446526175  0.1273052212466297  1.0000
  Br  Br8       1.0  0.43919336139818205  0.9399384387300953  0.8726926691422534  1.0000
  Br  Br9       1.0  0.4648279568957463  0.566347770824798  0.8893915550007564  1.0000
  Br  Br10      1.0  0.0351755156519999  0.06634718503680398  0.11061026158801472  1.0000
  Br  Br11      1.0  0.5351786861794637  0.433654199398383  0.1106080819554194  1.0000
  Br  Br12      1.0  0.9648250426290443  0.9336547851877623  0.8893943805429316  1.0000
  N   N1        1.0  0.7858219273949629  0.5605988505652489  0.4536417695432321  1.0000
  N   N2        1.0  0.7141775057137637  0.060599660002523585  0.5463583082538933  1.0000
  N   N3        1.0  0.21417744406817013  0.43939995616433686  0.5463582704734267  1.0000
  N   N4        1.0  0.2858230765429113  0.9393999376006191  0.45364187682650237  1.0000
  N   N5        1.0  0.6148569913955058  0.5707545260510187  0.32428810966523974  1.0000
  N   N6        1.0  0.8851412128701172  0.0707552090175909  0.6757124569116257  1.0000
  N   N7        1.0  0.38514116584924807  0.42924348980495347  0.6757124220092409  1.0000
  N   N8        1.0  0.1148581551681715  0.9292435977119382  0.32428821982659173  1.0000
  N   N9        1.0  0.8634744374594946  0.5229397883482034  0.3918763534634309  1.0000
  N   N10       1.0  0.6365226282903008  0.022940633516881793  0.6081234448780606  1.0000
  N   N11       1.0  0.13652372321010386  0.47705822750781807  0.6081235414894905  1.0000
  N   N12       1.0  0.3634767397468508  0.9770597549605213  0.3918772318599295  1.0000
  N   N13       1.0  0.6733902874453862  0.6498197302585568  0.6302157945285317  1.0000
  N   N14       1.0  0.8266090171852555  0.1498197127883145  0.3697842579847119  1.0000
  N   N15       1.0  0.3266102948107204  0.35018065821853367  0.3697843905517502  1.0000
  N   N16       1.0  0.1733903542773092  0.8501798848152118  0.6302157820318328  1.0000
  N   N17       1.0  0.6066442010090399  0.6338820524000965  0.7010296891168935  1.0000
  N   N18       1.0  0.893356337366093  0.13388200741032816  0.2989705129767303  1.0000
  N   N19       1.0  0.3933551738789448  0.36611675432954627  0.29896971417821316  1.0000
  N   N20       1.0  0.10664303752131593  0.866117590193255  0.7010288903182628  1.0000
  N   N21       1.0  0.530667762803084  0.7931213843537037  0.6464651225291149  1.0000
  N   N22       1.0  0.9693301246781375  0.2931212836873768  0.3535347443105366  1.0000
  N   N23       1.0  0.4693303978653702  0.20687821325019934  0.3535347724235863  1.0000
  N   N24       1.0  0.030668039415168415  0.7068783139165827  0.6464645139206057  1.0000
  N   N25       1.0  0.6737646014017856  0.32907208317366343  0.8679057535219388  1.0000
  N   N26       1.0  0.8262320166674331  0.829070516406915  0.132095231509247  1.0000
  N   N27       1.0  0.32623477690933106  0.6709290961778577  0.132093013051275  1.0000
  N   N28       1.0  0.1737685553152772  0.1709282903221236  0.8679068637359252  1.0000
  N   N29       1.0  0.7404964826925351  0.3490748389662457  0.9538010260039728  1.0000
  N   N30       1.0  0.7595037458034212  0.8490749096898184  0.04619911510690142  1.0000
  N   N31       1.0  0.2595041098369748  0.6509271312588891  0.046197248911418916  1.0000
  N   N32       1.0  0.24049924776409176  0.1509286422820963  0.9538032702652899  1.0000
  N   N33       1.0  0.711819648450664  0.17614788961830632  0.9385222897271674  1.0000
  N   N34       1.0  0.7881796251180264  0.6761463585371174  0.061476481882138515  1.0000
  N   N35       1.0  0.28818093380316173  0.8238556623545389  0.06147789535266671  1.0000
  N   N36       1.0  0.21182096398720773  0.32385482081402006  0.9385224297549186  1.0000
