data_image0
_chemical_formula_structural       Ca2H28C24N16
_chemical_formula_sum              "Ca2 H28 C24 N16"
_cell_length_a       8.654901383000409
_cell_length_b       9.024769615840395
_cell_length_c       10.300097607746165
_cell_angle_alpha    114.96058901178999
_cell_angle_beta     89.9999675843076
_cell_angle_gamma    90.00000105285007

_space_group_name_H-M_alt    "P 1"
_space_group_IT_number       1

loop_
  _space_group_symop_operation_xyz
  'x, y, z'

loop_
  _atom_site_type_symbol
  _atom_site_label
  _atom_site_symmetry_multiplicity
  _atom_site_fract_x
  _atom_site_fract_y
  _atom_site_fract_z
  _atom_site_occupancy
  Ca  Ca1       1.0  0.5000009121418074  0.5000006190105707  0.5000009076292997  1.0000
  Ca  Ca2       1.0  5.603716600000014e-09  0.4999993844501274  1.1596682727368167e-07  1.0000
  H   H1        1.0  0.7914023013576852  0.9200646163768054  0.4159713779288623  1.0000
  H   H2        1.0  0.29140132860685247  0.07993531140969878  0.08402947969428  1.0000
  H   H3        1.0  0.2085983675115415  0.0799341772178792  0.5840295393833657  1.0000
  H   H4        1.0  0.7085981848480855  0.9200659192259976  0.9159703911138237  1.0000
  H   H5        1.0  0.13877212902818306  0.4836220880301168  0.3266541837583361  1.0000
  H   H6        1.0  0.638773256724626  0.5163778793927349  0.1733467607975143  1.0000
  H   H7        1.0  0.861227384426435  0.5163791462984548  0.673346659275339  1.0000
  H   H8        1.0  0.3612274121447925  0.4836221327223809  0.826653633262481  1.0000
  H   H9        1.0  0.5450934075933346  0.251346092037771  0.11526046247185921  1.0000
  H   H10       1.0  0.04509571282002161  0.7486538997124156  0.3847405354401019  1.0000
  H   H11       1.0  0.4549049504464194  0.7486539237705258  0.8847409038143752  1.0000
  H   H12       1.0  0.9549061114640626  0.25134611240255106  0.6152598586195737  1.0000
  H   H13       1.0  0.32432574629465455  0.23469703792486024  0.9137153815274529  1.0000
  H   H14       1.0  0.8243257830025214  0.76530425067898  0.5862849320283701  1.0000
  H   H15       1.0  0.6756749225746219  0.7653041964035623  0.08628546150589493  1.0000
  H   H16       1.0  0.17567488586675487  0.2346969836494423  0.413715911004978  1.0000
  H   H17       1.0  0.5716701139339334  0.1298708017102683  0.5309028754700904  1.0000
  H   H18       1.0  0.0716700540355291  0.8701281117721463  0.969097656269291  1.0000
  H   H19       1.0  0.42832824410582043  0.8701292140980282  0.46909849081614396  1.0000
  H   H20       1.0  0.9283294594195509  0.12987189665025053  0.030901765565459993  1.0000
  H   H21       1.0  0.8346610672891331  0.295271759731115  0.2745382620895356  1.0000
  H   H22       1.0  0.3346611683607961  0.7047293753417846  0.225462047642246  1.0000
  H   H23       1.0  0.1653384461657623  0.7047270301708505  0.7254616829974411  1.0000
  H   H24       1.0  0.665338345094007  0.29527307750721826  0.7745382721392033  1.0000
  H   H25       1.0  0.9566127901669148  0.9972295718332306  0.25166500980142814  1.0000
  H   H26       1.0  0.45661286004356333  0.002770313049531099  0.2483357537227491  1.0000
  H   H27       1.0  0.0433867232875045  0.0027704439749172  0.7483363564844794  1.0000
  H   H28       1.0  0.5433878088261821  0.9972296953727092  0.7516636681116751  1.0000
  C   C1        1.0  0.21989844264837902  0.4173895165436575  0.24105633271800997  1.0000
  C   C2        1.0  0.7198995139728197  0.5826092039052851  0.25894314443195293  1.0000
  C   C3        1.0  0.78009991539151  0.5826092770513255  0.7589445845948717  1.0000
  C   C4        1.0  0.2801011548969257  0.4173908045169624  0.7410562774024712  1.0000
  C   C5        1.0  0.42759004209042206  0.2979927118864508  0.13068714061283523  1.0000
  C   C6        1.0  0.9275910414905725  0.7020071768402474  0.3693126672159367  1.0000
  C   C7        1.0  0.5724071605354624  0.7020060743229377  0.8693118322492239  1.0000
  C   C8        1.0  0.0724084719640459  0.2979940574883243  0.6306881758177383  1.0000
  C   C9        1.0  0.3167938974229827  0.28786597829164845  0.029740459978107463  1.0000
  C   C10       1.0  0.816794828818658  0.7121351577282056  0.4702588877044391  1.0000
  C   C11       1.0  0.6832044606169063  0.7121328153033344  0.9702604573347813  1.0000
  C   C12       1.0  0.18320584005127927  0.28786606921446634  0.5297400108777595  1.0000
  C   C13       1.0  0.6586543765928425  0.13587528381243888  0.4575341823164649  1.0000
  C   C14       1.0  0.15865344951318153  0.8641258932750092  0.04246525543788243  1.0000
  C   C15       1.0  0.34134744769175995  0.8641259431300837  0.5424647162654067  1.0000
  C   C16       1.0  0.8413460639417635  0.13587533736069443  0.9575346153702213  1.0000
  C   C17       1.0  0.7973145815769556  0.21582803797402042  0.3234731187288062  1.0000
  C   C18       1.0  0.29731587292003064  0.7841694438502245  0.17652683757954432  1.0000
  C   C19       1.0  0.20268493187798947  0.7841731926616828  0.6765267520792975  1.0000
  C   C20       1.0  0.7026859513640034  0.21582812753101163  0.8234736307590113  1.0000
  C   C21       1.0  0.8593476421803388  0.0698156323493535  0.3111069193628638  1.0000
  C   C22       1.0  0.3593512392668288  0.9301842777917954  0.18889389955946007  1.0000
  C   C23       1.0  0.14065187127469156  0.9301819353393055  0.6888925767507672  1.0000
  C   C24       1.0  0.6406505850172549  0.0698157343231784  0.8111064945002155  1.0000
  N   N1        1.0  0.3653143021866896  0.38103092316995896  0.26589221395823154  1.0000
  N   N2        1.0  0.8653142356983422  0.6189689817293028  0.234107629341139  1.0000
  N   N3        1.0  0.6346840558535334  0.6189678667321558  0.7341077311290788  1.0000
  N   N4        1.0  0.1346852777567378  0.38103102669309397  0.765891792493612  1.0000
  N   N5        1.0  0.1836704625908254  0.36483853993765075  0.10075068110057828  1.0000
  N   N6        1.0  0.6836702848435224  0.6351626306532621  0.3992487424051774  1.0000
  N   N7        1.0  0.8163290508641126  0.6351626906980526  0.8992491897075254  1.0000
  N   N8        1.0  0.31632922861174967  0.3648385962895657  0.6007501561773481  1.0000
  N   N9        1.0  0.6715719283499482  0.25572191729695243  0.4148188315707912  1.0000
  N   N10       1.0  0.1715709697113397  0.7442780416083747  0.08518209430393135  1.0000
  N   N11       1.0  0.3284287405192785  0.7442768762977322  0.5851820857414367  1.0000
  N   N12       1.0  0.8284296991577448  0.2557219741996234  0.9148192719816491  1.0000
  N   N13       1.0  0.7695834472715147  0.02125400085693489  0.39655981753225683  1.0000
  N   N14       1.0  0.26958363696227383  0.9787459252098287  0.10343910806673051  1.0000
  N   N15       1.0  0.23041606618323127  0.9787460112583373  0.6034405765280724  1.0000
  N   N16       1.0  0.7304181873218097  0.0212540869051452  0.8965612859929379  1.0000
