data_image0
_chemical_formula_structural       Cd3H28C32N2O14
_chemical_formula_sum              "Cd3 H28 C32 N2 O14"
_cell_length_a       7.625740004159567
_cell_length_b       10.843066814101347
_cell_length_c       10.963755744300746
_cell_angle_alpha    62.87078081592173
_cell_angle_beta     76.37290131382778
_cell_angle_gamma    86.86296815229798

_space_group_name_H-M_alt    "P 1"
_space_group_IT_number       1

loop_
  _space_group_symop_operation_xyz
  'x, y, z'

loop_
  _atom_site_type_symbol
  _atom_site_label
  _atom_site_symmetry_multiplicity
  _atom_site_fract_x
  _atom_site_fract_y
  _atom_site_fract_z
  _atom_site_occupancy
  Cd  Cd1       1.0  0.4999984369338435  0.4999994369993033  7.626077688136889e-07  1.0000
  Cd  Cd2       1.0  0.05641930934920938  0.14188894674782654  0.35265505866844654  1.0000
  Cd  Cd3       1.0  0.9435769457130904  0.858114239213613  0.6473443936693856  1.0000
  H   H1        1.0  0.28318425702065037  0.7120661728319887  0.8159854032118831  1.0000
  H   H2        1.0  0.7168128846437227  0.2879318524163139  0.18401343960945132  1.0000
  H   H3        1.0  0.49137805081946334  0.7315841417702343  0.725568583189478  1.0000
  H   H4        1.0  0.508620745080556  0.26841695354280387  0.27443227087105987  1.0000
  H   H5        1.0  0.9402328361297663  0.4135840953098509  0.9055854623310466  1.0000
  H   H6        1.0  0.059772620366587086  0.5864159524285453  0.09441471802600894  1.0000
  H   H7        1.0  0.1499355728511063  0.5085567102525134  0.8558428542392137  1.0000
  H   H8        1.0  0.8500697861219918  0.49144230996484567  0.1441568841819603  1.0000
  H   H9        1.0  0.34741412871123606  0.9411303252325709  0.09276089963366718  1.0000
  H   H10       1.0  0.6525913306815453  0.05886861010822027  0.9072461566383014  1.0000
  H   H11       1.0  0.2558127512745045  0.4329089954702425  0.3131457930210004  1.0000
  H   H12       1.0  0.7441845632278756  0.5670899936416731  0.6868589801243132  1.0000
  H   H13       1.0  0.11972449790750521  0.5585217198922479  0.45324488212296643  1.0000
  H   H14       1.0  0.8802743482023558  0.4414793329825101  0.5467596308629724  1.0000
  H   H15       1.0  0.45841626214510706  0.38888146681124874  0.5141670898040688  1.0000
  H   H16       1.0  0.5415808293094243  0.6111166008753345  0.4858280940918648  1.0000
  H   H17       1.0  0.4845303733853327  0.8013080121138356  0.9668841180813674  1.0000
  H   H18       1.0  0.515470868725579  0.19868885263215927  0.03312457168091504  1.0000
  H   H19       1.0  0.22097514499304075  0.9989652191926335  0.8577865445536477  1.0000
  H   H20       1.0  0.7790289498374319  0.0010348410441381  0.1422129503718424  1.0000
  H   H21       1.0  0.0678964306169192  0.12071761837763259  0.9946096830310936  1.0000
  H   H22       1.0  0.9321064000709212  0.8792834818785523  0.005389568398726338  1.0000
  H   H23       1.0  0.498160916246256  0.013258826208137  0.6672168018759095  1.0000
  H   H24       1.0  0.50183607768502  0.9867382139574159  0.33277794008414224  1.0000
  H   H25       1.0  0.5720834604851605  0.17681200554915216  0.5176235629961498  1.0000
  H   H26       1.0  0.42791780093782716  0.8231870627729164  0.4823732043989964  1.0000
  H   H27       1.0  0.3008574840048368  0.5118530214033895  0.6495111863165238  1.0000
  H   H28       1.0  0.6991425731413939  0.48814814628783404  0.3504830353247783  1.0000
  C   C1        1.0  0.0832722063923725  0.40434166143921135  0.9087166511223758  1.0000
  C   C2        1.0  0.9167331998941464  0.5956584287374723  0.09127987030927882  1.0000
  C   C3        1.0  0.3250161215375372  0.08519377688686088  0.5232409934676667  1.0000
  C   C4        1.0  0.6749803633322244  0.914812544685546  0.4767552110210644  1.0000
  C   C5        1.0  0.22147187712386793  0.7598780748595144  0.2823942437968653  1.0000
  C   C6        1.0  0.7785241481309624  0.24012197549095754  0.7176084563900744  1.0000
  C   C7        1.0  0.3251823107533838  0.8286940451206418  0.14387051303015844  1.0000
  C   C8        1.0  0.674817459615923  0.17130181521226717  0.8561361346333244  1.0000
  C   C9        1.0  0.2730345114946147  0.5456750493294108  0.26740650247445785  1.0000
  C   C10       1.0  0.7269600671235352  0.4543239753888314  0.7325959850763866  1.0000
  C   C11       1.0  0.09422632972354708  0.3336752696155256  0.061266476620112136  1.0000
  C   C12       1.0  0.9057828564384067  0.6663217111124807  0.9387298605672216  1.0000
  C   C13       1.0  0.1961978472520158  0.615523440997123  0.344677505916195  1.0000
  C   C14       1.0  0.8037982504211527  0.38447765809353013  0.6553238067439298  1.0000
  C   C15       1.0  0.14423416762031133  0.8410767371920538  0.362539426991667  1.0000
  C   C16       1.0  0.8557578605040773  0.15892327638655246  0.63746762002004  1.0000
  C   C17       1.0  0.37185465005154583  0.330289790621883  0.6193438703867713  1.0000
  C   C18       1.0  0.6281465389531036  0.6697082289600045  0.38065428453518985  1.0000
  C   C19       1.0  0.3996040507356042  0.7518118206798191  0.07395788698420341  1.0000
  C   C20       1.0  0.6003932637667759  0.24818716843209637  0.9260468861611103  1.0000
  C   C21       1.0  0.2400354000188258  0.11156210412894296  0.8125528286575588  1.0000
  C   C22       1.0  0.7599685123175915  0.8884358904561862  0.18744669712752687  1.0000
  C   C23       1.0  0.1522705460762666  0.1802250291331902  0.8885032755576461  1.0000
  C   C24       1.0  0.8477321619834014  0.8197750648211082  0.11149370447359519  1.0000
  C   C25       1.0  0.4535939685473735  0.11253919435942807  0.5963204681999913  1.0000
  C   C26       1.0  0.5464073179805311  0.8874598527434968  0.4036781286578516  1.0000
  C   C27       1.0  0.2838088724777776  0.39912637869223017  0.6947392380829741  1.0000
  C   C28       1.0  0.7161898481074829  0.6008747802782322  0.3052561275894661  1.0000
  C   C29       1.0  0.3536906795870749  0.18566314413061485  0.6781562973261047  1.0000
  C   C30       1.0  0.6463146793860304  0.8143358760867441  0.3218434410950691  1.0000
  C   C31       1.0  0.17439107679442856  0.32497228771502035  0.830527090523134  1.0000
  C   C32       1.0  0.8256090180091745  0.6750288481474911  0.1694698753122167  1.0000
  N   N1        1.0  0.372995623419335  0.612675866504233  0.13393046193399274  1.0000
  N   N2        1.0  0.6269989928561942  0.3873231263852971  0.8660747698109077  1.0000
  O   O1        1.0  0.9557713033148402  0.2574614209162077  0.15309649544806095  1.0000
  O   O2        1.0  0.044233895372713085  0.7425366248279699  0.8468982273804784  1.0000
  O   O3        1.0  0.1637945289653757  0.9721701812701441  0.29111094605716636  1.0000
  O   O4        1.0  0.8362031727336044  0.027834030323525386  0.7088887189167611  1.0000
  O   O5        1.0  0.39664917624143203  0.6652044815048155  0.806077416302742  1.0000
  O   O6        1.0  0.6033536418939461  0.3347966293609445  0.19392092039572628  1.0000
  O   O7        1.0  0.3209275605914782  0.1789240816416751  0.3980872026498475  1.0000
  O   O8        1.0  0.6790690845638422  0.821083214403913  0.6019140174315114  1.0000
  O   O9        1.0  0.23647864316460945  0.34523491528497624  0.09765279935038507  1.0000
  O   O10       1.0  0.7635278573229556  0.6547620586110695  0.9023449111678802  1.0000
  O   O11       1.0  0.0711365741134955  0.7703119481644405  0.4932808094924823  1.0000
  O   O12       1.0  0.9288581493413303  0.22968917403416353  0.5067189030047247  1.0000
  O   O13       1.0  0.22426281917137908  0.975563733593624  0.5910805155657074  1.0000
  O   O14       1.0  0.7757364614484955  0.024443611722197993  0.40891567225932607  1.0000
