data_image0
_chemical_formula_structural       Ag2H66C60N8O6
_chemical_formula_sum              "Ag2 H66 C60 N8 O6"
_cell_length_a       8.460450071111563
_cell_length_b       10.625532884840466
_cell_length_c       17.387300615353144
_cell_angle_alpha    83.66603298143495
_cell_angle_beta     81.85801313168679
_cell_angle_gamma    84.10901374751626

_space_group_name_H-M_alt    "P 1"
_space_group_IT_number       1

loop_
  _space_group_symop_operation_xyz
  'x, y, z'

loop_
  _atom_site_type_symbol
  _atom_site_label
  _atom_site_symmetry_multiplicity
  _atom_site_fract_x
  _atom_site_fract_y
  _atom_site_fract_z
  _atom_site_occupancy
  Ag  Ag1       1.0  0.7751397879973395  0.9831187599565966  0.2579215298529435  1.0000
  Ag  Ag2       1.0  0.22485524638216248  0.016877058151628398  0.7420765062937138  1.0000
  H   H1        1.0  0.3231584216832033  0.7703957623762319  0.5719829336437672  1.0000
  H   H2        1.0  0.6768379586222224  0.2296103961463132  0.428019561829494  1.0000
  H   H3        1.0  0.7295713780767484  0.540919598225443  0.4633493865962351  1.0000
  H   H4        1.0  0.27041548035781193  0.45907606154591446  0.5366555991111499  1.0000
  H   H5        1.0  0.5123033952327205  0.572659136914055  0.5722036502674258  1.0000
  H   H6        1.0  0.48768946940695906  0.4273469632068157  0.4278014130199069  1.0000
  H   H7        1.0  0.7735598557418938  0.7073518223820231  0.3517678114970764  1.0000
  H   H8        1.0  0.2264301728498666  0.2926363028938254  0.6482345100577476  1.0000
  H   H9        1.0  0.33116913844410323  0.20771980034923132  0.37507863326795393  1.0000
  H   H10       1.0  0.6688235576132656  0.7922759744112822  0.624921306353656  1.0000
  H   H11       1.0  0.5109676335088195  0.18932432200563906  0.31029364968605233  1.0000
  H   H12       1.0  0.4890266344959428  0.8106790209867467  0.6897074463251657  1.0000
  H   H13       1.0  0.3724251240373633  0.0723918879048284  0.22445883060527905  1.0000
  H   H14       1.0  0.6275771216895193  0.927603901369352  0.7755403926774138  1.0000
  H   H15       1.0  0.27540506856312413  0.22771686516507114  0.23619378267762411  1.0000
  H   H16       1.0  0.7245931900003272  0.7722818364863286  0.7638026894049901  1.0000
  H   H17       1.0  0.18925728637071165  0.09307494985392138  0.2884698820170329  1.0000
  H   H18       1.0  0.8107412537943688  0.9069217977577394  0.7115289864815254  1.0000
  H   H19       1.0  0.11171011586356626  0.07300896985715609  0.16612206266874815  1.0000
  H   H20       1.0  0.8882961661219825  0.9269838673205157  0.8338816362042537  1.0000
  H   H21       1.0  0.34462392338211595  0.10103519986036251  0.06066420954803682  1.0000
  H   H22       1.0  0.6553825796762495  0.8989661939946032  0.9393389622522297  1.0000
  H   H23       1.0  0.38558097736886765  0.9727455437596502  0.9480917381846581  1.0000
  H   H24       1.0  0.6144253848886834  0.0272568271151883  0.051910235407632406  1.0000
  H   H25       1.0  0.19981650209734164  0.8116362299339741  0.9353036623712115  1.0000
  H   H26       1.0  0.8001986320385653  0.18836236471871362  0.06469730408572619  1.0000
  H   H27       1.0  0.6895913586703984  0.7243846673450135  0.22609141913862632  1.0000
  H   H28       1.0  0.3104119939911101  0.2756225188019386  0.773907616482248  1.0000
  H   H29       1.0  0.7188890212716502  0.6255023504598468  0.14941518529481357  1.0000
  H   H30       1.0  0.2811113233472113  0.37450005106324363  0.850585511619073  1.0000
  H   H31       1.0  0.5125166682119018  0.8818601810416806  0.15447723117756598  1.0000
  H   H32       1.0  0.4874847293148362  0.11814319931548303  0.8455221779859841  1.0000
  H   H33       1.0  0.4427407874759337  0.7288011387436838  0.15975958083500796  1.0000
  H   H34       1.0  0.5572582226334217  0.27120223798505794  0.8402400074132718  1.0000
  H   H35       1.0  0.5467430674688459  0.794982388106277  0.07118695108735551  1.0000
  H   H36       1.0  0.4532560507111683  0.20502003808212518  0.9288126857754054  1.0000
  H   H37       1.0  0.9865461418635492  0.2577418328291116  0.4148054861094153  1.0000
  H   H38       1.0  0.01345713052595697  0.7422558196206737  0.5851952747921702  1.0000
  H   H39       1.0  0.10801495677017667  0.44471550513434016  0.4498479542173186  1.0000
  H   H40       1.0  0.8919865914375434  0.5552860271011895  0.5501492529882342  1.0000
  H   H41       1.0  0.028533058119144472  0.645366616594238  0.22716835498735582  1.0000
  H   H42       1.0  0.9714657571626544  0.3546273191156856  0.77282893496443  1.0000
  H   H43       1.0  0.9066604569590025  0.45604544761113175  0.1947110235307079  1.0000
  H   H44       1.0  0.09334222105049153  0.5439465395016753  0.8052883942099315  1.0000
  H   H45       1.0  0.2398674697194849  0.7377324380741753  0.2548328723827424  1.0000
  H   H46       1.0  0.7601341275834771  0.2622690544420649  0.745166059213034  1.0000
  H   H47       1.0  0.24292104227674116  0.821953463920799  0.33821462829989474  1.0000
  H   H48       1.0  0.7570749597899746  0.178045128184074  0.6617866212413903  1.0000
  H   H49       1.0  0.05764796516965725  0.8157937051430367  0.3000196095291089  1.0000
  H   H50       1.0  0.9423514444921536  0.18420589590386532  0.6999790235836301  1.0000
  H   H51       1.0  0.22563964791529406  0.1246387748673072  0.48314574942421035  1.0000
  H   H52       1.0  0.774362113038478  0.8753625852512956  0.5168589301389945  1.0000
  H   H53       1.0  0.23985256842922095  0.9899549053448954  0.5523122039992147  1.0000
  H   H54       1.0  0.7601518649388125  0.010042775398623893  0.44768731776651566  1.0000
  H   H55       1.0  0.08257071469943605  0.8728623184339811  0.4741782105747064  1.0000
  H   H56       1.0  0.917429587309094  0.1271409806703971  0.525824736911666  1.0000
  H   H57       1.0  0.0518890698246608  0.014356177530721896  0.41155252793830505  1.0000
  H   H58       1.0  0.9481103135918971  0.9856443078577044  0.5884489305436561  1.0000
  H   H59       1.0  0.9450746957923284  0.715326858080786  0.947490465812891  1.0000
  H   H60       1.0  0.054922385427509796  0.2846718285166432  0.0525066706088353  1.0000
  H   H61       1.0  0.7860766465268368  0.6583593117950813  0.015552317449440514  1.0000
  H   H62       1.0  0.21392115350875676  0.3416440763592234  0.9844467855444567  1.0000
  H   H63       1.0  0.9919757443950844  0.5169039716753758  0.08707054505052265  1.0000
  H   H64       1.0  0.0080183828088636  0.4831003483368761  0.912929352752727  1.0000
  H   H65       1.0  0.14372249482001823  0.5689319731842629  0.013537094718436997  1.0000
  H   H66       1.0  0.8562743440132721  0.4310694988353844  0.9864627698435415  1.0000
  C   C1        1.0  0.5697736475926334  0.8309356130527447  0.39831120120705077  1.0000
  C   C2        1.0  0.430222105602617  0.1690649066123484  0.6016888015117845  1.0000
  C   C3        1.0  0.44393738063378413  0.8469335573441866  0.46023172946920005  1.0000
  C   C4        1.0  0.5560607272486847  0.1530669924288475  0.5397669445714187  1.0000
  C   C5        1.0  0.4191856156790406  0.7557490490121097  0.5240085458911496  1.0000
  C   C6        1.0  0.5808096135280323  0.24425621011494064  0.47599178855199403  1.0000
  C   C7        1.0  0.6508392296541743  0.6288211821636409  0.46193113517004764  1.0000
  C   C8        1.0  0.349149691985815  0.37117733285717236  0.5380735256091429  1.0000
  C   C9        1.0  0.5259034914724267  0.6466664539643503  0.5237286263193255  1.0000
  C   C10       1.0  0.47408943214266214  0.3533387353354626  0.47627476119226503  1.0000
  C   C11       1.0  0.6750867824885987  0.7204747236036084  0.3987347424806629  1.0000
  C   C12       1.0  0.32490728080843206  0.2795200494717136  0.6012674554000412  1.0000
  C   C13       1.0  0.3995517328037437  0.14538533401579198  0.3335558631081241  1.0000
  C   C14       1.0  0.6004480338001841  0.8546113889305501  0.6664440654415531  1.0000
  C   C15       1.0  0.3033275795999942  0.1335768173752854  0.2665984498499442  1.0000
  C   C16       1.0  0.6966756436942702  0.8664208747937894  0.7334005866614108  1.0000
  C   C17       1.0  0.058921554104372796  0.8475920375626057  0.04752114957270952  1.0000
  C   C18       1.0  0.9410785842533542  0.1524113939394027  0.9524760499462278  1.0000
  C   C19       1.0  0.03389385859444614  0.920581867640067  0.11210045418277298  1.0000
  C   C20       1.0  0.966109893619517  0.07942154282504531  0.8878976263025606  1.0000
  C   C21       1.0  0.1355835387084809  0.013723847288275698  0.11783215233371183  1.0000
  C   C22       1.0  0.8644174216041376  0.986272877472274  0.8821676866735975  1.0000
  C   C23       1.0  0.2627889990076611  0.0289756395097669  0.058319262592888804  1.0000
  C   C24       1.0  0.7372126211452965  0.9710266976287085  0.9416842187623478  1.0000
  C   C25       1.0  0.28676386561561173  0.9554369291403049  0.994215442312388  1.0000
  C   C26       1.0  0.7132449921299795  0.044564494822601795  0.005786400809661504  1.0000
  C   C27       1.0  0.18463025745578673  0.8637155344298435  0.986932174477353  1.0000
  C   C28       1.0  0.8153797449032466  0.13628593106656686  0.013067854712097891  1.0000
  C   C29       1.0  0.6989216934661472  0.725255441317394  0.16238463475141174  1.0000
  C   C30       1.0  0.3010785103519069  0.2747479372255626  0.8376148639544994  1.0000
  C   C31       1.0  0.541646290021255  0.786402439313001  0.13498185089515152  1.0000
  C   C32       1.0  0.45835760299351597  0.2135999941322382  0.8650174277981579  1.0000
  C   C33       1.0  0.940730473507209  0.34484147736336007  0.30147277484087454  1.0000
  C   C34       1.0  0.05927305763393059  0.6551533764244509  0.6985258327171949  1.0000
  C   C35       1.0  0.8754855087468485  0.23021147034152278  0.27780312178097694  1.0000
  C   C36       1.0  0.12451923246806727  0.7697833720207328  0.7221959710314678  1.0000
  C   C37       1.0  0.9963529850181913  0.34300541032683896  0.374065948849534  1.0000
  C   C38       1.0  0.0036503463467240905  0.6569913313018957  0.6259331362763094  1.0000
  C   C39       1.0  0.06380642772019482  0.4467236892148776  0.39383732671814903  1.0000
  C   C40       1.0  0.9361978648470314  0.5532749685485142  0.6061609968396127  1.0000
  C   C41       1.0  0.07845913779831189  0.5560184094053042  0.34072820058705844  1.0000
  C   C42       1.0  0.9215416653484141  0.44397930561488136  0.6592698654155458  1.0000
  C   C43       1.0  0.020977994928614394  0.5606414308007713  0.26846119487811393  1.0000
  C   C44       1.0  0.9790253037061445  0.4393553373074895  0.7315367406542423  1.0000
  C   C45       1.0  0.8421541455619702  0.7932920521082137  0.12844649482292425  1.0000
  C   C46       1.0  0.157846009160842  0.20671136615403185  0.8715512794927565  1.0000
  C   C47       1.0  0.44581169234793794  0.019101731756492792  0.3742160767787866  1.0000
  C   C48       1.0  0.5541857785441875  0.9808940502608511  0.6257835046733647  1.0000
  C   C49       1.0  0.9527539839247082  0.45531266581389207  0.250194280887449  1.0000
  C   C50       1.0  0.04724847794347649  0.5446812223796016  0.7498050396242207  1.0000
  C   C51       1.0  0.17273665309478042  0.7628482043918582  0.3108320807745812  1.0000
  C   C52       1.0  0.8272615628583395  0.2371513948408293  0.6891666418805188  1.0000
  C   C53       1.0  0.22637353459869294  0.020620761403193893  0.49097350714099264  1.0000
  C   C54       1.0  0.7736258324527867  0.9793797372249956  0.5090273765442319  1.0000
  C   C55       1.0  0.07146778075275503  0.9774634537552346  0.47146544502889043  1.0000
  C   C56       1.0  0.9285362857929939  0.0225379761906055  0.5285361814658742  1.0000
  C   C57       1.0  0.9137008375706229  0.6746698821293293  0.008056963065413869  1.0000
  C   C58       1.0  0.08629692973480017  0.32533353250449437  0.9919409903349959  1.0000
  C   C59       1.0  0.016237443594462796  0.5506530210623451  0.024795067671313106  1.0000
  C   C60       1.0  0.9837580934594854  0.4493493996834275  0.9752048378185453  1.0000
  N   N1        1.0  0.5676247245367277  0.9395868128157049  0.34612939316297553  1.0000
  N   N2        1.0  0.4323724221434375  0.060411820822672296  0.6538700424457178  1.0000
  N   N3        1.0  0.3675693947046738  0.96689745103771  0.4432002952388672  1.0000
  N   N4        1.0  0.6324286051071368  0.03310404927566421  0.556798330187263  1.0000
  N   N5        1.0  0.9346376605103047  0.7690531508414652  0.059330819605250384  1.0000
  N   N6        1.0  0.0653659345377591  0.23095124988327603  0.9406654878753642  1.0000
  N   N7        1.0  0.898549378038517  0.8845200592206339  0.1611132784353231  1.0000
  N   N8        1.0  0.10144995628280641  0.11548046588708867  0.8388864556564145  1.0000
  O   O1        1.0  0.14942234261183523  0.6521980136334306  0.3645847300152029  1.0000
  O   O2        1.0  0.8505760403873451  0.3477997242378592  0.6354123654786363  1.0000
  O   O3        1.0  0.8693973413916325  0.13263224427021922  0.32865353860945135  1.0000
  O   O4        1.0  0.13060527115753462  0.8673597958016402  0.671343579944214  1.0000
  O   O5        1.0  0.8335430536424795  0.23424105330509795  0.21038746571549183  1.0000
  O   O6        1.0  0.16646038579308714  0.765754737783297  0.7896116680248326  1.0000
