data_image0
_chemical_formula_structural       Zn4H36C60N8Cl12O16
_chemical_formula_sum              "Zn4 H36 C60 N8 Cl12 O16"
_cell_length_a       9.000628919004372
_cell_length_b       11.543814485363612
_cell_length_c       16.93221965513845
_cell_angle_alpha    109.60520806717483
_cell_angle_beta     89.99994642762658
_cell_angle_gamma    89.99992436153975

_space_group_name_H-M_alt    "P 1"
_space_group_IT_number       1

loop_
  _space_group_symop_operation_xyz
  'x, y, z'

loop_
  _atom_site_type_symbol
  _atom_site_label
  _atom_site_symmetry_multiplicity
  _atom_site_fract_x
  _atom_site_fract_y
  _atom_site_fract_z
  _atom_site_occupancy
  Zn  Zn1       1.0  0.7448354396685916  0.8002335024185282  0.8229956377400283  1.0000
  Zn  Zn2       1.0  0.7551666912222359  0.30023322127305346  0.32299551126303067  1.0000
  Zn  Zn3       1.0  0.25516517784462417  0.1997663257538491  0.17700360249979494  1.0000
  Zn  Zn4       1.0  0.24483392629090864  0.6997656904229358  0.6770047014986672  1.0000
  H   H1        1.0  0.27294633811644087  0.570993522177197  0.8789162444440278  1.0000
  H   H2        1.0  0.22705596287698165  0.07099236026127188  0.3789153408910052  1.0000
  H   H3        1.0  0.7270565014607586  0.42900814823939  0.12108459641208913  1.0000
  H   H4        1.0  0.7729413215343327  0.9290083890364046  0.6210846996588018  1.0000
  H   H5        1.0  0.29058367049322703  0.5358812916656107  0.01600336176865368  1.0000
  H   H6        1.0  0.2094171049044675  0.035880971958320594  0.5160029163949034  1.0000
  H   H7        1.0  0.7094169470189514  0.4641185396044419  0.9839970603581562  1.0000
  H   H8        1.0  0.7905824015743121  0.9641197757889156  0.48399653321048647  1.0000
  H   H9        1.0  0.4725174272104695  0.6567299218815278  0.12318129117356587  1.0000
  H   H10       1.0  0.027482955337859504  0.15672894376236704  0.623180786796567  1.0000
  H   H11       1.0  0.5274831903007423  0.343270828962595  0.8768193403183558  1.0000
  H   H12       1.0  0.9725165511398828  0.8432718070825516  0.3768198446958094  1.0000
  H   H13       1.0  0.637885770906081  0.8075969161620548  0.09194141254415196  1.0000
  H   H14       1.0  0.8621134199608775  0.30759545613852873  0.5919400406631324  1.0000
  H   H15       1.0  0.36211373556965754  0.1924047573546019  0.9080606102003299  1.0000
  H   H16       1.0  0.1378838644503659  0.6924043766827593  0.40806097240854905  1.0000
  H   H17       1.0  0.6651326259299211  0.9870283728095114  0.06671482575553257  1.0000
  H   H18       1.0  0.8348674162709104  0.4870278745693709  0.5667148676448048  1.0000
  H   H19       1.0  0.3348668805492991  0.012971456912502797  0.9332850054282387  1.0000
  H   H20       1.0  0.16513320124178682  0.5129719551518406  0.43328496353850443  1.0000
  H   H21       1.0  0.8376068027555947  0.16713686322942314  0.09040580061286359  1.0000
  H   H22       1.0  0.6623926287585391  0.6671354266673503  0.5904067583815261  1.0000
  H   H23       1.0  0.16239270372467024  0.8328629633949162  0.9095928486839212  1.0000
  H   H24       1.0  0.33760576668765924  0.33286348503023083  0.40959345438108835  1.0000
  H   H25       1.0  0.0224470556728207  0.27872348867169444  0.03248220363770568  1.0000
  H   H26       1.0  0.4775543904339727  0.7787225192773516  0.5324831103024578  1.0000
  H   H27       1.0  0.9775535618409137  0.7212763379518489  0.9675164456586173  1.0000
  H   H28       1.0  0.5224462270782056  0.22127731199270062  0.46751731182435197  1.0000
  H   H29       1.0  0.0898516782568564  0.18973047042848623  0.8785612830412362  1.0000
  H   H30       1.0  0.4101470891056636  0.6897287809043744  0.3785618018125587  1.0000
  H   H31       1.0  0.9101478282228898  0.8102693577446869  0.12143795719904191  1.0000
  H   H32       1.0  0.589852417374523  0.3102701292435696  0.6214378200061004  1.0000
  H   H33       1.0  0.9761291421915105  0.9909813056297875  0.7923624458953639  1.0000
  H   H34       1.0  0.52387160828696  0.490980438477095  0.2923628921532497  1.0000
  H   H35       1.0  0.0238714753217053  0.009018522542589799  0.20763679434445234  1.0000
  H   H36       1.0  0.4761278981927077  0.5090184732196904  0.7076373206089099  1.0000
  C   C1        1.0  0.4270466033522382  0.7208385881907374  0.8224374922584514  1.0000
  C   C2        1.0  0.07295443188634469  0.22083673100687654  0.3224376885861488  1.0000
  C   C3        1.0  0.5729551251934879  0.27916215955490736  0.1775619573460219  1.0000
  C   C4        1.0  0.9270450745913974  0.7791640198380417  0.6775629429062346  1.0000
  C   C5        1.0  0.44829505957205384  0.703903817752483  0.9059384996733469  1.0000
  C   C6        1.0  0.05170585779247721  0.20390382866968795  0.4059385413489095  1.0000
  C   C7        1.0  0.551705557942121  0.2960950908458315  0.09406053120136448  1.0000
  C   C8        1.0  0.9482936486857839  0.7960969206263894  0.5940614991999806  1.0000
  C   C9        1.0  0.354549441833548  0.6204386844668334  0.9254833656613497  1.0000
  C   C10       1.0  0.14545380469283486  0.12043763968969046  0.4254825295499599  1.0000
  C   C11       1.0  0.6454533977455696  0.3795611468016275  0.07451705646453625  1.0000
  C   C12       1.0  0.854544590752397  0.8795621915819536  0.5745178925777663  1.0000
  C   C13       1.0  0.3633285426805273  0.6022803900008353  0.002514977890932358  1.0000
  C   C14       1.0  0.13667325493796775  0.10228017626532451  0.5025151835812736  1.0000
  C   C15       1.0  0.6366731858665985  0.39771852014551706  0.9974846439268104  1.0000
  C   C16       1.0  0.8633262515397746  0.8977205745795942  0.4974854479111101  1.0000
  C   C17       1.0  0.4651802041547342  0.6699456539462004  0.0625741152528718  1.0000
  C   C18       1.0  0.0348213734171452  0.1699446637449283  0.56257301386794  1.0000
  C   C19       1.0  0.5348226354238719  0.3300541788710945  0.9374268978165076  1.0000
  C   C20       1.0  0.9651781330605972  0.8300560870999901  0.43742761762443644  1.0000
  C   C21       1.0  0.5583291941021642  0.7544559727148651  0.045229746685819736  1.0000
  C   C22       1.0  0.9416701687785577  0.25445531961239715  0.5452291093626798  1.0000
  C   C23       1.0  0.4416714234109733  0.24554293898111715  0.9547704660758781  1.0000
  C   C24       1.0  0.05832711563319751  0.7455445116600498  0.45477131276550137  1.0000
  C   C25       1.0  0.5516599477003367  0.7716552864567418  0.9669799265310673  1.0000
  C   C26       1.0  0.9483419788830929  0.27165472646339583  0.46697904945806806  1.0000
  C   C27       1.0  0.44834289187974713  0.22834362523764895  0.03302028622970709  1.0000
  C   C28       1.0  0.0516564165626576  0.7283451032594143  0.5330207817261651  1.0000
  C   C29       1.0  0.6991947777041363  0.9521663625519137  0.0005653890300934028  1.0000
  C   C30       1.0  0.800805439662689  0.45216591320711785  0.5005654590704437  1.0000
  C   C31       1.0  0.3008047287761287  0.0478334640724256  0.9994332602666913  1.0000
  C   C32       1.0  0.1991951778495604  0.5478348345393227  0.4994339905344915  1.0000
  C   C33       1.0  0.8082726468829052  0.022253931827158596  0.9710552088469554  1.0000
  C   C34       1.0  0.691727472993705  0.5222516331688354  0.4710545168826953  1.0000
  C   C35       1.0  0.19172685959491534  0.9777477354941481  0.028944450123546482  1.0000
  C   C36       1.0  0.30827203348648174  0.47774727697910885  0.528945104935971  1.0000
  C   C37       1.0  0.8692413467263123  0.13174308887930414  0.0243898391363331  1.0000
  C   C38       1.0  0.6307582606214481  0.6317416946301222  0.5243896411627489  1.0000
  C   C39       1.0  0.1307581597529861  0.8682576573190984  0.9756090195255637  1.0000
  C   C40       1.0  0.36924013482430246  0.3682581350926882  0.4756101900214843  1.0000
  C   C41       1.0  0.9720010420581742  0.19407692667601134  0.991506594380141  1.0000
  C   C42       1.0  0.52799763980164  0.6940748645960751  0.49150662867559447  1.0000
  C   C43       1.0  0.0279962423536659  0.8059238210728236  0.00849285522616578  1.0000
  C   C44       1.0  0.47200186667951266  0.30592312597780585  0.5084927837779532  1.0000
  C   C45       1.0  0.0100283802791523  0.14496792872350278  0.9071038399804292  1.0000
  C   C46       1.0  0.4899715238487375  0.6449679653109612  0.40710530245391385  1.0000
  C   C47       1.0  0.9899711262001464  0.8550328174748998  0.09289501868146742  1.0000
  C   C48       1.0  0.510029093663441  0.35503186595909136  0.5928951196728889  1.0000
  C   C49       1.0  0.9458175691936077  0.0337706084946561  0.8579757730740736  1.0000
  C   C50       1.0  0.5541827296490356  0.5337694284018254  0.35797599509427147  1.0000
  C   C51       1.0  0.054181937285697805  0.9662301377037465  0.14202308558782312  1.0000
  C   C52       1.0  0.44581677682966614  0.46623040286903006  0.642024427032993  1.0000
  C   C53       1.0  0.8408800930155494  0.5485262453693025  0.7767348683814176  1.0000
  C   C54       1.0  0.6591214344562033  0.04852610519192521  0.27673600316911257  1.0000
  C   C55       1.0  0.15912052449914435  0.4514726616801708  0.22326357154979343  1.0000
  C   C56       1.0  0.34088029408892606  0.9514737276261723  0.7232650099007356  1.0000
  C   C57       1.0  0.9348469344984169  0.4430836678235933  0.7935745264934437  1.0000
  C   C58       1.0  0.5651538949946513  0.9430833946540174  0.29357613069868893  1.0000
  C   C59       1.0  0.065153683014799  0.5569161603487842  0.20642471374637947  1.0000
  C   C60       1.0  0.4348445004490955  0.0569173577405309  0.7064250917376427  1.0000
  N   N1        1.0  0.6491230865331731  0.8519018045086354  0.9470134989683884  1.0000
  N   N2        1.0  0.8508776281163861  0.35190046639713296  0.4470130840240428  1.0000
  N   N3        1.0  0.350877530979524  0.1480980252125761  0.05298633221492819  1.0000
  N   N4        1.0  0.14912076732884572  0.648099364874518  0.5529873381036834  1.0000
  N   N5        1.0  0.8474069558752363  0.9738439612255262  0.8889987669346835  1.0000
  N   N6        1.0  0.6525936540188227  0.4738429092950723  0.3889991068083701  1.0000
  N   N7        1.0  0.1525914395705925  0.026156784973672104  0.11100009172767497  1.0000
  N   N8        1.0  0.3474069634933485  0.52615692197498  0.6110013153184395  1.0000
  Cl  Cl1       1.0  0.9853866152700165  0.47480048269841985  0.9006616388388833  1.0000
  Cl  Cl2       1.0  0.5146161945945452  0.9748039588234505  0.40066353132949917  1.0000
  Cl  Cl3       1.0  0.0146128912120957  0.5251965883013979  0.09933756424955215  1.0000
  Cl  Cl4       1.0  0.48538553394962497  0.025196793568710497  0.5993376911054611  1.0000
  Cl  Cl5       1.0  0.1012296981882983  0.42715374275230306  0.7335617983577334  1.0000
  Cl  Cl6       1.0  0.3987700324887129  0.9271548313802708  0.23356413651450933  1.0000
  Cl  Cl7       1.0  0.8987686972589373  0.5728451658476031  0.26643723251789436  1.0000
  Cl  Cl8       1.0  0.6012294739874732  0.0728459241111565  0.7664382678083539  1.0000
  Cl  Cl9       1.0  0.8309887836153608  0.3030532663500764  0.7611531651360579  1.0000
  Cl  Cl10      1.0  0.6690112289748669  0.8030546832431182  0.2611551022368416  1.0000
  Cl  Cl11      1.0  0.1690085007954352  0.6969474844964337  0.23884746635724236  1.0000
  Cl  Cl12      1.0  0.33098827750131216  0.19694607224830918  0.7388473020860218  1.0000
  O   O1        1.0  0.5301316236682467  0.7574083082628748  0.7852455019338861  1.0000
  O   O2        1.0  0.9698695350027009  0.2574049586444501  0.28524397897348297  1.0000
  O   O3        1.0  0.4698678828085363  0.24259336215610716  0.21475533892360227  1.0000
  O   O4        1.0  0.0301310825105148  0.7425948695279274  0.7147552612663404  1.0000
  O   O5        1.0  0.2974223795616808  0.6928735712612735  0.7908458300771527  1.0000
  O   O6        1.0  0.20257875850482074  0.19287060533287098  0.29084452802295147  1.0000
  O   O7        1.0  0.7025782379500498  0.3071271780340083  0.20915421047127575  1.0000
  O   O8        1.0  0.7974218590088427  0.8071283048142842  0.7091550937952531  1.0000
  O   O9        1.0  0.8389900856463726  0.6496482176740627  0.8380122753232937  1.0000
  O   O10       1.0  0.6610133850288945  0.1496462340852531  0.33801239887444  1.0000
  O   O11       1.0  0.16101275393134531  0.35035345119369043  0.16198797458932288  1.0000
  O   O12       1.0  0.3389894545506635  0.8503526791579784  0.6619884048298272  1.0000
  O   O13       1.0  0.7836997293753073  0.5210852775898471  0.7063195308305124  1.0000
  O   O14       1.0  0.7163008571456543  0.0210841357579241  0.2063204089959711  1.0000
  O   O15       1.0  0.2162997771043607  0.47891363410693794  0.29368068193164015  1.0000
  O   O16       1.0  0.2836997603674902  0.9789147759380654  0.7936798037657268  1.0000
