data_image0
_chemical_formula_structural       Cd4H48C24S8N40
_chemical_formula_sum              "Cd4 H48 C24 S8 N40"
_cell_length_a       6.710894283282577
_cell_length_b       13.302433483876026
_cell_length_c       15.70240548531915
_cell_angle_alpha    107.3756078577347
_cell_angle_beta     89.98457001522785
_cell_angle_gamma    104.62803130593127

_space_group_name_H-M_alt    "P 1"
_space_group_IT_number       1

loop_
  _space_group_symop_operation_xyz
  'x, y, z'

loop_
  _atom_site_type_symbol
  _atom_site_label
  _atom_site_symmetry_multiplicity
  _atom_site_fract_x
  _atom_site_fract_y
  _atom_site_fract_z
  _atom_site_occupancy
  Cd  Cd1       1.0  0.8781965896685834  0.24887917233380116  0.37414428065658706  1.0000
  Cd  Cd2       1.0  0.6291357535241033  0.7511027494321212  0.12581909389773932  1.0000
  Cd  Cd3       1.0  0.12180402018672248  0.7511201679804387  0.6258573729591106  1.0000
  Cd  Cd4       1.0  0.3708773376775127  0.24890068864758774  0.8741810610678655  1.0000
  H   H1        1.0  0.10798422699719612  0.4164212766446622  0.2932907644532321  1.0000
  H   H2        1.0  0.6914221921990773  0.5835231134570762  0.2066484506714659  1.0000
  H   H3        1.0  0.8920154564219874  0.5835821671241704  0.7067081190426663  1.0000
  H   H4        1.0  0.30857123871690834  0.4164737893099614  0.7933500316815196  1.0000
  H   H5        1.0  0.7282311773186265  0.31805947741857216  0.06587583343777942  1.0000
  H   H6        1.0  0.41031312422934024  0.6820125914045222  0.4341720350899152  1.0000
  H   H7        1.0  0.27176157315444266  0.6819390456182219  0.9341256113200558  1.0000
  H   H8        1.0  0.5896849249521098  0.31798758525928156  0.5658260117678324  1.0000
  H   H9        1.0  0.731985986721149  0.027313021838835997  0.4348646524163584  1.0000
  H   H10       1.0  0.7048409157443842  0.972703390370981  0.0652638319417918  1.0000
  H   H11       1.0  0.26800933182299497  0.9726846780309159  0.5651378550739921  1.0000
  H   H12       1.0  0.2951744808913547  0.027301678065853704  0.9347373772889113  1.0000
  H   H13       1.0  0.9674184616737166  0.18014665746843417  0.6951163519510999  1.0000
  H   H14       1.0  0.7867921446259131  0.8199484164070371  0.8048727371447768  1.0000
  H   H15       1.0  0.032587030933321146  0.8198535065140361  0.3048842386304074  1.0000
  H   H16       1.0  0.21321036765199614  0.1800517473749608  0.195127853557409  1.0000
  H   H17       1.0  0.3000519530374818  0.5159532438951189  0.1808530618796595  1.0000
  H   H18       1.0  0.7843208177183457  0.4842500632109223  0.3192086178099345  1.0000
  H   H19       1.0  0.6999424483170673  0.48404857590738004  0.8191434954590945  1.0000
  H   H20       1.0  0.21566840534091367  0.5157443857312386  0.6807898731914719  1.0000
  H   H21       1.0  0.1056904846308129  0.5750699273041987  0.23633054572181317  1.0000
  H   H22       1.0  0.5308311354931661  0.4249690804488965  0.2637588464377885  1.0000
  H   H23       1.0  0.8943030977555682  0.4249302556501533  0.7636662293042206  1.0000
  H   H24       1.0  0.469156336613878  0.5750278252128211  0.7362390001501851  1.0000
  H   H25       1.0  0.9343274813507919  0.5180082112858173  0.08793655279007599  1.0000
  H   H26       1.0  0.4162700338722944  0.48204795783162535  0.41208417835578365  1.0000
  H   H27       1.0  0.06565823610543485  0.48199114450419256  0.912061921397175  1.0000
  H   H28       1.0  0.583722052801612  0.5179522151356012  0.5879145047496692  1.0000
  H   H29       1.0  0.08956468938920634  0.4259652709187519  0.04495721564232009  1.0000
  H   H30       1.0  0.6635617289814348  0.5741250822678411  0.4550972012636408  1.0000
  H   H31       1.0  0.910424012094751  0.5740340916630019  0.9550399864115419  1.0000
  H   H32       1.0  0.3364299491330343  0.42587427392312094  0.5449012726822673  1.0000
  H   H33       1.0  0.8118367831574461  0.8901318507624582  0.507933567440233  1.0000
  H   H34       1.0  0.9216236149089809  0.10999234638822489  0.9921641634823428  1.0000
  H   H35       1.0  0.1881608389715197  0.10986747616878739  0.492070630321578  1.0000
  H   H36       1.0  0.07839719899891413  0.8900086551466515  0.00783281961720666  1.0000
  H   H37       1.0  0.5599682216644838  0.9026323108466415  0.5326324457896376  1.0000
  H   H38       1.0  0.6571709890800508  0.0973618391574718  0.967572590977717  1.0000
  H   H39       1.0  0.44002791029991783  0.09736701598436072  0.4673717520325056  1.0000
  H   H40       1.0  0.34285144981905813  0.902642413004294  0.03242840879177325  1.0000
  H   H41       1.0  0.6714385633452908  0.0144862951482878  0.6820092090598351  1.0000
  H   H42       1.0  0.656869849133102  0.9857683573516312  0.8181306687807604  1.0000
  H   H43       1.0  0.3285611071287633  0.9855171255511408  0.3179941264805777  1.0000
  H   H44       1.0  0.3431307607222108  0.014230982962608602  0.1818709848349371  1.0000
  H   H45       1.0  0.9023734098240866  0.96984985028562  0.6654076968274084  1.0000
  H   H46       1.0  0.9324533275595785  0.030259086794160298  0.834685370199459  1.0000
  H   H47       1.0  0.09762313254906019  0.030150296617272  0.33459607414791037  1.0000
  H   H48       1.0  0.06754648182060656  0.9697386496282334  0.1653101410399316  1.0000
  C   C1        1.0  0.892191312149791  0.33831353448198337  0.1848702110870803  1.0000
  C   C2        1.0  0.5539763182775134  0.6617220611144461  0.31514928783220597  1.0000
  C   C3        1.0  0.10780714189247938  0.6616874523668131  0.8151293169429293  1.0000
  C   C4        1.0  0.44602132234449954  0.3382772987730931  0.684848549866004  1.0000
  C   C5        1.0  0.13527392732845564  0.5000850616170069  0.1913041392978769  1.0000
  C   C6        1.0  0.6353342516406643  0.4999958332864126  0.3087500305366362  1.0000
  C   C7        1.0  0.8647183089665377  0.49991838824189483  0.8086934724869792  1.0000
  C   C8        1.0  0.36465552590050276  0.5000027027324236  0.6912488703164285  1.0000
  C   C9        1.0  0.0020096756811867314  0.45701230780272795  0.10150025281829042  1.0000
  C   C10       1.0  0.5450656781093528  0.5430700276197343  0.39853980282227036  1.0000
  C   C11       1.0  0.9979752228068719  0.5429854111391421  0.8984984390562474  1.0000
  C   C12       1.0  0.45492409758251295  0.4569285051034768  0.6014597340371566  1.0000
  C   C13       1.0  0.8675166248324758  0.1323243476101794  0.5591025770944356  1.0000
  C   C14       1.0  0.7350596255772576  0.8677284260607154  0.9409321940844533  1.0000
  C   C15       1.0  0.13248290156840178  0.8676758060844564  0.44089992174749426  1.0000
  C   C16       1.0  0.2649500748865066  0.1322741917466317  0.0590683878486402  1.0000
  C   C17       1.0  0.723145280665982  0.9480188910234802  0.5405569937283232  1.0000
  C   C18       1.0  0.775070094171106  0.052062308622602416  0.959585971571144  1.0000
  C   C19       1.0  0.276852341462984  0.051980435907765396  0.4594472040334877  1.0000
  C   C20       1.0  0.2249459792089399  0.9479411329532117  0.04041354726743421  1.0000
  C   C21       1.0  0.8008678860429299  0.0087337653338082  0.6394700936386499  1.0000
  C   C22       1.0  0.7919964872348118  0.9913948888707653  0.860631161771728  1.0000
  C   C23       1.0  0.19913014649477398  0.9912663816693199  0.3605336772763367  1.0000
  C   C24       1.0  0.20801239980868763  0.008606101975324498  0.13936772982957277  1.0000
  S   S1        1.0  0.7485477763543288  0.2287909617278956  0.21127574871108118  1.0000
  S   S2        1.0  0.5198289538615982  0.7712041443989648  0.28873281546199786  1.0000
  S   S3        1.0  0.2514583892983993  0.7712075688022964  0.7887244234910253  1.0000
  S   S4        1.0  0.4801742370099192  0.2287943958176442  0.7112654488417007  1.0000
  S   S5        1.0  0.9490027474610514  0.2558829954548331  0.5404903140851899  1.0000
  S   S6        1.0  0.6930556358661376  0.7441490152434084  0.9594852758979471  1.0000
  S   S7        1.0  0.05099298149183798  0.7441155244868085  0.45951176655833587  1.0000
  S   S8        1.0  0.3069491873938048  0.2558527887825974  0.040514461050257515  1.0000
  N   N1        1.0  0.0687347340280908  0.40921454254404216  0.22870037734652732  1.0000
  N   N2        1.0  0.6596030562527133  0.5908180314121269  0.2712935456044292  1.0000
  N   N3        1.0  0.9312622335482319  0.5907864507957755  0.7712978787310901  1.0000
  N   N4        1.0  0.3403935027641794  0.40918214515143364  0.7287045013136577  1.0000
  N   N5        1.0  0.8406749058223397  0.36726469904476733  0.1147774037732177  1.0000
  N   N6        1.0  0.4735360182428536  0.6328044253755963  0.38527103518405426  1.0000
  N   N7        1.0  0.15931934036321146  0.6327338339791525  0.8852221329052057  1.0000
  N   N8        1.0  0.5264601303652938  0.3671949311160816  0.61472743858085  1.0000
  N   N9        1.0  0.754830960969791  0.03792904726065419  0.5019747550248397  1.0000
  N   N10       1.0  0.7170129505908491  0.9621235147511485  0.9981452030407495  1.0000
  N   N11       1.0  0.2451651746932201  0.9620702861616126  0.49802817078457917  1.0000
  N   N12       1.0  0.2830031209398882  0.0378799235290401  0.0018549518041766002  1.0000
  N   N13       1.0  0.9127188243949148  0.11747115524443792  0.6369719932164272  1.0000
  N   N14       1.0  0.7947995506063634  0.8826011033588018  0.8630279582998099  1.0000
  N   N15       1.0  0.08728137505165282  0.8825273649979195  0.3630300872460949  1.0000
  N   N16       1.0  0.20520784442327064  0.11739988409142649  0.13697156936818536  1.0000
  N   N17       1.0  0.7283861155701601  0.05403653713298702  0.3260665122625568  1.0000
  N   N18       1.0  0.674318974920368  0.9459745270511349  0.17402117653078625  1.0000
  N   N19       1.0  0.27161503397262277  0.9459668638928919  0.6739406392556759  1.0000
  N   N20       1.0  0.3256838107094495  0.05403214437540531  0.825986175619235  1.0000
  N   N21       1.0  0.7028203500736511  0.9999946549729801  0.250036439077519  1.0000
  N   N22       1.0  0.29717608841627213  0.9999982548779658  0.7499538612670092  1.0000
  N   N23       1.0  0.0340600669135966  0.4427553816313292  0.43093379951763205  1.0000
  N   N24       1.0  0.5909849257078649  0.5571798416283471  0.0691494173246596  1.0000
  N   N25       1.0  0.9659347208087256  0.5572472153998619  0.5690705990569641  1.0000
  N   N26       1.0  0.40901461918605964  0.4428203450225822  0.9308467214536832  1.0000
  N   N27       1.0  2.7875054371708704e-06  0.49999358129927185  0.4999927801098779  1.0000
  N   N28       1.0  0.5000051711132443  0.5000040450295699  2.8233693357098875e-06  1.0000
  N   N29       1.0  0.22323853150872003  0.2432541788274278  0.3263558474234003  1.0000
  N   N30       1.0  0.9799516975773487  0.7569464639124206  0.17354799555292297  1.0000
  N   N31       1.0  0.7767593625037253  0.756742711057797  0.6736451787740236  1.0000
  N   N32       1.0  0.020060177192490918  0.24305454031666335  0.8264483519022718  1.0000
  N   N33       1.0  0.3801938539586729  0.2642184537549852  0.37116942414351684  1.0000
  N   N34       1.0  0.11590965516708708  0.7358290743449629  0.12877295250903836  1.0000
  N   N35       1.0  0.6198078393510614  0.735780073178866  0.628831384245956  1.0000
  N   N36       1.0  0.8840866319663193  0.26417353926461834  0.8712282659734285  1.0000
  N   N37       1.0  0.5366767205418411  0.28599523003765637  0.4152695940411775  1.0000
  N   N38       1.0  0.25061666609011013  0.713919604172702  0.08469268265714198  1.0000
  N   N39       1.0  0.4633224046968182  0.7140041200632297  0.5847301516157799  1.0000
  N   N40       1.0  0.7493939830014329  0.2860789497276102  0.9153030373194467  1.0000
