data_image0
_chemical_formula_structural       Cd2H28C28N4O10
_chemical_formula_sum              "Cd2 H28 C28 N4 O10"
_cell_length_a       7.428373219470139
_cell_length_b       8.166708419115608
_cell_length_c       12.719507036084103
_cell_angle_alpha    110.3021152017834
_cell_angle_beta     92.31237026139202
_cell_angle_gamma    99.10477754259799

_space_group_name_H-M_alt    "P 1"
_space_group_IT_number       1

loop_
  _space_group_symop_operation_xyz
  'x, y, z'

loop_
  _atom_site_type_symbol
  _atom_site_label
  _atom_site_symmetry_multiplicity
  _atom_site_fract_x
  _atom_site_fract_y
  _atom_site_fract_z
  _atom_site_occupancy
  Cd  Cd1       1.0  0.04522346421021691  0.06523650829500842  0.2319904496254707  1.0000
  Cd  Cd2       1.0  0.9547716026111885  0.9347555778564217  0.7680084177562418  1.0000
  H   H1        1.0  0.6878093343996667  0.9161676053408742  0.15780484127731131  1.0000
  H   H2        1.0  0.31219051514859325  0.08383502742073291  0.8421947866400283  1.0000
  H   H3        1.0  0.7815793049653053  0.8985262366620007  0.04116547781566028  1.0000
  H   H4        1.0  0.2184208559857836  0.10147115485606413  0.9588354117033755  1.0000
  H   H5        1.0  0.8983327625327819  0.9525410676553323  0.532630878353764  1.0000
  H   H6        1.0  0.1016660345282716  0.047456253524664815  0.46736760577859104  1.0000
  H   H7        1.0  0.5169297318097819  0.7269273895719978  0.6943187054652851  1.0000
  H   H8        1.0  0.4830703638465437  0.27308327599219245  0.30568419387265056  1.0000
  H   H9        1.0  0.36488548724738484  0.6980179699301132  0.35629846123478587  1.0000
  H   H10       1.0  0.6351087016466435  0.30199008433476143  0.6437037513754756  1.0000
  H   H11       1.0  0.21789268184582514  0.5569954235506815  0.5997119296483786  1.0000
  H   H12       1.0  0.7821044666828028  0.44301396351749395  0.4002914185516814  1.0000
  H   H13       1.0  0.17363742440930713  0.5002976744931333  0.4506548073890712  1.0000
  H   H14       1.0  0.8263629701429239  0.4997076955202148  0.5493477690986379  1.0000
  H   H15       1.0  0.129577948622881  0.703478757154791  0.5450784448153738  1.0000
  H   H16       1.0  0.8704162340176964  0.2965292699564445  0.4549229755689267  1.0000
  H   H17       1.0  0.04983344542951326  0.6774533385773722  0.2508477806771338  1.0000
  H   H18       1.0  0.950171287914486  0.32253994330204705  0.7491499891604645  1.0000
  H   H19       1.0  0.25034229482034226  0.9024536547108044  0.022159834781270083  1.0000
  H   H20       1.0  0.7496616258910435  0.09754232123593452  0.9778392704659847  1.0000
  H   H21       1.0  0.2993328443485979  0.36390179154467006  0.9678323556317063  1.0000
  H   H22       1.0  0.7006659822331116  0.6360888790354411  0.032164727478225096  1.0000
  H   H23       1.0  0.40799333642544167  0.49231826675642065  0.831866075267079  1.0000
  H   H24       1.0  0.5920094897711722  0.5076789939013013  0.16813170276569872  1.0000
  H   H25       1.0  0.48366394032413507  0.7276817457653524  0.8866404593283188  1.0000
  H   H26       1.0  0.5163383846426868  0.27231296771615393  0.11335991571581869  1.0000
  H   H27       1.0  0.2624662862913211  0.6368948070680817  0.813213464437204  1.0000
  H   H28       1.0  0.7375376281666135  0.36310114172501085  0.1867848485840894  1.0000
  C   C1        1.0  0.6379289035749949  0.8304681306817301  0.43114470624497847  1.0000
  C   C2        1.0  0.3620733623505147  0.16953988399955486  0.568858470844013  1.0000
  C   C3        1.0  0.7604243023145685  0.8804131761019466  0.5277407392925679  1.0000
  C   C4        1.0  0.2395726188663687  0.11958825962459234  0.47226171416477297  1.0000
  C   C5        1.0  0.5470944019594128  0.7550536094069358  0.6183604620512424  1.0000
  C   C6        1.0  0.45289818493660045  0.2449531552390597  0.3816422281299408  1.0000
  C   C7        1.0  0.4132159856869961  0.7009583436570495  0.5264680020696841  1.0000
  C   C8        1.0  0.5867806303445775  0.2990483604666778  0.473533982011922  1.0000
  C   C9        1.0  0.4626874361185216  0.7387724632293527  0.4309596230362585  1.0000
  C   C10       1.0  0.5373089167912468  0.2612329129989703  0.569042075099105  1.0000
  C   C11       1.0  0.22410372677529722  0.6087860684093799  0.5308383293356298  1.0000
  C   C12       1.0  0.775890198996933  0.3912206579600977  0.46916359732838925  1.0000
  C   C13       1.0  0.6994447570146036  0.8789046415463562  0.3323561563103821  1.0000
  C   C14       1.0  0.3005575089109058  0.12110337313492893  0.6676470207786093  1.0000
  C   C15       1.0  0.1735465359593462  0.5016632143087209  0.11562619986718654  1.0000
  C   C16       1.0  0.826453086241223  0.4983314671112425  0.8843725333074414  1.0000
  C   C17       1.0  0.11926502974039006  0.6620164711528602  0.1749829545569027  1.0000
  C   C18       1.0  0.8807332160632342  0.3379780856217351  0.8250117887791215  1.0000
  C   C19       1.0  0.23008580974610737  0.7863288374764181  0.04665175868726824  1.0000
  C   C20       1.0  0.7699224157295462  0.21366846015074975  0.9533485108585817  1.0000
  C   C21       1.0  0.2851960460362264  0.6304510546632188  0.9796794504702214  1.0000
  C   C22       1.0  0.7148076115533613  0.36954359338811577  0.020319368830783387  1.0000
  C   C23       1.0  0.25683289051862357  0.487317311015211  0.01683520494350428  1.0000
  C   C24       1.0  0.7431750718352319  0.5126786587165598  0.983164778656096  1.0000
  C   C25       1.0  0.13761068884215893  0.3487924994597123  0.15605909377030255  1.0000
  C   C26       1.0  0.8623913667494064  0.651200858972743  0.8439402031016241  1.0000
  C   C27       1.0  0.36512378126269607  0.6203239347868321  0.8717031087285956  1.0000
  C   C28       1.0  0.6348774429358955  0.37967203625201773  0.12829514687510366  1.0000
  N   N1        1.0  0.7172287022964882  0.8419158044536916  0.6189564773714762  1.0000
  N   N2        1.0  0.28276846949934503  0.15808690486095145  0.38104467758019195  1.0000
  N   N3        1.0  0.14769860482381605  0.8012684504092181  0.14078163322733414  1.0000
  N   N4        1.0  0.8523055727559238  0.19872882627927885  0.859216965740202  1.0000
  O   O1        1.0  0.862347958828302  0.9695256520748786  0.34841997733882096  1.0000
  O   O2        1.0  0.13765265507155533  0.030480855758341405  0.6515773395134017  1.0000
  O   O3        1.0  0.5902730620036749  0.828827412503621  0.24378469496694052  1.0000
  O   O4        1.0  0.40972520430693754  0.17117401210004604  0.7562177871992045  1.0000
  O   O5        1.0  0.06484417690747789  0.3703478956494024  0.24764638276491968  1.0000
  O   O6        1.0  0.9351581543128021  0.6296468449857572  0.7523547845051791  1.0000
  O   O7        1.0  0.18057992689230667  0.20056687014695743  0.09702506313245605  1.0000
  O   O8        1.0  0.8194213098131937  0.7994291551991781  0.902974776923173  1.0000
  O   O9        1.0  0.7680048275538666  0.9824967982810693  0.11748603967562586  1.0000
  O   O10       1.0  0.23199558401211115  0.017501866825099903  0.8825135513377302  1.0000
