data_image0
_chemical_formula_structural       Zn16H132C180N12O52
_chemical_formula_sum              "Zn16 H132 C180 N12 O52"
_cell_length_a       19.211490219136817
_cell_length_b       19.21148761782107
_cell_length_c       25.210349927175074
_cell_angle_alpha    67.5930337789275
_cell_angle_beta     67.59301950558513
_cell_angle_gamma    59.98618037122604

_space_group_name_H-M_alt    "P 1"
_space_group_IT_number       1

loop_
  _space_group_symop_operation_xyz
  'x, y, z'

loop_
  _atom_site_type_symbol
  _atom_site_label
  _atom_site_symmetry_multiplicity
  _atom_site_fract_x
  _atom_site_fract_y
  _atom_site_fract_z
  _atom_site_occupancy
  Zn  Zn1       1.0  0.7471477453365695  0.5594097419508443  0.0023420926548424663  1.0000
  Zn  Zn2       1.0  0.0646423451374218  0.13415371578104643  0.5457285073594492  1.0000
  Zn  Zn3       1.0  0.5594349654163296  0.6910269424957676  0.0024533679774094677  1.0000
  Zn  Zn4       1.0  0.1340435523794099  0.25553811628588363  0.545843667563446  1.0000
  Zn  Zn5       1.0  0.6911322265316429  0.747009123009903  0.0024027434135191696  1.0000
  Zn  Zn6       1.0  0.2555949455325646  0.06476366462099747  0.5457503364211931  1.0000
  Zn  Zn7       1.0  0.6273983329402595  0.6273847198822867  0.11784313548944425  1.0000
  Zn  Zn8       1.0  0.18932407048709618  0.1893719768730194  0.43209256774512994  1.0000
  Zn  Zn9       1.0  0.3089754795838004  0.440564224221312  0.9975458133066651  1.0000
  Zn  Zn10      1.0  0.7444643677173631  0.8659544584322914  0.45415821724549943  1.0000
  Zn  Zn11      1.0  0.2529910157356667  0.30886763298200043  0.9975965020270436  1.0000
  Zn  Zn12      1.0  0.9352395572266589  0.7444069929293989  0.45424738209038656  1.0000
  Zn  Zn13      1.0  0.4405899851465094  0.25285422051621964  0.9976582206541736  1.0000
  Zn  Zn14      1.0  0.8658440770682605  0.9353587618840465  0.4542726454530238  1.0000
  Zn  Zn15      1.0  0.3726178615609895  0.3726023459268008  0.8821571391110795  1.0000
  Zn  Zn16      1.0  0.810629607379333  0.8106731308960635  0.5679082141352508  1.0000
  H   H1        1.0  0.8323180152598155  0.3051303267444895  0.09657285415819686  1.0000
  H   H2        1.0  0.9025489856907426  0.16813442099173406  0.1591223710351742  1.0000
  H   H3        1.0  0.8456663935473969  0.2870697354160186  0.29458634132420514  1.0000
  H   H4        1.0  0.7663136196518535  0.4213828366240976  0.2342632601505557  1.0000
  H   H5        1.0  0.8798920950705735  0.07017191923312532  0.2512872271640063  1.0000
  H   H6        1.0  0.9464611410356201  0.016544699877513707  0.3009917185655057  1.0000
  H   H7        1.0  0.9889181712905496  0.04365189935990096  0.22363469706935046  1.0000
  H   H8        1.0  0.9509614347365627  0.0842735629435437  0.45425953644304684  1.0000
  H   H9        1.0  0.8885279687042528  0.0818246036820155  0.38493964093341765  1.0000
  H   H10       1.0  0.031668875398089796  0.20074869191844874  0.23867348744215633  1.0000
  H   H11       1.0  0.0934128295577423  0.20414384840960048  0.30825752525837663  1.0000
  H   H12       1.0  0.28340164389399547  0.8263811613203986  0.6517255419635218  1.0000
  H   H13       1.0  0.2775133973333297  0.6962203981507784  0.7184211626926356  1.0000
  H   H14       1.0  0.0227336754999712  0.7903049697311888  0.7139780299613604  1.0000
  H   H15       1.0  0.0285039667295379  0.9222260209316177  0.6491433782481549  1.0000
  H   H16       1.0  0.27095858567586356  0.5933142216618992  0.7201253849948017  1.0000
  H   H17       1.0  0.210471791933216  0.5361308547669809  0.7497365399148849  1.0000
  H   H18       1.0  0.24305545752781646  0.5552288257448695  0.7982169736900104  1.0000
  H   H19       1.0  0.9806706639928179  0.5236155077832125  0.8832266463529878  1.0000
  H   H20       1.0  0.10527470760881391  0.528458070987611  0.8065248515247844  1.0000
  H   H21       1.0  0.0288524942728969  0.7783788419345825  0.81441866723042  1.0000
  H   H22       1.0  0.90293895388794  0.772165161698034  0.8908976334289918  1.0000
  H   H23       1.0  0.3051566691226455  0.7655780387900537  0.09647094534881961  1.0000
  H   H24       1.0  0.1681756018648599  0.7698460261565359  0.15907166305812834  1.0000
  H   H25       1.0  0.28713552026255224  0.5727466886964335  0.2947069317299693  1.0000
  H   H26       1.0  0.42142186623947  0.5781557059458465  0.23434802257870052  1.0000
  H   H27       1.0  0.070262551550222  0.7988888567727344  0.25114267126758705  1.0000
  H   H28       1.0  0.016489843952214808  0.7363844396065318  0.3008655035722967  1.0000
  H   H29       1.0  0.0439395429582348  0.7438589801662802  0.2235420912820203  1.0000
  H   H30       1.0  0.0841986649808533  0.5105841961782575  0.45442772561097666  1.0000
  H   H31       1.0  0.0818580050822675  0.64485405805047  0.3851779251651521  1.0000
  H   H32       1.0  0.20033851513267106  0.5292983160385418  0.23879392149247275  1.0000
  H   H33       1.0  0.2036683107938231  0.39453863444527576  0.3082869244305328  1.0000
  H   H34       1.0  0.8262895509246276  0.23866331097771357  0.651859751603489  1.0000
  H   H35       1.0  0.6961274909481077  0.30795504526609824  0.7185645987975134  1.0000
  H   H36       1.0  0.7900859848897852  0.47318686614626404  0.7140931127836583  1.0000
  H   H37       1.0  0.9220152983690468  0.400416720246568  0.6492255523938795  1.0000
  H   H38       1.0  0.593238667480918  0.4157576254119135  0.7202117136353151  1.0000
  H   H39       1.0  0.535959210076058  0.5038243852919493  0.7498143889230703  1.0000
  H   H40       1.0  0.5550813920898675  0.4036259979147234  0.7982866352001848  1.0000
  H   H41       1.0  0.5234412706621754  0.6126788157023312  0.883349899632975  1.0000
  H   H42       1.0  0.5282984633134902  0.5599641314398199  0.8066099669031387  1.0000
  H   H43       1.0  0.7782133907182998  0.3784924170778081  0.8145081631580952  1.0000
  H   H44       1.0  0.7719972547922112  0.43420522169152054  0.890955311538079  1.0000
  H   H45       1.0  0.7657945201991935  0.8323818354576393  0.09649270196265289  1.0000
  H   H46       1.0  0.770082745973383  0.902591929950418  0.15900661980382583  1.0000
  H   H47       1.0  0.5727668867248993  0.8455421463173352  0.29464119062649274  1.0000
  H   H48       1.0  0.5780276108131018  0.7661927968810504  0.23435246620699246  1.0000
  H   H49       1.0  0.798863389456713  0.8795290631590902  0.25126168862082215  1.0000
  H   H50       1.0  0.7362622404012314  0.9461213360341886  0.300953777603759  1.0000
  H   H51       1.0  0.7440164933408583  0.9885538001654977  0.2236122396680004  1.0000
  H   H52       1.0  0.5106233045633032  0.9509818640284778  0.45424288258929846  1.0000
  H   H53       1.0  0.6448222897772524  0.888248436237902  0.38500108489993323  1.0000
  H   H54       1.0  0.5291402080290909  0.031472209229022545  0.23868955275119666  1.0000
  H   H55       1.0  0.39439488430633673  0.09347860069573949  0.30819873095247635  1.0000
  H   H56       1.0  0.2387861355324858  0.2832927500342776  0.6517508065308987  1.0000
  H   H57       1.0  0.3080378684688725  0.2773415551998824  0.7185190270950272  1.0000
  H   H58       1.0  0.4731361630180828  0.02249111148723407  0.7141369180116754  1.0000
  H   H59       1.0  0.4002699000896898  0.028297193602867286  0.6493055642714013  1.0000
  H   H60       1.0  0.4156825864046994  0.27080493063534317  0.7202338856471969  1.0000
  H   H61       1.0  0.5037977314544124  0.2103197368814733  0.7498157498540367  1.0000
  H   H62       1.0  0.40363894535520467  0.2429209681587778  0.7983039160138716  1.0000
  H   H63       1.0  0.6125251109938148  0.9804245253459312  0.8833949292816425  1.0000
  H   H64       1.0  0.5597389942636325  0.10512178905336356  0.8067265884670293  1.0000
  H   H65       1.0  0.37835905860661256  0.02879411995554189  0.8145270868191119  1.0000
  H   H66       1.0  0.43410056125543406  0.9027666175133505  0.8909578901769349  1.0000
  H   H67       1.0  0.2344164315186745  0.6948454563817705  0.9035257625953934  1.0000
  H   H68       1.0  0.23015170363539283  0.8318267953448314  0.8409264136889051  1.0000
  H   H69       1.0  0.427254553111176  0.7128648962123094  0.705293839238287  1.0000
  H   H70       1.0  0.4218454780179997  0.5785782578691397  0.7656516463292888  1.0000
  H   H71       1.0  0.20111313994890878  0.9297390358102433  0.7488575876096278  1.0000
  H   H72       1.0  0.26361908267730166  0.9835111977563433  0.6991352628720975  1.0000
  H   H73       1.0  0.2561439743812528  0.956060998719749  0.7764589833681442  1.0000
  H   H74       1.0  0.48941665978995263  0.9158002389133204  0.5455728189662779  1.0000
  H   H75       1.0  0.35514832783148614  0.9181412431608251  0.6148212960141564  1.0000
  H   H76       1.0  0.47070292060491437  0.7996636983469759  0.7612059366644599  1.0000
  H   H77       1.0  0.6054633431722678  0.796333431800946  0.6917128403678773  1.0000
  H   H78       1.0  0.7613349020610726  0.17370904842923818  0.34814273058377415  1.0000
  H   H79       1.0  0.6920425982759822  0.3038715889269528  0.2814383273699336  1.0000
  H   H80       1.0  0.5268162249092897  0.2099107879468889  0.2859061316100409  1.0000
  H   H81       1.0  0.5995865392906411  0.07798205576226284  0.3507726587261217  1.0000
  H   H82       1.0  0.5842375596103012  0.4067619742883083  0.2797914958085456  1.0000
  H   H83       1.0  0.4961754078655716  0.46404202008439926  0.25018454910858867  1.0000
  H   H84       1.0  0.5963746346290294  0.4449156399155499  0.20171683620959166  1.0000
  H   H85       1.0  0.38732124899487264  0.476560002795111  0.11665133992066504  1.0000
  H   H86       1.0  0.4400332163975945  0.47170167780118544  0.1933931785823333  1.0000
  H   H87       1.0  0.6215056873249623  0.22178801774519033  0.18549117435495077  1.0000
  H   H88       1.0  0.5657937831748187  0.22800635281092935  0.10904273505121152  1.0000
  H   H89       1.0  0.1676215493169337  0.23420129678042664  0.9035063794774558  1.0000
  H   H90       1.0  0.0974122225494227  0.22991523916757467  0.8409920120525529  1.0000
  H   H91       1.0  0.15445842420594152  0.4272315024571398  0.7053591733354027  1.0000
  H   H92       1.0  0.23380900045264497  0.4219704336759166  0.7656468389337474  1.0000
  H   H93       1.0  0.12046895389827482  0.20113653915037594  0.7487385527513409  1.0000
  H   H94       1.0  0.053877150400182906  0.26373703159045897  0.6990465320885731  1.0000
  H   H95       1.0  0.011444977958902298  0.25598416243808947  0.7763883800896423  1.0000
  H   H96       1.0  0.049012902588152885  0.4893785606287652  0.545759366009257  1.0000
  H   H97       1.0  0.1117459238966632  0.3551804004071784  0.6149994342205006  1.0000
  H   H98       1.0  0.9685261661403358  0.47086036730242864  0.761311920935313  1.0000
  H   H99       1.0  0.9065202257511159  0.6056063797751391  0.691802432600035  1.0000
  H   H100      1.0  0.716705973401865  0.7612144823602306  0.3482510086034552  1.0000
  H   H101      1.0  0.7226594708020997  0.6919626066316416  0.2814821521945631  1.0000
  H   H102      1.0  0.9775079077006977  0.5268647269418879  0.2858630921658616  1.0000
  H   H103      1.0  0.9717026335703451  0.5997308040488109  0.3506950668575898  1.0000
  H   H104      1.0  0.7291936467280067  0.5843195495743886  0.27976592367803477  1.0000
  H   H105      1.0  0.7896790554055781  0.496206106192858  0.2501822964260614  1.0000
  H   H106      1.0  0.7570776886869838  0.5963649112832459  0.20169576504499523  1.0000
  H   H107      1.0  0.0195773246522606  0.3874755010587663  0.11660522025484707  1.0000
  H   H108      1.0  0.8948789487629156  0.44026150382948265  0.19327263898723848  1.0000
  H   H109      1.0  0.9712044227057177  0.6216439401450986  0.18547166647694271  1.0000
  H   H110      1.0  0.09723077734022209  0.5659024919516825  0.1090420622564636  1.0000
  H   H111      1.0  0.6948664330996124  0.1676833808571913  0.9034260707125342  1.0000
  H   H112      1.0  0.8318648751475023  0.09745294983547839  0.8408764308911146  1.0000
  H   H113      1.0  0.7129289799906218  0.15433475051750623  0.7054116883667804  1.0000
  H   H114      1.0  0.5786136770568221  0.2336894842440388  0.765735259496793  1.0000
  H   H115      1.0  0.9298235586661506  0.12011036646499919  0.7487129202359739  1.0000
  H   H116      1.0  0.9834530189790627  0.05354033335805749  0.6990080514731858  1.0000
  H   H117      1.0  0.9563442981997952  0.011083684246997851  0.7763646093873576  1.0000
  H   H118      1.0  0.9157272971074946  0.04903559285786216  0.5457402232185303  1.0000
  H   H119      1.0  0.9181769495626284  0.11147192057601532  0.6150590919282736  1.0000
  H   H120      1.0  0.7992485145497668  0.9683340666914545  0.7613261231536017  1.0000
  H   H121      1.0  0.7958536390115896  0.9065883686018954  0.6917436942733273  1.0000
  H   H122      1.0  0.17361951432901893  0.7166003871775928  0.348277728592059  1.0000
  H   H123      1.0  0.3037822724884478  0.7224847731741095  0.2815818434124466  1.0000
  H   H124      1.0  0.2096962060749163  0.977268827644217  0.2860190322312802  1.0000
  H   H125      1.0  0.07777340829149891  0.9715010214889405  0.3508546728547373  1.0000
  H   H126      1.0  0.4066855452582486  0.7290413672613596  0.2798747633568226  1.0000
  H   H127      1.0  0.4638700620094696  0.7895294575841164  0.25026012107920087  1.0000
  H   H128      1.0  0.4447697104927144  0.7569428118170052  0.20178203730998232  1.0000
  H   H129      1.0  0.47638235964334535  0.019329745164455382  0.11677264766471045  1.0000
  H   H130      1.0  0.47154199830125526  0.894725452628734  0.19347436620917327  1.0000
  H   H131      1.0  0.221623226427738  0.9711453840793852  0.18557868449851608  1.0000
  H   H132      1.0  0.22783498325514268  0.09705794089560271  0.1091008651996219  1.0000
  C   C1        1.0  0.7544627218433462  0.455213783923746  0.12338258424735232  1.0000
  C   C2        1.0  0.7960994399387005  0.3728899506634067  0.16063823426662793  1.0000
  C   C3        1.0  0.8343523149932254  0.3003714452177989  0.1404843681024417  1.0000
  C   C4        1.0  0.8743452108784737  0.22357385441686972  0.17551042834131184  1.0000
  C   C5        1.0  0.8811030563634006  0.21741908280100822  0.23113246364456333  1.0000
  C   C6        1.0  0.843106242441344  0.2908695807155723  0.2510794482153146  1.0000
  C   C7        1.0  0.7996516612879033  0.3660275191647527  0.2171676313071488  1.0000
  C   C8        1.0  0.9346745630399838  0.06419116739784407  0.26010628122169527  1.0000
  C   C9        1.0  0.060870475873386495  0.15137849168566225  0.4260737874230358  1.0000
  C   C10       1.0  0.025465650329771  0.14530277195097338  0.38562024405715783  1.0000
  C   C11       1.0  0.9687504915269969  0.10957862012490673  0.40707948447325754  1.0000
  C   C12       1.0  0.9343625187430433  0.10734243377189068  0.36843331177412625  1.0000
  C   C13       1.0  0.9563711794914481  0.140949328970528  0.3077456376926691  1.0000
  C   C14       1.0  0.0143254780179731  0.17538599050458709  0.286007317013997  1.0000
  C   C15       1.0  0.04854387424798999  0.17745997621027954  0.32459125828774654  1.0000
  C   C16       1.0  0.1583516957193822  0.9642920396069531  0.6096825242676899  1.0000
  C   C17       1.0  0.1559478820345674  0.8842907328640237  0.6468232251503708  1.0000
  C   C18       1.0  0.2263081564659757  0.8183982183743129  0.6653918673328575  1.0000
  C   C19       1.0  0.2231466450935855  0.7445348130602626  0.7024451491532558  1.0000
  C   C20       1.0  0.1494819415148285  0.7332963197994857  0.7219897049532163  1.0000
  C   C21       1.0  0.0794665890884261  0.7985978823102543  0.7014450013794188  1.0000
  C   C22       1.0  0.08273159037211998  0.8726280229434734  0.6649946427142978  1.0000
  C   C23       1.0  0.2217513830259108  0.5818718821358503  0.7571976382729629  1.0000
  C   C24       1.0  0.8552298671375665  0.6470432657209887  0.9355091852662342  1.0000
  C   C25       1.0  0.9325144913032305  0.6481519012173396  0.8912566043175759  1.0000
  C   C26       1.0  0.9912617290426695  0.5796023718266309  0.8675856468310172  1.0000
  C   C27       1.0  0.061724985161369296  0.5826797854111875  0.8242271157506805  1.0000
  C   C28       1.0  0.07552471777989209  0.655188521673125  0.802908007773894  1.0000
  C   C29       1.0  0.017580744648689996  0.7230928204161275  0.8284044850857128  1.0000
  C   C30       1.0  0.9474015206081604  0.7196023313631698  0.8713800613233716  1.0000
  C   C31       1.0  0.4551987542836216  0.666977104306156  0.1234535353723913  1.0000
  C   C32       1.0  0.37290298134132643  0.6703551349431013  0.1606773837964822  1.0000
  C   C33       1.0  0.3003979691698646  0.7245380343862422  0.14045302744002439  1.0000
  C   C34       1.0  0.22361939884191878  0.726318694114923  0.17549392745269185  1.0000
  C   C35       1.0  0.21747173086276217  0.6702938685847571  0.23122198883282857  1.0000
  C   C36       1.0  0.2909218866498264  0.6149178968470466  0.2511534779353468  1.0000
  C   C37       1.0  0.36605333222549763  0.6171828738355104  0.2172313533578958  1.0000
  C   C38       1.0  0.0642833181152369  0.7412474077863324  0.26004598254591826  1.0000
  C   C39       1.0  0.1512182065042182  0.36182425197189627  0.42613176896201566  1.0000
  C   C40       1.0  0.14505093914429787  0.44382124134166645  0.3857361259477941  1.0000
  C   C41       1.0  0.1094190521555944  0.5147569463023274  0.40723160748677867  1.0000
  C   C42       1.0  0.10725800860603128  0.5900601454348688  0.3686266316466558  1.0000
  C   C43       1.0  0.14079297522547313  0.595181818872753  0.3079309355426786  1.0000
  C   C44       1.0  0.1750099187556629  0.5246147579350191  0.2861362453486294  1.0000
  C   C45       1.0  0.17707497029844885  0.44969936719661535  0.3246865489056602  1.0000
  C   C46       1.0  0.9641889416950987  0.2678593117391016  0.6097831806439588  1.0000
  C   C47       1.0  0.8841383463974494  0.3131870296474944  0.6468788530065267  1.0000
  C   C48       1.0  0.8182588540283574  0.29012612345216127  0.6654921600020531  1.0000
  C   C49       1.0  0.7443794193698138  0.33006652846476214  0.7025615049670223  1.0000
  C   C50       1.0  0.733120298912432  0.39542878839961293  0.7221135950426144  1.0000
  C   C51       1.0  0.7984061126719197  0.42069211788037125  0.701544813243757  1.0000
  C   C52       1.0  0.8724405231458974  0.3799105377628107  0.6650513499969364  1.0000
  C   C53       1.0  0.581735971871524  0.4393345212440636  0.7572879708866578  1.0000
  C   C54       1.0  0.6469141502781213  0.562305208722357  0.935583567344466  1.0000
  C   C55       1.0  0.6479673042393231  0.5282053932241128  0.8913430852202281  1.0000
  C   C56       1.0  0.5793921631558588  0.5617191560317283  0.8677014130897902  1.0000
  C   C57       1.0  0.5824899282632002  0.5315596160993084  0.8243425238936197  1.0000
  C   C58       1.0  0.6550006006800189  0.4665312520042237  0.8030450239939667  1.0000
  C   C59       1.0  0.7229315396589442  0.4310719940271143  0.8285068301132767  1.0000
  C   C60       1.0  0.7194375034407372  0.46177987549612703  0.8714585727425471  1.0000
  C   C61       1.0  0.6669540701317516  0.7542918263661991  0.12348487739685511  1.0000
  C   C62       1.0  0.6703791006464  0.7959443150083204  0.16069820288057451  1.0000
  C   C63       1.0  0.7247118269683028  0.8342950218323967  0.14045749477144645  1.0000
  C   C64       1.0  0.7265118604049547  0.8743169547037795  0.17544258153120765  1.0000
  C   C65       1.0  0.6703951999988716  0.8809494617160927  0.23111968458948703  1.0000
  C   C66       1.0  0.6149737045955631  0.8429874605183445  0.2511108829858485  1.0000
  C   C67       1.0  0.6171558049211471  0.7995226335220522  0.21723203511537278  1.0000
  C   C68       1.0  0.7412355376956795  0.9343119004676619  0.2600932690904188  1.0000
  C   C69       1.0  0.36181725917938934  0.06095858067654089  0.4260546257883746  1.0000
  C   C70       1.0  0.44376893482387203  0.025503898894818543  0.385600579742416  1.0000
  C   C71       1.0  0.5147298623664013  0.9687300149597605  0.4070665375718933  1.0000
  C   C72       1.0  0.5900082177896807  0.9341693452044454  0.36846166683658776  1.0000
  C   C73       1.0  0.595114701802288  0.9561403302666918  0.307771022840768  1.0000
  C   C74       1.0  0.5244679548741046  0.014174555075761975  0.2860286931428818  1.0000
  C   C75       1.0  0.44957085559344995  0.0485341790704368  0.3245724577495466  1.0000
  C   C76       1.0  0.2678936751991757  0.15833514207022867  0.6097235757594605  1.0000
  C   C77       1.0  0.3131931853896859  0.1558401309434743  0.6468669149199046  1.0000
  C   C78       1.0  0.2902042866687254  0.22618950455316883  0.665424867151046  1.0000
  C   C79       1.0  0.33011256987146703  0.2229836088859046  0.7025247209136509  1.0000
  C   C80       1.0  0.39545223650590333  0.1492906301150826  0.7220884873734619  1.0000
  C   C81       1.0  0.4206996015004876  0.07928426234669672  0.7015415702702086  1.0000
  C   C82       1.0  0.37985878101945764  0.08255701481648711  0.6650907890216329  1.0000
  C   C83       1.0  0.43930003887027164  0.22160474024979496  0.7572912652533645  1.0000
  C   C84       1.0  0.5622501294442515  0.855068952084423  0.935597970381096  1.0000
  C   C85       1.0  0.5281276481792715  0.9323420025282801  0.8913368173689946  1.0000
  C   C86       1.0  0.5615899394528441  0.9910862528581463  0.8677298137860489  1.0000
  C   C87       1.0  0.5314016080347058  0.06155953504975294  0.8244022804286005  1.0000
  C   C88       1.0  0.4664178909765937  0.07537329541114701  0.8030726298086677  1.0000
  C   C89       1.0  0.4309358511391536  0.017465128773608386  0.8285258356610469  1.0000
  C   C90       1.0  0.461686019100064  0.9472394083551735  0.8714542895934799  1.0000
  C   C91       1.0  0.333021787469221  0.544800987241608  0.8765437435999387  1.0000
  C   C92       1.0  0.3296422274373327  0.6270983097485966  0.8393198985298723  1.0000
  C   C93       1.0  0.2754586933185479  0.6996047633245084  0.8595444306955001  1.0000
  C   C94       1.0  0.2736796195567948  0.7763836768243026  0.8245049617273638  1.0000
  C   C95       1.0  0.32970681755084996  0.7825298727883306  0.7687782199091943  1.0000
  C   C96       1.0  0.3850813196835219  0.709078213774859  0.7488467876993568  1.0000
  C   C97       1.0  0.3828178231865635  0.6339473663204557  0.7827667136234949  1.0000
  C   C98       1.0  0.2587551941752508  0.9357183482543404  0.739955261879004  1.0000
  C   C99       1.0  0.6381784035481601  0.8487810310903968  0.5738673390316578  1.0000
  C   C100      1.0  0.5561789304548626  0.8549506556651992  0.6142638216260964  1.0000
  C   C101      1.0  0.485244179899233  0.890580226217097  0.5927683507733618  1.0000
  C   C102      1.0  0.4099419412086148  0.8927421842341446  0.6313723933274672  1.0000
  C   C103      1.0  0.4048207831992273  0.8592074886269716  0.692068651114866  1.0000
  C   C104      1.0  0.47538718698903176  0.8249899656446756  0.7138644827890345  1.0000
  C   C105      1.0  0.5503026100272733  0.8229260601671984  0.6753138284500722  1.0000
  C   C106      1.0  0.732146305610648  0.03580671721052649  0.39021561241823133  1.0000
  C   C107      1.0  0.6868156473163295  0.11585999731674684  0.3531196311665284  1.0000
  C   C108      1.0  0.7098744960972567  0.18174025443385491  0.3345090844757125  1.0000
  C   C109      1.0  0.6699321907955563  0.2556195835344895  0.29744192141973974  1.0000
  C   C110      1.0  0.6045686086320926  0.26687923048981327  0.2778888808844614  1.0000
  C   C111      1.0  0.5793081105830566  0.20159075453616984  0.29845681586242284  1.0000
  C   C112      1.0  0.620091384849637  0.12755421370933115  0.3349496002186925  1.0000
  C   C113      1.0  0.5606630913947583  0.41826292360511264  0.24271464763614153  1.0000
  C   C114      1.0  0.43769044292669423  0.3530905164324807  0.06441675993172422  1.0000
  C   C115      1.0  0.4717943013076891  0.3520343006868886  0.10865734977277694  1.0000
  C   C116      1.0  0.43827991087659524  0.4206104833995142  0.13229970587660483  1.0000
  C   C117      1.0  0.46843887979463256  0.4175119327301432  0.17565898579439215  1.0000
  C   C118      1.0  0.5334669116275633  0.3450001991295156  0.19695608258896166  1.0000
  C   C119      1.0  0.5689278442183294  0.2770710950485268  0.17149245195615484  1.0000
  C   C120      1.0  0.5382205780755102  0.2805645839016434  0.12854029659016672  1.0000
  C   C121      1.0  0.2457087285145931  0.33304510985145447  0.8765168279608843  1.0000
  C   C122      1.0  0.20405838521234898  0.3296154990196812  0.8393014376963207  1.0000
  C   C123      1.0  0.1657102830337749  0.2752813094008886  0.8595422090067828  1.0000
  C   C124      1.0  0.1256874126099348  0.27348404283238653  0.824556594654382  1.0000
  C   C125      1.0  0.11905340508910459  0.3296015833893193  0.7688800753206522  1.0000
  C   C126      1.0  0.1570152390098158  0.38502301713447923  0.7488885486817551  1.0000
  C   C127      1.0  0.2004806801884484  0.3828392281320065  0.7827684972766845  1.0000
  C   C128      1.0  0.0656857281406289  0.25876305557847  0.7399074854046505  1.0000
  C   C129      1.0  0.9390415233770709  0.6381869414623438  0.5739484861906448  1.0000
  C   C130      1.0  0.9744924079725193  0.5562303850726523  0.6144030586010559  1.0000
  C   C131      1.0  0.0312664285851909  0.48527135659713844  0.5929338262632698  1.0000
  C   C132      1.0  0.0658254190451402  0.4099925839295011  0.6315396912204961  1.0000
  C   C133      1.0  0.043855354623197194  0.4048850934914229  0.6922307586270193  1.0000
  C   C134      1.0  0.9858207272492762  0.47553177274512853  0.7139743212590447  1.0000
  C   C135      1.0  0.9514623254026304  0.5504288820226932  0.6754310035982698  1.0000
  C   C136      1.0  0.841662753945748  0.7321058419543791  0.39027878323555854  1.0000
  C   C137      1.0  0.8441592753850955  0.6868060056869184  0.3531343014014042  1.0000
  C   C138      1.0  0.7738110660098769  0.7097950967759773  0.3345767582291685  1.0000
  C   C139      1.0  0.7770168247740656  0.6698892597027851  0.29747583197190863  1.0000
  C   C140      1.0  0.8507088501821585  0.6045480423989601  0.2779115883841854  1.0000
  C   C141      1.0  0.9207162031120149  0.5793018026312707  0.2984582785025652  1.0000
  C   C142      1.0  0.9174420854173135  0.620142914355661  0.3349097733201701  1.0000
  C   C143      1.0  0.7783940066490445  0.560701706490093  0.24270899716052  1.0000
  C   C144      1.0  0.14493250266699678  0.43774971894771414  0.06440290458635892  1.0000
  C   C145      1.0  0.0676571812386015  0.47187481086940153  0.10866238420377529  1.0000
  C   C146      1.0  0.008913136660545702  0.4384125489128154  0.13226892551937644  1.0000
  C   C147      1.0  0.9384389907904804  0.46860134808493836  0.1755968738716477  1.0000
  C   C148      1.0  0.9246267550974566  0.5335828940652901  0.1969263241893344  1.0000
  C   C149      1.0  0.9825327024315768  0.5690663861270834  0.1714733388820448  1.0000
  C   C150      1.0  0.05276007398418869  0.5383168268881563  0.12854432481753258  1.0000
  C   C151      1.0  0.5447848466300158  0.24553627763248187  0.8766149313596331  1.0000
  C   C152      1.0  0.6271051023098265  0.20390077559633826  0.8393611443872616  1.0000
  C   C153      1.0  0.6996254747445291  0.16564860133211579  0.859513855628002  1.0000
  C   C154      1.0  0.7764260582489867  0.12565374294519674  0.8244878800516134  1.0000
  C   C155      1.0  0.7825789665132561  0.11889644343420981  0.7688670195902889  1.0000
  C   C156      1.0  0.709127840738418  0.1568924877567427  0.7489200565283056  1.0000
  C   C157      1.0  0.6339691312736591  0.20034874855123513  0.7828312254349044  1.0000
  C   C158      1.0  0.9358048224095796  0.06532790663122502  0.7398937084869672  1.0000
  C   C159      1.0  0.8486262223431212  0.9391278198649148  0.5739257764124017  1.0000
  C   C160      1.0  0.8546974307049595  0.9745349259412915  0.6143803680069128  1.0000
  C   C161      1.0  0.8904206885194839  0.031249328482310424  0.5929215019385766  1.0000
  C   C162      1.0  0.8926555736851468  0.0656413944384298  0.6315648832725386  1.0000
  C   C163      1.0  0.8590446908852769  0.04363376042986995  0.6922534191988918  1.0000
  C   C164      1.0  0.8246077458100771  0.9856794984521213  0.713993106700265  1.0000
  C   C165      1.0  0.8225356273457437  0.9514586522713058  0.6754089346747916  1.0000
  C   C166      1.0  0.0357092703839399  0.8416475727849927  0.3903178231982239  1.0000
  C   C167      1.0  0.11571068535079118  0.8440536496945584  0.3531788046634786  1.0000
  C   C168      1.0  0.18160472456379037  0.7736919652680996  0.3346093211518236  1.0000
  C   C169      1.0  0.2554671257443175  0.7768530108833291  0.29755685562314227  1.0000
  C   C170      1.0  0.26670550801780735  0.8505183055892118  0.27801097699489924  1.0000
  C   C171      1.0  0.20140368681227025  0.9205346859942267  0.2985542815397508  1.0000
  C   C172      1.0  0.12737342228918894  0.9172690967806575  0.3350060447007335  1.0000
  C   C173      1.0  0.41812733989400636  0.7782482477807802  0.2428019728224485  1.0000
  C   C174      1.0  0.35295473809684097  0.14476917437756495  0.06448890674585071  1.0000
  C   C175      1.0  0.35184900524465956  0.06748240656398961  0.10874125889155552  1.0000
  C   C176      1.0  0.42039753616311515  0.00873807939594676  0.13241244024319346  1.0000
  C   C177      1.0  0.41732083492869526  0.938275337372822  0.17577031851106273  1.0000
  C   C178      1.0  0.3448117762097028  0.9244738701991011  0.19708923736468625  1.0000
  C   C179      1.0  0.2769077824491504  0.982416800369201  0.17159259142753308  1.0000
  C   C180      1.0  0.28039928330869657  0.05259491126296473  0.12861654758171437  1.0000
  N   N1        1.0  0.9197302155417405  0.14232236688584962  0.2677385992964432  1.0000
  N   N2        1.0  0.1467811135903858  0.6587075299788696  0.7595459396178512  1.0000
  N   N3        1.0  0.1423382218375977  0.6703945923300554  0.2679140180249746  1.0000
  N   N4        1.0  0.6585261762679266  0.43514568247031354  0.7596674524851679  1.0000
  N   N5        1.0  0.6703713022791362  0.9194332409756144  0.267761073152613  1.0000
  N   N6        1.0  0.43508454418905984  0.14662851952563466  0.759676934340341  1.0000
  N   N7        1.0  0.3296072413222362  0.8576634877415044  0.7320858344870446  1.0000
  N   N8        1.0  0.5648507556354971  0.34147495548791784  0.24033484872187225  1.0000
  N   N9        1.0  0.0805660203477387  0.3296271667961435  0.7322392489032623  1.0000
  N   N10       1.0  0.8533704319430129  0.5649174265950024  0.24032279881807736  1.0000
  N   N11       1.0  0.8576738912364162  0.08027334623884035  0.732259815019667  1.0000
  N   N12       1.0  0.3412925782043885  0.8532185000289374  0.24045303857389638  1.0000
  O   O1        1.0  0.7061846947996884  0.5151374557412326  0.14931145005334662  1.0000
  O   O2        1.0  0.770114524342816  0.46053829658407613  0.06833036512762888  1.0000
  O   O3        1.0  0.11557762637546888  0.18060499896117935  0.40136486139721944  1.0000
  O   O4        1.0  0.0338523276473026  0.128112754687109  0.48179095415267886  1.0000
  O   O5        1.0  0.08910929122671969  0.025036788841369215  0.6016253675806027  1.0000
  O   O6        1.0  0.22908889962486256  0.9679675328206732  0.5886596062058941  1.0000
  O   O7        1.0  0.8022652481179052  0.7153467740476809  0.9499474314771494  1.0000
  O   O8        1.0  0.8468855172387818  0.5788135593377108  0.9553225746622119  1.0000
  O   O9        1.0  0.5150947796715144  0.629549491581678  0.14939331025480826  1.0000
  O   O10       1.0  0.4605440948293662  0.7009253082675357  0.06838660347420228  1.0000
  O   O11       1.0  0.1805974858135784  0.3026105825615845  0.4013785916378154  1.0000
  O   O12       1.0  0.12787357377143851  0.3563248188856889  0.48184806394500157  1.0000
  O   O13       1.0  0.024925950426784  0.28437946162078015  0.6017707357414749  1.0000
  O   O14       1.0  0.9679104124674824  0.21444222637868626  0.5887734960703525  1.0000
  O   O15       1.0  0.7152871780618428  0.5325872495770199  0.9499110863512854  1.0000
  O   O16       1.0  0.5786807877997475  0.6190091600889502  0.9554596451479752  1.0000
  O   O17       1.0  0.6294960579532684  0.7059182861623938  0.14944753163708674  1.0000
  O   O18       1.0  0.700899496122716  0.7700356550167128  0.06841098553141481  1.0000
  O   O19       1.0  0.3025723804635234  0.1156307348245279  0.40134283600935555  1.0000
  O   O20       1.0  0.3563660123828356  0.03400928384851192  0.481773313558449  1.0000
  O   O21       1.0  0.2843630591056439  0.08910680404395781  0.6017000989574939  1.0000
  O   O22       1.0  0.2145255201160623  0.22908403847903722  0.5886747353756618  1.0000
  O   O23       1.0  0.532454308358055  0.8021311818965986  0.9500450927465779  1.0000
  O   O24       1.0  0.6190223598211022  0.8467246064170625  0.9553874904230781  1.0000
  O   O25       1.0  0.6561874246458642  0.6560990545913584  0.03154916998026636  1.0000
  O   O26       1.0  0.160545503458053  0.16061610769273926  0.5183792833223464  1.0000
  O   O27       1.0  0.3704497410686045  0.4849054380242848  0.8506029274424594  1.0000
  O   O28       1.0  0.29907570533476496  0.5394554416859666  0.9316113114249659  1.0000
  O   O29       1.0  0.6973886307636404  0.8194048712573266  0.598621393951447  1.0000
  O   O30       1.0  0.6436796050486961  0.8721227151941666  0.5181498023565111  1.0000
  O   O31       1.0  0.7156285449663287  0.9750697070402836  0.3982258794569021  1.0000
  O   O32       1.0  0.7855625626840279  0.032086614827953566  0.4112259271852921  1.0000
  O   O33       1.0  0.467408933769768  0.28471742408689943  0.050089491258638943  1.0000
  O   O34       1.0  0.3809851255167374  0.4213231761518656  0.044542090206547924  1.0000
  O   O35       1.0  0.29407693996958534  0.3705092017839745  0.8505543509241349  1.0000
  O   O36       1.0  0.22996512498941263  0.2990980051965053  0.9315903470252778  1.0000
  O   O37       1.0  0.8843736711869923  0.6974285934383176  0.598662355678556  1.0000
  O   O38       1.0  0.9659900595275773  0.6436400736716341  0.5182302625201912  1.0000
  O   O39       1.0  0.9108891291160859  0.7156396506149181  0.39830149673147713  1.0000
  O   O40       1.0  0.770913000284196  0.7854737299063362  0.41132677379451354  1.0000
  O   O41       1.0  0.19786963304225222  0.46754557678661285  0.049956748340377895  1.0000
  O   O42       1.0  0.15327669487263046  0.3809769810439719  0.04461436298583976  1.0000
  O   O43       1.0  0.4848596459827235  0.29380759580823923  0.8506892648678316  1.0000
  O   O44       1.0  0.539459542205826  0.22988636002752114  0.931667624966785  1.0000
  O   O45       1.0  0.8194001369416525  0.8844206082635255  0.5986322148601816  1.0000
  O   O46       1.0  0.8718964259962901  0.9661450787735574  0.5182071736432975  1.0000
  O   O47       1.0  0.9749630077050638  0.9108903928844259  0.3983752053888025  1.0000
  O   O48       1.0  0.03203519007392689  0.7709118856068997  0.4113378992137485  1.0000
  O   O49       1.0  0.2846531041834339  0.1977316470394612  0.050049562635351215  1.0000
  O   O50       1.0  0.4211832455549427  0.15311481247174194  0.044679451585778934  1.0000
  O   O51       1.0  0.34389995316904987  0.34381511083682886  0.9684512070286929  1.0000
  O   O52       1.0  0.8393846526500967  0.839454528382504  0.48162091534222634  1.0000
