data_image0
_chemical_formula_structural       Al2H12C42N6Cl12O12
_chemical_formula_sum              "Al2 H12 C42 N6 Cl12 O12"
_cell_length_a       3.9969439208741138
_cell_length_b       27.917504102973776
_cell_length_c       27.919597482562928
_cell_angle_alpha    120.00485224919206
_cell_angle_beta     89.98002316466537
_cell_angle_gamma    90.01167444545196

_space_group_name_H-M_alt    "P 1"
_space_group_IT_number       1

loop_
  _space_group_symop_operation_xyz
  'x, y, z'

loop_
  _atom_site_type_symbol
  _atom_site_label
  _atom_site_symmetry_multiplicity
  _atom_site_fract_x
  _atom_site_fract_y
  _atom_site_fract_z
  _atom_site_occupancy
  Al  Al1       1.0  0.0013580363417205004  0.49999304475290524  0.4999804099062999  1.0000
  Al  Al2       1.0  0.0062198982447157  0.16667684273537023  0.8333549291876281  1.0000
  H   H1        1.0  0.3953169684584239  0.18161464931333154  0.6933548991527941  1.0000
  H   H2        1.0  0.4205892969627243  0.23601524157920292  0.6438004629490592  1.0000
  H   H3        1.0  0.32020154933139383  0.28752852453988703  0.5395674483397245  1.0000
  H   H4        1.0  0.6476225350302726  0.42961259777014477  0.6910939058365244  1.0000
  H   H5        1.0  0.39464720690228466  0.011713789679390617  0.818376936224027  1.0000
  H   H6        1.0  0.41984296300282864  0.9077595384934153  0.763962639229014  1.0000
  H   H7        1.0  0.3202412275600395  0.7520233700678745  0.7124517296323349  1.0000
  H   H8        1.0  0.6477733962411211  0.7615074694828792  0.5703873550387827  1.0000
  H   H9        1.0  0.3946338388081116  0.30666800879664147  0.9883228923043743  1.0000
  H   H10       1.0  0.419966485756234  0.3561986953573352  0.0922814829613259  1.0000
  H   H11       1.0  0.3203221547599214  0.4604214519852191  0.24797380757569704  1.0000
  H   H12       1.0  0.6475144578000781  0.30887349471942827  0.23848526977400306  1.0000
  C   C1        1.0  0.5015874955976471  0.46297892694197157  0.41540011151863615  1.0000
  C   C2        1.0  0.5014882662852997  0.45241811950669586  0.5369965288906543  1.0000
  C   C3        1.0  0.5016748679484949  0.5845862722073106  0.5475641485660105  1.0000
  C   C4        1.0  0.5037122076113505  0.2164994600063678  0.7988868158759814  1.0000
  C   C5        1.0  0.5035104352950909  0.08238995533888278  0.7835227013044915  1.0000
  C   C6        1.0  0.5035095960398621  0.20113472937758559  0.9176292461819457  1.0000
  C   C7        1.0  0.4982393751532044  0.25219991733444386  0.7731144480093094  1.0000
  C   C8        1.0  0.4423329328869983  0.2260266364446508  0.7157852307628759  1.0000
  C   C9        1.0  0.4544894707272391  0.25570682939171263  0.6883857180908494  1.0000
  C   C10       1.0  0.5125866470868133  0.31301535100998024  0.717801510420543  1.0000
  C   C11       1.0  0.5588722339557536  0.34026402059843264  0.775798821437853  1.0000
  C   C12       1.0  0.554693433706845  0.3095614945026524  0.8033740646779819  1.0000
  C   C13       1.0  0.39546868236087124  0.33080359375425417  0.561952737330259  1.0000
  C   C14       1.0  0.4807948286531527  0.3556166913509315  0.6180094959060157  1.0000
  C   C15       1.0  0.5803148343936472  0.41128099279590896  0.64768088843487  1.0000
  C   C16       1.0  0.5895582122925235  0.4417021869684488  0.6208499084694735  1.0000
  C   C17       1.0  0.5000346578637576  0.41806290621919817  0.5646745372651055  1.0000
  C   C18       1.0  0.40526646221677964  0.36218939310154497  0.5357748621832884  1.0000
  C   C19       1.0  0.4979230746098509  0.02090985435126684  0.7478032666697204  1.0000
  C   C20       1.0  0.4418271506194031  0.989754722493032  0.7739751276861427  1.0000
  C   C21       1.0  0.45400937689584014  0.9326632371880592  0.7442872222254665  1.0000
  C   C22       1.0  0.5123994201812536  0.904794505271745  0.6869891716351405  1.0000
  C   C23       1.0  0.5588572992285066  0.935547048973248  0.6597478049183607  1.0000
  C   C24       1.0  0.5545918851973966  0.993831776217547  0.6904550362804472  1.0000
  C   C25       1.0  0.39556853479595594  0.7311368421387383  0.6691765344617266  1.0000
  C   C26       1.0  0.4808308428126793  0.7623902788760686  0.6443713275850983  1.0000
  C   C27       1.0  0.5804145579023583  0.7364188426246371  0.5887121182609222  1.0000
  C   C28       1.0  0.589698641983702  0.6791579200448792  0.5582865887913755  1.0000
  C   C29       1.0  0.5001801163390098  0.6466136609891822  0.5819194200046812  1.0000
  C   C30       1.0  0.40542005679345283  0.6735666076907022  0.6377915748094267  1.0000
  C   C31       1.0  0.49799213936186965  0.22689726465494414  0.9791104093250952  1.0000
  C   C32       1.0  0.4418738384472718  0.2842296080888076  0.010278898909625418  1.0000
  C   C33       1.0  0.4540529761779696  0.31161248274859327  0.06736006593681058  1.0000
  C   C34       1.0  0.512401890461696  0.28218596403645785  0.09522096316229074  1.0000
  C   C35       1.0  0.5588747983986339  0.22418910684477567  0.06446219330456422  1.0000
  C   C36       1.0  0.5546518337750755  0.19662890291807858  0.006184546159893525  1.0000
  C   C37       1.0  0.3955527572594804  0.43804625610316333  0.26886394739722874  1.0000
  C   C38       1.0  0.4807822551987471  0.3819731619313983  0.23761127189224848  1.0000
  C   C39       1.0  0.5802416908856856  0.3522977739034728  0.2635824432818339  1.0000
  C   C40       1.0  0.5895980427298185  0.3791222073284643  0.32083148595809524  1.0000
  C   C41       1.0  0.5001124550892159  0.43531374077065255  0.35337761312231913  1.0000
  C   C42       1.0  0.40542851041843164  0.46422259970537977  0.3264264922223675  1.0000
  N   N1        1.0  0.5314818923614978  0.3459049757929406  0.6928174376868058  1.0000
  N   N2        1.0  0.45662994638191623  0.3214180079464626  0.6418823797211674  1.0000
  N   N3        1.0  0.5313611376197613  0.8469177638233915  0.654094920257343  1.0000
  N   N4        1.0  0.45655223143233314  0.8204639616305085  0.6785721994964575  1.0000
  N   N5        1.0  0.5313833798876147  0.3071675027426862  0.1530866004321965  1.0000
  N   N6        1.0  0.4565251763310698  0.3581004831988465  0.17955009367562272  1.0000
  Cl  Cl1       1.0  0.6043064694486233  0.3433234784975454  0.8739197906674792  1.0000
  Cl  Cl2       1.0  0.6172668891798523  0.4103786469929175  0.8124026313135104  1.0000
  Cl  Cl3       1.0  0.2916420312038852  0.33196357197620324  0.46706131426580555  1.0000
  Cl  Cl4       1.0  0.71871976902559  0.5098605932318776  0.6569067936537537  1.0000
  Cl  Cl5       1.0  0.6046101535845452  0.030629382828124073  0.6567138131359442  1.0000
  Cl  Cl6       1.0  0.6175186221872336  0.9020571184950938  0.5896448453112201  1.0000
  Cl  Cl7       1.0  0.29184570824146766  0.63506617250313  0.6680155494883948  1.0000
  Cl  Cl8       1.0  0.7189902126074659  0.6471028402426169  0.49013751731234123  1.0000
  Cl  Cl9       1.0  0.6045019097434619  0.12608050515292038  0.9693926007762244  1.0000
  Cl  Cl10      1.0  0.6174405313260963  0.18758283773949808  0.0979513284694775  1.0000
  Cl  Cl11      1.0  0.29199202954975334  0.532956624856503  0.36491974978089575  1.0000
  Cl  Cl12      1.0  0.7188612188914902  0.34304913364209  0.3528956344180117  1.0000
  O   O1        1.0  0.7386919992799151  0.559016058506316  0.5553167694680355  1.0000
  O   O2        1.0  0.7386816333909039  0.49630176697578304  0.44096634191697603  1.0000
  O   O3        1.0  0.7385528841604272  0.44465784860758345  0.5036640770829309  1.0000
  O   O4        1.0  0.2644230089633623  0.5625357204676646  0.5131528776269861  1.0000
  O   O5        1.0  0.26415994479557264  0.4868290453220822  0.5493591260096408  1.0000
  O   O6        1.0  0.2642262390840031  0.45061176891807964  0.43744383491892347  1.0000
  O   O7        1.0  0.7428889825266225  0.1685255728195684  0.8913207288378047  1.0000
  O   O8        1.0  0.7430500158430675  0.2228058092157708  0.8315031182016455  1.0000
  O   O9        1.0  0.7429494001247506  0.10870266738508853  0.7772319867703246  1.0000
  O   O10       1.0  0.2711843156015945  0.21547055025345674  0.8960672914385271  1.0000
  O   O11       1.0  0.27102483005995026  0.10395946874472639  0.8194331866592678  1.0000
  O   O12       1.0  0.27125030282769563  0.18059371781480846  0.7845618094506223  1.0000
