data_image0
_chemical_formula_structural       Zn2H20C28N12O8
_chemical_formula_sum              "Zn2 H20 C28 N12 O8"
_cell_length_a       9.244665154157328
_cell_length_b       9.503911038981709
_cell_length_c       9.503909991288678
_cell_angle_alpha    81.77012815873469
_cell_angle_beta     75.89191750872563
_cell_angle_gamma    75.89201278216115

_space_group_name_H-M_alt    "P 1"
_space_group_IT_number       1

loop_
  _space_group_symop_operation_xyz
  'x, y, z'

loop_
  _atom_site_type_symbol
  _atom_site_label
  _atom_site_symmetry_multiplicity
  _atom_site_fract_x
  _atom_site_fract_y
  _atom_site_fract_z
  _atom_site_occupancy
  Zn  Zn1       1.0  0.740586522637905  0.959848021555302  0.7037188683576191  1.0000
  Zn  Zn2       1.0  0.2405855549294883  0.7037192044582737  0.9598478959989482  1.0000
  H   H1        1.0  0.3833870037764272  0.016671044197096297  0.6115436711312442  1.0000
  H   H2        1.0  0.8833875943500901  0.611542994068621  0.016673031321864963  1.0000
  H   H3        1.0  0.5972705993195149  0.48888393370800975  0.7848939384200051  1.0000
  H   H4        1.0  0.09727326055691074  0.7848919860151681  0.4888832151084302  1.0000
  H   H5        1.0  0.8779880696559064  0.8783525022184192  0.17453024759930716  1.0000
  H   H6        1.0  0.37798679815995945  0.1745319506724243  0.8783531609565575  1.0000
  H   H7        1.0  0.07354092725621092  0.30941486861696876  0.24634500787269797  1.0000
  H   H8        1.0  0.573538008608196  0.2463460432076019  0.3094138740387891  1.0000
  H   H9        1.0  0.5826534422557544  0.9376918350228393  0.07754692782544481  1.0000
  H   H10       1.0  0.0826536997352818  0.0775476148086227  0.9376930532838516  1.0000
  H   H11       1.0  0.9686950244685876  0.1098921170284939  0.4099512643439669  1.0000
  H   H12       1.0  0.4686941613990641  0.4099514523130877  0.10989141422346907  1.0000
  H   H13       1.0  0.7902419630924341  0.6348371701529841  0.531841640502954  1.0000
  H   H14       1.0  0.2902423633726273  0.5318416525612972  0.6348372959766452  1.0000
  H   H15       1.0  0.2058610616308769  0.0360590066213859  0.448490933787028  1.0000
  H   H16       1.0  0.7058609828127587  0.4484897550713711  0.03606172767317868  1.0000
  H   H17       1.0  0.3014192638428241  0.9970101788399147  0.18672946185179032  1.0000
  H   H18       1.0  0.8014194940928547  0.18672789547153454  0.9970110649684759  1.0000
  H   H19       1.0  0.9831818680471972  0.5654130574113835  0.3037518594472246  1.0000
  H   H20       1.0  0.4831801120310147  0.3037513694122964  0.5654130028818046  1.0000
  C   C1        1.0  0.42629103075880437  0.9975013561133891  0.4973162509951409  1.0000
  C   C2        1.0  0.926289851762839  0.4973141137678779  0.9975028291583571  1.0000
  C   C3        1.0  0.44398757178016274  0.9021398230206188  0.8646901363382896  1.0000
  C   C4        1.0  0.944001188087356  0.8646841572513464  0.9021451748134979  1.0000
  C   C5        1.0  0.5478506540869575  0.7506003911631536  0.8300188167143929  1.0000
  C   C6        1.0  0.047865833175571  0.8300134616315019  0.750604944517484  1.0000
  C   C7        1.0  0.9882465017368887  0.3346692997372998  0.3460713393326885  1.0000
  C   C8        1.0  0.4882450989073065  0.34607156428358365  0.3346702383981111  1.0000
  C   C9        1.0  0.5382766386304924  0.9516312018635414  0.19277704839347376  1.0000
  C   C10       1.0  0.038276322272189085  0.19277653194129837  0.9516321422512211  1.0000
  C   C11       1.0  0.8231554375050579  0.2623145870264452  0.563173015572957  1.0000
  C   C12       1.0  0.32315329237545853  0.5631739653994428  0.26231548179733016  1.0000
  C   C13       1.0  0.932483188084916  0.222806187813596  0.43607976905225604  1.0000
  C   C14       1.0  0.43248320935484225  0.43607991188878265  0.22280480832847632  1.0000
  C   C15       1.0  0.828685803270567  0.5224519239175646  0.5045614149850622  1.0000
  C   C16       1.0  0.32868634836639643  0.5045604109216695  0.5224512979815757  1.0000
  C   C17       1.0  0.7725036350063733  0.4092035404535181  0.5962317680031932  1.0000
  C   C18       1.0  0.2725029950292779  0.5962303790206462  0.40920497917613124  1.0000
  C   C19       1.0  0.6376908224618846  0.9384378742231971  0.2867334902376655  1.0000
  C   C20       1.0  0.13768991433624936  0.2867328172357303  0.9384392883017869  1.0000
  C   C21       1.0  0.3285333292568567  0.008775803018018299  0.4046647474933566  1.0000
  C   C22       1.0  0.8285327747072062  0.40466337973860783  0.008778146817142767  1.0000
  C   C23       1.0  0.3832842009385048  0.9870621912416407  0.25493009637519753  1.0000
  C   C24       1.0  0.8832857036848909  0.25493033256248043  0.9870633677218168  1.0000
  C   C25       1.0  0.9367829470982728  0.481723715933576  0.37951831255649904  1.0000
  C   C26       1.0  0.4367823098364525  0.37951736218626303  0.48172306704163503  1.0000
  C   C27       1.0  0.5836713549489048  0.9619469411250633  0.43611262457229594  1.0000
  C   C28       1.0  0.08367342726269564  0.4361130319388593  0.9619481596694046  1.0000
  N   N1        1.0  0.8349278439750022  0.9112803812694706  0.39195990920600127  1.0000
  N   N2        1.0  0.3349282888123923  0.3919609087974222  0.9112806751793556  1.0000
  N   N3        1.0  0.6509877566489382  0.2675222208175396  0.7691094443898906  1.0000
  N   N4        1.0  0.15098700480236724  0.7691106180441877  0.2675224801877577  1.0000
  N   N5        1.0  0.7106202324930635  0.9442743168205893  0.4941235122903368  1.0000
  N   N6        1.0  0.2106218067572172  0.4941222260259508  0.9442739630849175  1.0000
  N   N7        1.0  0.6664799675130624  0.4037732282660753  0.724253148135013  1.0000
  N   N8        1.0  0.16647831143049535  0.7242552754105417  0.4037753798522348  1.0000
  N   N9        1.0  0.7444424813003535  0.18104413544516967  0.67355035206095  1.0000
  N   N10       1.0  0.24444289018087054  0.6735505820353183  0.18104489337508772  1.0000
  N   N11       1.0  0.7935164902569058  0.9072681309185809  0.2676979124879467  1.0000
  N   N12       1.0  0.29351863570430936  0.2676962474064481  0.907267677647191  1.0000
  O   O1        1.0  0.4843386344360426  0.6418107550629909  0.8685649045764876  1.0000
  O   O2        1.0  0.9843356805587293  0.8685686215332707  0.641805745281303  1.0000
  O   O3        1.0  0.5038004056188754  0.012563971200968594  0.8202052905298844  1.0000
  O   O4        1.0  0.0037990512326757883  0.8202080775677273  0.0125576582500457  1.0000
  O   O5        1.0  0.3081849100284445  0.9075987913882598  0.9334201100804478  1.0000
  O   O6        1.0  0.8081763543079674  0.9334254694255006  0.9075985540876206  1.0000
  O   O7        1.0  0.6852992243947754  0.7449323300216973  0.7667647303037769  1.0000
  O   O8        1.0  0.18529197442008177  0.7667709676373705  0.7449323162102676  1.0000
