data_image0
_chemical_formula_structural       Ni3H30C20N4O20
_chemical_formula_sum              "Ni3 H30 C20 N4 O20"
_cell_length_a       7.413054491798667
_cell_length_b       8.701946908852827
_cell_length_c       11.637471455656248
_cell_angle_alpha    92.58236455158463
_cell_angle_beta     102.21957031181606
_cell_angle_gamma    91.96317750357343

_space_group_name_H-M_alt    "P 1"
_space_group_IT_number       1

loop_
  _space_group_symop_operation_xyz
  'x, y, z'

loop_
  _atom_site_type_symbol
  _atom_site_label
  _atom_site_symmetry_multiplicity
  _atom_site_fract_x
  _atom_site_fract_y
  _atom_site_fract_z
  _atom_site_occupancy
  Ni  Ni1       1.0  0.999999703355762  3.262799949988145e-07  0.4999998205812659  1.0000
  Ni  Ni2       1.0  0.7446484748301218  0.2801446766520144  0.843994304206781  1.0000
  Ni  Ni3       1.0  0.2553517523473516  0.7198543927752966  0.15600616745647503  1.0000
  H   H1        1.0  0.48882410665864745  0.8005622866308996  0.8955743282017679  1.0000
  H   H2        1.0  0.5111775207226827  0.19943910259225106  0.1044212483709472  1.0000
  H   H3        1.0  0.2835123473898307  0.5616134402635848  0.5576699733825805  1.0000
  H   H4        1.0  0.7164891940313182  0.4383844935136879  0.4423289112564532  1.0000
  H   H5        1.0  0.8110126413256324  0.09870125339002561  0.07091727556887409  1.0000
  H   H6        1.0  0.1889889114934959  0.9012966800727468  0.9290824698600842  1.0000
  H   H7        1.0  0.9750881892528512  0.25480695776905543  0.08984099045787985  1.0000
  H   H8        1.0  0.02491199407392489  0.7451909602622847  0.9101594361742471  1.0000
  H   H9        1.0  0.7677699349651946  0.9265603573392268  0.8908446962718842  1.0000
  H   H10       1.0  0.23223161785393392  0.07343757612355258  0.1091550491570814  1.0000
  H   H11       1.0  0.9022044495317373  0.9613307194212339  0.7849002682381467  1.0000
  H   H12       1.0  0.09779848417773002  0.0386672291584844  0.2150996567775749  1.0000
  H   H13       1.0  0.060570748840724796  0.16892700596444138  0.914190330940059  1.0000
  H   H14       1.0  0.9394280974464096  0.8310720483459235  0.08580996113643378  1.0000
  H   H15       1.0  0.47275516521288813  0.07238462776850697  0.8398050048961992  1.0000
  H   H16       1.0  0.5272436810742462  0.9276144265418581  0.1601952871802936  1.0000
  H   H17       1.0  0.700210882054115  0.8724566685884411  0.5507062859420557  1.0000
  H   H18       1.0  0.2997907698643801  0.12754356735177907  0.4492944103390926  1.0000
  H   H19       1.0  0.4399135029450747  0.22011128942589406  0.9146248390166392  1.0000
  H   H20       1.0  0.5600839852476795  0.7798877491385453  0.08537699505294678  1.0000
  H   H21       1.0  0.09245818017415532  0.38067225784610054  0.8299441898391108  1.0000
  H   H22       1.0  0.9075392852226475  0.6193267813473257  0.17005592265062572  1.0000
  H   H23       1.0  0.7099066849696953  0.05002916300441739  0.5991523313900161  1.0000
  H   H24       1.0  0.29009359745644764  0.9499710575043633  0.4008490460942866  1.0000
  H   H25       1.0  0.8086123719237295  0.8982775619337461  0.3134965212001148  1.0000
  H   H26       1.0  0.19138641911473542  0.1017203412951417  0.6865028650553242  1.0000
  H   H27       1.0  0.9539505306881749  0.481957496820321  0.7431271869199493  1.0000
  H   H28       1.0  0.04604693470862029  0.518041542373105  0.2568729255697875  1.0000
  H   H29       1.0  0.9603453578413834  0.7667722561015394  0.33697418729607154  1.0000
  H   H30       1.0  0.0396534884457509  0.23322679820882536  0.6630261047804211  1.0000
  C   C1        1.0  0.7163238809414522  0.5579781523773948  0.9860805390599551  1.0000
  C   C2        1.0  0.283676422539429  0.44202322015635076  0.013919161875634205  1.0000
  C   C3        1.0  0.5918609701972671  0.5755084980269062  0.8680756439900819  1.0000
  C   C4        1.0  0.40814071417395337  0.4244928896237709  0.13192423653226373  1.0000
  C   C5        1.0  0.48670533827910845  0.701541203772372  0.8347546129025147  1.0000
  C   C6        1.0  0.5132949976544908  0.29846132047183  0.165244272274272  1.0000
  C   C7        1.0  0.3751555706194338  0.6984451124197264  0.7212881947959886  1.0000
  C   C8        1.0  0.6248447539161931  0.3015574121389689  0.2787098295908735  1.0000
  C   C9        1.0  0.2668191488880893  0.8377022906061455  0.6820523382351524  1.0000
  C   C10       1.0  0.7331811317968474  0.16229908255658643  0.31794564112058765  1.0000
  C   C11       1.0  0.3708989625997888  0.5680808071109311  0.6455016670059663  1.0000
  C   C12       1.0  0.6291013294831133  0.43192056573730747  0.3544971731396913  1.0000
  C   C13       1.0  0.48434225893132793  0.4474622670958085  0.6837001776477152  1.0000
  C   C14       1.0  0.5156579568481662  0.5525368026459888  0.3162994332256091  1.0000
  C   C15       1.0  0.5055537734696501  0.30347402951485947  0.6101122643520753  1.0000
  C   C16       1.0  0.49444512806616103  0.6965261758769826  0.3898889335454783  1.0000
  C   C17       1.0  0.9472982969063752  0.13490246210081122  0.05618414011261306  1.0000
  C   C18       1.0  0.052700549380759285  0.8650965922095535  0.9438161519638797  1.0000
  C   C19       1.0  0.904996215346067  0.9665462631240657  0.8797967196855083  1.0000
  C   C20       1.0  0.09500267479176472  0.033453942582269705  0.1202036174221135  1.0000
  N   N1        1.0  0.5903622612257565  0.4537628257865052  0.7923405965374144  1.0000
  N   N2        1.0  0.40963930299135143  0.5462351073617739  0.2076600096814687  1.0000
  N   N3        1.0  0.9345928407217486  0.1283683579484958  0.9266649133289987  1.0000
  N   N4        1.0  0.0654087234953593  0.8716295751997902  0.07333569288988429  1.0000
  O   O1        1.0  0.6172830182654678  0.20572093290385848  0.6635616817520145  1.0000
  O   O2        1.0  0.3827186564489935  0.794279302407375  0.3364407361089761  1.0000
  O   O3        1.0  0.4192081784630872  0.2904802439430085  0.5053790450820514  1.0000
  O   O4        1.0  0.5807933857540207  0.7095176892052776  0.4946215611368316  1.0000
  O   O5        1.0  0.8022703074484667  0.4347673435242001  0.00027367071587750436  1.0000
  O   O6        1.0  0.19773147602212757  0.5652363466039245  0.9997271606586509  1.0000
  O   O7        1.0  0.7313923097610698  0.665541700660384  0.06689856950588083  1.0000
  O   O8        1.0  0.2686079709238598  0.3344596725023479  0.9330994098498593  1.0000
  O   O9        1.0  0.30549745224075053  0.9609292772082793  0.7481806285423004  1.0000
  O   O10       1.0  0.6944987182258943  0.03907320231408559  0.2518159962943614  1.0000
  O   O11       1.0  0.146043822467341  0.821463022752546  0.587209297308604  1.0000
  O   O12       1.0  0.8539577952572301  0.178537214131147  0.41278881660276306  1.0000
  O   O13       1.0  0.5387060779934458  0.1508347281217937  0.9008409867264789  1.0000
  O   O14       1.0  0.46129548622366207  0.8491632050264856  0.09915961949241138  1.0000
  O   O15       1.0  0.9722082762173444  0.3776864112699769  0.7689832011897408  1.0000
  O   O16       1.0  0.027789233030148387  0.6223137793194196  0.23101695633111768  1.0000
  O   O17       1.0  0.8789421773376207  0.8306143297705475  0.3737312285335221  1.0000
  O   O18       1.0  0.12105536436259712  0.169387012529306  0.6262681132285408  1.0000
  O   O19       1.0  0.7858400106759404  0.9608590128774207  0.5874735577869644  1.0000
  O   O20       1.0  0.21416162984458254  0.0391412233772925  0.4125262777042522  1.0000
