data_image0
_chemical_formula_structural       Cd2H38C30S4N6O14
_chemical_formula_sum              "Cd2 H38 C30 S4 N6 O14"
_cell_length_a       4.962428046000084
_cell_length_b       10.539105167268813
_cell_length_c       18.407009532539067
_cell_angle_alpha    95.98580636824343
_cell_angle_beta     89.99997953618559
_cell_angle_gamma    90.00000729845166

_space_group_name_H-M_alt    "P 1"
_space_group_IT_number       1

loop_
  _space_group_symop_operation_xyz
  'x, y, z'

loop_
  _atom_site_type_symbol
  _atom_site_label
  _atom_site_symmetry_multiplicity
  _atom_site_fract_x
  _atom_site_fract_y
  _atom_site_fract_z
  _atom_site_occupancy
  Cd  Cd1       1.0  0.5478462039103676  0.29367259736559964  0.8593672997849711  1.0000
  Cd  Cd2       1.0  0.0478435174518026  0.706327934771764  0.1406323391934947  1.0000
  H   H1        1.0  0.747996287449368  0.5661385940376392  0.7973390366447078  1.0000
  H   H2        1.0  0.247995459772703  0.4338609982658142  0.20266107346694895  1.0000
  H   H3        1.0  0.49903960816616433  0.6847270149619649  0.7024521539623338  1.0000
  H   H4        1.0  0.9990349857806464  0.31527353643971173  0.297547442812423  1.0000
  H   H5        1.0  0.09422972654878241  0.5593755654238921  0.6494312561684126  1.0000
  H   H6        1.0  0.5942311132522917  0.44062496869397444  0.35056837847123035  1.0000
  H   H7        1.0  0.08735398219005931  0.337986759584915  0.7215098224899279  1.0000
  H   H8        1.0  0.5873514944357154  0.6620128315121293  0.27849084624724446  1.0000
  H   H9        1.0  0.7235666464877399  0.013432349324048702  0.7860875805918539  1.0000
  H   H10       1.0  0.22356192372702566  0.9865681903159075  0.2139120419501381  1.0000
  H   H11       1.0  0.8415370377909499  0.015065134845116304  0.9144117614784905  1.0000
  H   H12       1.0  0.3415345000891961  0.9849373235485148  0.08558850111656112  1.0000
  H   H13       1.0  0.1434474575438927  0.9262721752195663  0.8918834934070504  1.0000
  H   H14       1.0  0.643449066455922  0.07372551020831962  0.10811706259441681  1.0000
  H   H15       1.0  0.5232171391641955  0.911861253413669  0.9742131781916895  1.0000
  H   H16       1.0  0.023216452388666705  0.08814024300923512  0.0257876040332761  1.0000
  H   H17       1.0  0.4002148439376824  0.752329886613879  0.9535787677501447  1.0000
  H   H18       1.0  0.9002185971485446  0.24767256863275117  0.0464209457567435  1.0000
  H   H19       1.0  0.24845865164442668  0.9036830606703818  0.7370645802828193  1.0000
  H   H20       1.0  0.7484560308744149  0.09631557196819072  0.26293493244209293  1.0000
  H   H21       1.0  0.5622082172278908  0.10742409727633632  0.6823134462723388  1.0000
  H   H22       1.0  0.0622113917364615  0.8925745387150745  0.3176871710723432  1.0000
  H   H23       1.0  0.5947508210801189  0.3065881898732173  0.6228691328730775  1.0000
  H   H24       1.0  0.0947498322854443  0.6934094934754428  0.3771314276835085  1.0000
  H   H25       1.0  0.28173475739839665  0.1571942729177067  0.49918097001279454  1.0000
  H   H26       1.0  0.7817340387385413  0.8428053321312204  0.5008202241415491  1.0000
  H   H27       1.0  0.2524749563835513  0.9565440291200674  0.5586643328903875  1.0000
  H   H28       1.0  0.7524740995560251  0.043455574679569516  0.441336864000867  1.0000
  H   H29       1.0  0.15689064972208663  0.40338070384964203  0.5195939701581125  1.0000
  H   H30       1.0  0.656889891288273  0.5966179305318138  0.48040609473107315  1.0000
  H   H31       1.0  0.8118825050138269  0.43639147672465145  0.5407378597001866  1.0000
  H   H32       1.0  0.3118833870667643  0.5636071642744441  0.4592621906912769  1.0000
  H   H33       1.0  0.9011936648044242  0.34030869198204533  0.4590968634740875  1.0000
  H   H34       1.0  0.401194464572697  0.6596889987981953  0.5409031248190602  1.0000
  H   H35       1.0  0.9827965586634022  0.41880368412268615  0.9338342886831796  1.0000
  H   H36       1.0  0.4827959522167973  0.5811959182059072  0.06616579946567923  1.0000
  H   H37       1.0  0.7633797764102609  0.524326146223956  0.9536090875912606  1.0000
  H   H38       1.0  0.26337916755203133  0.4756744007684404  0.04639107482575609  1.0000
  C   C1        1.0  0.5709196802357113  0.5325645097654502  0.7667678919001802  1.0000
  C   C2        1.0  0.07091680595151219  0.4674360233570668  0.23323174492004037  1.0000
  C   C3        1.0  0.2279928438902914  0.5249086574360362  0.6894292462551448  1.0000
  C   C4        1.0  0.7279882476282039  0.47508998563362353  0.3105713555827166  1.0000
  C   C5        1.0  0.2272935507459195  0.4172005305494153  0.725651697978968  1.0000
  C   C6        1.0  0.7272870166883791  0.5828019173138657  0.2743480317031342  1.0000
  C   C7        1.0  0.09410059385770349  0.11895054441348663  0.8057279684270784  1.0000
  C   C8        1.0  0.5940982774094294  0.8810499896987881  0.19427166622482162  1.0000
  C   C9        1.0  0.9339416095088708  0.9940744677585659  0.7995303606459532  1.0000
  C   C10       1.0  0.43393462306882213  0.005927040548201002  0.2004698395616415  1.0000
  C   C11       1.0  0.9361138763971938  0.9437682149163182  0.8748077035497135  1.0000
  C   C12       1.0  0.43611506412959494  0.056231374114176426  0.1251913017671527  1.0000
  C   C13       1.0  0.5816038763534975  0.8121284963220176  0.9592275955329868  1.0000
  C   C14       1.0  0.08160722706122668  0.18787298563645294  0.040771550432616314  1.0000
  C   C15       1.0  0.7679971231593044  0.765220446934045  0.015951896101249512  1.0000
  C   C16       1.0  0.2679992343390936  0.23478104298272487  0.984047232429532  1.0000
  C   C17       1.0  0.9048187537588744  0.019986620964452605  0.6233367285173799  1.0000
  C   C18       1.0  0.4048178434375203  0.9800120353076028  0.37666440037960314  1.0000
  C   C19       1.0  0.7207254050425861  0.11825206867046494  0.6424571471226699  1.0000
  C   C20       1.0  0.2207265085554653  0.8817475224686648  0.3575429655397643  1.0000
  C   C21       1.0  0.7401594776662249  0.23032030944533236  0.6086072610387845  1.0000
  C   C22       1.0  0.24016050579809436  0.769679288176036  0.3913933934050888  1.0000
  C   C23       1.0  0.9384757402266501  0.24531040252815475  0.5560254640530928  1.0000
  C   C24       1.0  0.43847669447963966  0.7546863471167387  0.44397555420695073  1.0000
  C   C25       1.0  0.1236548554234389  0.14589772603466142  0.5390885616325249  1.0000
  C   C26       1.0  0.6236562079558183  0.8541018609599011  0.46091156010969314  1.0000
  C   C27       1.0  0.10918609444697581  0.033572571988713704  0.5723470103134219  1.0000
  C   C28       1.0  0.6091834913591114  0.9664270200404772  0.4276536563816223  1.0000
  C   C29       1.0  0.9525797649246996  0.36321918313520035  0.5170902616026893  1.0000
  C   C30       1.0  0.4525826506027499  0.6367785098390899  0.48290972188380016  1.0000
  S   S1        1.0  0.735381478826639  0.7993004672481236  0.8693655893432537  1.0000
  S   S2        1.0  0.23539277429127742  0.2007038777201515  0.1306331598716  1.0000
  S   S3        1.0  0.8872991930116497  0.8762071208828176  0.6648358870604555  1.0000
  S   S4        1.0  0.3872920597724415  0.12379055799905103  0.335163015334203  1.0000
  N   N1        1.0  0.4419485212370873  0.4235169950313491  0.7737629905352392  1.0000
  N   N2        1.0  0.9419440644774325  0.5764825999006293  0.22623655783539223  1.0000
  N   N3        1.0  0.44621060941689455  0.5961704543434295  0.7162191074298151  1.0000
  N   N4        1.0  0.9462080445057737  0.4038291464230426  0.2837809841413232  1.0000
  N   N5        1.0  0.04295642231006269  0.8975231808889602  0.7438079384869383  1.0000
  N   N6        1.0  0.5429517970224323  0.10247640831241972  0.25619273440320006  1.0000
  O   O1        1.0  0.3391963514928448  0.11451882653523884  0.7861070794041825  1.0000
  O   O2        1.0  0.8391940101999323  0.8854826777263368  0.21389312966548601  1.0000
  O   O3        1.0  0.9795905055134356  0.2195783025096177  0.8348028447404092  1.0000
  O   O4        1.0  0.47958780657114625  0.7804222424092162  0.16519621025423703  1.0000
  O   O5        1.0  0.9319108228754087  0.8426992753786777  0.04983953727341371  1.0000
  O   O6        1.0  0.4319149731398468  0.157303175568785  0.9501596296694145  1.0000
  O   O7        1.0  0.7545964008214625  0.6475082918416107  0.028407258377292514  1.0000
  O   O8        1.0  0.2545965453692318  0.35249320315543303  0.9715924150063274  1.0000
  O   O9        1.0  0.0344001927999074  0.7785066030612317  0.6202718179509433  1.0000
  O   O10       1.0  0.5343994661232898  0.22149299142738954  0.3797293993386148  1.0000
  O   O11       1.0  0.6048588119687395  0.853566230028136  0.6809106684762442  1.0000
  O   O12       1.0  0.10485976678912579  0.14643241343672744  0.3190904884783451  1.0000
  O   O13       1.0  0.8198864062896264  0.45826906037216014  0.9143192376161338  1.0000
  O   O14       1.0  0.319885763215332  0.5417314833803959  0.08568037591609823  1.0000
