data_image0
_chemical_formula_structural       MnH14C20N6
_chemical_formula_sum              "Mn1 H14 C20 N6"
_cell_length_a       5.513834689322426
_cell_length_b       9.450151720656148
_cell_length_c       13.223610757464163
_cell_angle_alpha    106.57105142660878
_cell_angle_beta     91.91450957268957
_cell_angle_gamma    102.15078596373021

_space_group_name_H-M_alt    "P 1"
_space_group_IT_number       1

loop_
  _space_group_symop_operation_xyz
  'x, y, z'

loop_
  _atom_site_type_symbol
  _atom_site_label
  _atom_site_symmetry_multiplicity
  _atom_site_fract_x
  _atom_site_fract_y
  _atom_site_fract_z
  _atom_site_occupancy
  Mn  Mn1       1.0  4.788095175511622e-06  0.999999592766045  0.9999988383833343  1.0000
  H   H1        1.0  0.7180478660370184  0.4244315615124421  0.5101053548009064  1.0000
  H   H2        1.0  0.5620550770618352  0.3880275630635098  0.9228061142987942  1.0000
  H   H3        1.0  0.25685680314647635  0.342145283778521  0.05321898279204621  1.0000
  H   H4        1.0  0.5635182777606645  0.9365682178895582  0.8091238620775345  1.0000
  H   H5        1.0  0.39933943922886783  0.7523826663604396  0.6356978735953123  1.0000
  H   H6        1.0  0.021958676074547146  0.545980215238437  0.6588099671837784  1.0000
  H   H7        1.0  0.16742426806703034  0.7465856471002111  0.8304361808937772  1.0000
  H   H8        1.0  0.2819518548205693  0.5755691710501553  0.489894326852337  1.0000
  H   H9        1.0  0.4379450183711029  0.6119743105984767  0.07719455649061054  1.0000
  H   H10       1.0  0.7431428644318461  0.657855455540755  0.9467814553478323  1.0000
  H   H11       1.0  0.4364854455475681  0.06343365664097432  0.1908769059560386  1.0000
  H   H12       1.0  0.6006602283494544  0.24761807295883642  0.3643025645445591  1.0000
  H   H13       1.0  0.9780428587206914  0.4540205177584368  0.3411897630915491  1.0000
  H   H14       1.0  0.8325772667282081  0.2534150858966627  0.16956354938155024  1.0000
  C   C1        1.0  0.5527795830088564  0.1430538077214578  0.9626996632700585  1.0000
  C   C2        1.0  0.8950158719395986  0.3442286119788633  0.9867481606129263  1.0000
  C   C3        1.0  0.7550609682051714  0.4366501355411785  0.9567498561237929  1.0000
  C   C4        1.0  0.14291102739379372  0.41074778226457914  0.029987485108094333  1.0000
  C   C5        1.0  0.662664427860136  0.8494885971910335  0.7728078176882891  1.0000
  C   C6        1.0  0.570211100987713  0.7444961168012939  0.6752136403541728  1.0000
  C   C7        1.0  0.6939249588872585  0.6284127638622081  0.6304445340686302  1.0000
  C   C8        1.0  0.6042974632610196  0.5083504902274641  0.5319090561244908  1.0000
  C   C9        1.0  0.9153604688946757  0.6317845952608822  0.688245667040903  1.0000
  C   C10       1.0  0.9973908428719938  0.742931506994445  0.7845094574711597  1.0000
  C   C11       1.0  0.44721827063182223  0.8569469311635489  0.037300726247728774  1.0000
  C   C12       1.0  0.10498198170108  0.6557721269061361  0.013252228904868022  1.0000
  C   C13       1.0  0.24493688543550723  0.5633506033438209  0.043250533393994345  1.0000
  C   C14       1.0  0.8570882123299199  0.5892518227119937  0.9700127203822578  1.0000
  C   C15       1.0  0.33733705365583694  0.1505121425625191  0.22719266907367344  1.0000
  C   C16       1.0  0.4297885133113581  0.25550462927466105  0.3247875542723407  1.0000
  C   C17       1.0  0.3060742275571968  0.3715868478710432  0.3695564279083571  1.0000
  C   C18       1.0  0.3957022043173098  0.491650249091812  0.4680913820153877  1.0000
  C   C19       1.0  0.08464101262129729  0.36821614449267054  0.31175481972105973  1.0000
  C   C20       1.0  0.0026106919232376175  0.2570692260024288  0.21549027280416774  1.0000
  N   N1        1.0  0.33349825535026395  0.0904453922064477  0.9478678266469917  1.0000
  N   N2        1.0  0.7908811740058894  0.18998191228055109  0.9773072221973893  1.0000
  N   N3        1.0  0.8726824775826073  0.8497359784133209  0.8283943329767072  1.0000
  N   N4        1.0  0.6665027983111004  0.9095542132044017  0.05213242746544475  1.0000
  N   N5        1.0  0.2091185468516983  0.8100188202820533  0.022692459455854016  1.0000
  N   N6        1.0  0.12731857607875702  0.15026362699752843  0.17160592113572906  1.0000
