data_image0
_chemical_formula_structural       Ag4H16C20S4N8O12F12
_chemical_formula_sum              "Ag4 H16 C20 S4 N8 O12 F12"
_cell_length_a       5.331062332450307
_cell_length_b       9.751483651178857
_cell_length_c       18.759135257606136
_cell_angle_alpha    92.56596081807405
_cell_angle_beta     90.02915839593278
_cell_angle_gamma    105.83386486278653

_space_group_name_H-M_alt    "P 1"
_space_group_IT_number       1

loop_
  _space_group_symop_operation_xyz
  'x, y, z'

loop_
  _atom_site_type_symbol
  _atom_site_label
  _atom_site_symmetry_multiplicity
  _atom_site_fract_x
  _atom_site_fract_y
  _atom_site_fract_z
  _atom_site_occupancy
  Ag  Ag1       1.0  0.6666263859034273  0.558414401986333  0.7867792398355037  1.0000
  Ag  Ag2       1.0  0.10842710875431284  0.4417687280547468  0.7132207850234097  1.0000
  Ag  Ag3       1.0  0.3333646848587719  0.4415826902390947  0.21321892561211805  1.0000
  Ag  Ag4       1.0  0.8915749197298908  0.5582315196322014  0.286780133355606  1.0000
  H   H1        1.0  0.5433186501233535  0.7716788963210632  0.6840897662373282  1.0000
  H   H2        1.0  0.7725670654140729  0.22879368765694605  0.8157562547880419  1.0000
  H   H3        1.0  0.45669090084833636  0.22832139474370888  0.3159084884227923  1.0000
  H   H4        1.0  0.2274274564294599  0.7712065521822778  0.18424519591850702  1.0000
  H   H5        1.0  0.6231925093817877  0.8314718180765083  0.5537576338819576  1.0000
  H   H6        1.0  0.7925435395031214  0.16875612885274185  0.9460468562699095  1.0000
  H   H7        1.0  0.3768258868780094  0.1685274046388869  0.4462405920812601  1.0000
  H   H8        1.0  0.20744989630397007  0.8312494467832822  0.05395474091287161  1.0000
  H   H9        1.0  0.9501527578121977  0.7264269027679758  0.4879216278827414  1.0000
  H   H10       1.0  0.22453917628351414  0.2732322013981232  0.011995396122841801  1.0000
  H   H11       1.0  0.049859742980565565  0.2735680255937254  0.5120780789747386  1.0000
  H   H12       1.0  0.7754588243732883  0.7267712482325663  0.9880056099077736  1.0000
  H   H13       1.0  0.1664590399446837  0.5739371988953083  0.5573482145888351  1.0000
  H   H14       1.0  0.5933089747175019  0.4257659124025252  0.9427526557990475  1.0000
  H   H15       1.0  0.8335515772549299  0.4260577119600413  0.44265255783424357  1.0000
  H   H16       1.0  0.40668714630785974  0.5742375286043425  0.05724888294933091  1.0000
  C   C1        1.0  0.6785384237904779  0.7317145049532031  0.6510388377898766  1.0000
  C   C2        1.0  0.9477654576661295  0.26849835346445866  0.8488398113964379  1.0000
  C   C3        1.0  0.3214692435880693  0.26828576860521747  0.34896048243584943  1.0000
  C   C4        1.0  0.052230659397529966  0.7315050786598788  0.1511622601997757  1.0000
  C   C5        1.0  0.7242899136418757  0.763754192289717  0.5796141227914832  1.0000
  C   C6        1.0  0.9614303897809575  0.23635451837753144  0.9202606804217909  1.0000
  C   C7        1.0  0.2757228516469894  0.23624502231924543  0.420384635629354  1.0000
  C   C8        1.0  0.0385633185523488  0.7636478469496311  0.07974136169707442  1.0000
  C   C9        1.0  0.9016240680330867  0.706658838656935  0.543461738828519  1.0000
  C   C10       1.0  0.1958052330092457  0.293154698919345  0.9564669504838078  1.0000
  C   C11       1.0  0.09838709411224757  0.2933371659018746  0.4565374643983235  1.0000
  C   C12       1.0  0.804188479285763  0.7068476752903408  0.0435345587872149  1.0000
  C   C13       1.0  0.022675573213007182  0.6219032742362173  0.581446445406904  1.0000
  C   C14       1.0  0.4016409296810791  0.3778665468637783  0.9185576236415471  1.0000
  C   C15       1.0  0.9773323587683365  0.37809377124829524  0.41855438545057677  1.0000
  C   C16       1.0  0.5983533196362458  0.6221369032843073  0.08144338212891712  1.0000
  C   C17       1.0  0.18080181334443052  0.9176140995793883  0.8701987659562536  1.0000
  C   C18       1.0  0.2640115016278202  0.082380631839662  0.6299787713035557  1.0000
  C   C19       1.0  0.819189794440085  0.08238406858443877  0.12979889599080963  1.0000
  C   C20       1.0  0.7359867874020195  0.9176196430122586  0.3700205482717963  1.0000
  S   S1        1.0  0.24857522625458722  0.7395887671412851  0.8696442971213117  1.0000
  S   S2        1.0  0.5091235726786607  0.26053860511346016  0.6302564373310703  1.0000
  S   S3        1.0  0.7514174397277318  0.2604115173692563  0.1303544892159749  1.0000
  S   S4        1.0  0.4908779267066448  0.7394605844001346  0.3697439188528264  1.0000
  N   N1        1.0  0.797144596911835  0.6477467269496986  0.6843688224708162  1.0000
  N   N2        1.0  0.1504097865163061  0.35228366496689734  0.8155649904614679  1.0000
  N   N3        1.0  0.20285959957685407  0.3522503545823028  0.3156298767351729  1.0000
  N   N4        1.0  0.8495852683878339  0.647717641928203  0.18443648959235764  1.0000
  N   N5        1.0  0.9709560569396063  0.5934124430481731  0.6497697490868647  1.0000
  N   N6        1.0  0.378518692123528  0.4064497463936476  0.8502320195084894  1.0000
  N   N7        1.0  0.029049470273093767  0.4065835445216876  0.35023051944543243  1.0000
  N   N8        1.0  0.6214718058543126  0.5935537042718337  0.14976898600182414  1.0000
  O   O1        1.0  0.9931668986382931  0.6406150421926711  0.8839123635966645  1.0000
  O   O2        1.0  0.3517573112505943  0.35913876546028684  0.6159677488729686  1.0000
  O   O3        1.0  0.006827927425092579  0.35938205839788395  0.11608526926327302  1.0000
  O   O4        1.0  0.6482436590358063  0.6408593658799546  0.38403204511581635  1.0000
  O   O5        1.0  0.34322316958771637  0.7250597923720079  0.7972559389994631  1.0000
  O   O6        1.0  0.6191486991536124  0.27550509755182157  0.7025790236230237  1.0000
  O   O7        1.0  0.6567751194421234  0.2749404824799129  0.20274338057588892  1.0000
  O   O8        1.0  0.3808552129237482  0.7244951676414786  0.2974208291903864  1.0000
  O   O9        1.0  0.4381775701822475  0.7549013075597129  0.9271526521572117  1.0000
  O   O10       1.0  0.682856954953934  0.24505921514267476  0.5726671859293901  1.0000
  O   O11       1.0  0.5618113365371754  0.24509895970318496  0.07284719961560171  1.0000
  O   O12       1.0  0.31714160264041164  0.7549378405178544  0.4273331114298814  1.0000
  F   F1        1.0  0.9953785638816511  0.9206299251838601  0.8213889274588342  1.0000
  F   F2        1.0  0.0758179502415999  0.0795291784885848  0.6787754981827306  1.0000
  F   F3        1.0  0.004610623287398092  0.0793671495352157  0.17861030355439317  1.0000
  F   F4        1.0  0.9241776496082678  0.9204732221099688  0.32122441267485874  1.0000
  F   F5        1.0  0.400965552040887  0.021517965759336698  0.8552970570416107  1.0000
  F   F6        1.0  0.38093591138093075  0.97876855554474  0.6450410902892472  1.0000
  F   F7        1.0  0.5990268851006775  0.9784781124466448  0.14469788210178797  1.0000
  F   F8        1.0  0.6190599451483294  0.02123059921486  0.3549613968957744  1.0000
  F   F9        1.0  0.09853776955171849  0.9512873019923161  0.9356510984234633  1.0000
  F   F10       1.0  0.14782860163614936  0.0483082425126113  0.56454733982374  1.0000
  F   F11       1.0  0.9014658858462424  0.0487162090399309  0.06434617806251451  1.0000
  F   F12       1.0  0.8521766411652294  0.9516909287185342  0.4354540823159852  1.0000
