data_image0
_chemical_formula_structural       Gd4H22C22N2O32
_chemical_formula_sum              "Gd4 H22 C22 N2 O32"
_cell_length_a       7.882302688539212
_cell_length_b       10.816503485253017
_cell_length_c       12.547004141983008
_cell_angle_alpha    93.97941476963909
_cell_angle_beta     105.17611572392977
_cell_angle_gamma    107.7151656357195

_space_group_name_H-M_alt    "P 1"
_space_group_IT_number       1

loop_
  _space_group_symop_operation_xyz
  'x, y, z'

loop_
  _atom_site_type_symbol
  _atom_site_label
  _atom_site_symmetry_multiplicity
  _atom_site_fract_x
  _atom_site_fract_y
  _atom_site_fract_z
  _atom_site_occupancy
  Gd  Gd1       1.0  0.27157695408147486  0.17902634648975632  0.39892448763666966  1.0000
  Gd  Gd2       1.0  0.7284214640801352  0.8209698656661075  0.6010744105287315  1.0000
  Gd  Gd3       1.0  0.8172648789548304  0.5360516911457509  0.19002267964072664  1.0000
  Gd  Gd4       1.0  0.1827432013673089  0.4639514538136638  0.8099757221276176  1.0000
  H   H1        1.0  0.39563649307135057  0.14942655310711223  0.9806729341511085  1.0000
  H   H2        1.0  0.6043669396184228  0.8505687892675553  0.019332268158322532  1.0000
  H   H3        1.0  0.22242094953652014  0.9067214816683418  0.9147420160574239  1.0000
  H   H4        1.0  0.7775555007557314  0.09328133804259409  0.08525387189789767  1.0000
  H   H5        1.0  0.06201263193469229  0.776686820027443  0.03991280545259458  1.0000
  H   H6        1.0  0.937958061051667  0.22331495018305952  0.9600813350419626  1.0000
  H   H7        1.0  0.9037870492150191  0.10898917113277662  0.43775746674017285  1.0000
  H   H8        1.0  0.09622018677794147  0.891012022854753  0.5622422856371613  1.0000
  H   H9        1.0  0.019673060255350105  0.12476721749172272  0.5611185355308235  1.0000
  H   H10       1.0  0.9803194170267562  0.8752387599458445  0.4388847944304499  1.0000
  H   H11       1.0  0.6045988656520224  0.4268642171507793  0.5396276406615853  1.0000
  H   H12       1.0  0.3954074105381906  0.5731262029702222  0.460371338157067  1.0000
  H   H13       1.0  0.6333878969829172  0.30451174203545145  0.5874854793773776  1.0000
  H   H14       1.0  0.36661511736418373  0.6954796970926652  0.412521026044942  1.0000
  H   H15       1.0  0.4215380419718359  0.5279663735638708  0.6722240917099354  1.0000
  H   H16       1.0  0.5784710172626079  0.47203290645902735  0.3277782226590275  1.0000
  H   H17       1.0  0.25014467524200507  0.41965963928793565  0.5813549888515295  1.0000
  H   H18       1.0  0.7498683003128125  0.5803367407562449  0.41864696508477545  1.0000
  H   H19       1.0  0.41225469771068646  0.3535057004223106  0.9807111799701002  1.0000
  H   H20       1.0  0.587750228178365  0.6464876249944069  0.01928616458956608  1.0000
  H   H21       1.0  0.5352155560073798  0.4072300329360772  0.9071523705816272  1.0000
  H   H22       1.0  0.4647809996027663  0.59275929405748  0.09284424598017439  1.0000
  C   C1        1.0  0.3226061222842702  0.14566022386350852  0.13525726125897108  1.0000
  C   C2        1.0  0.6773941406847683  0.8543370100108945  0.8647443726082356  1.0000
  C   C3        1.0  0.32255514728265666  0.0892268665496374  0.03157398809165807  1.0000
  C   C4        1.0  0.6774456101926417  0.9107742943390066  0.968428747218368  1.0000
  C   C5        1.0  0.22762939591311954  0.9546908681140849  0.9954504353455744  1.0000
  C   C6        1.0  0.7723598316627615  0.04531990481613951  0.004546293809390466  1.0000
  C   C7        1.0  0.13718337283095391  0.8817946721789269  0.06412074007398864  1.0000
  C   C8        1.0  0.8627993077074975  0.1182101883634985  0.9358778230747331  1.0000
  C   C9        1.0  0.1453839195415087  0.9460187166082437  0.1668957527565738  1.0000
  C   C10       1.0  0.8545948269325337  0.05398318046911751  0.8331036249230122  1.0000
  C   C11       1.0  0.42352574930821163  0.2879626194018031  0.18527977898745718  1.0000
  C   C12       1.0  0.5764890418442548  0.7120377021989555  0.8147234813236961  1.0000
  C   C13       1.0  0.05773245406479793  0.8773732622513961  0.2492801160464565  1.0000
  C   C14       1.0  0.9422518758220092  0.12262670110784057  0.7507160262722932  1.0000
  C   C15       1.0  0.9663117234181939  0.3024434235441618  0.2656827854102133  1.0000
  C   C16       1.0  0.03369393938999822  0.6975626913942463  0.7343217923528014  1.0000
  C   C17       1.0  0.09474955247517877  0.421731661494235  0.3579362270931199  1.0000
  C   C18       1.0  0.9052573260510498  0.5782773640568734  0.6420647217192578  1.0000
  C   C19       1.0  0.5515594272358867  0.0114384253526723  0.45447678292061494  1.0000
  C   C20       1.0  0.4484391998871969  0.9885469799436348  0.545516737506716  1.0000
  C   C21       1.0  0.0966210331602683  0.5201284890865667  0.0446851378229525  1.0000
  C   C22       1.0  0.9033788469541763  0.47987656842885695  0.9553168909607306  1.0000
  N   N1        1.0  0.2362088910095181  0.07485943088451562  0.20098955436262134  1.0000
  N   N2        1.0  0.7637865097585319  0.9251387203064712  0.7990105844719719  1.0000
  O   O1        1.0  0.42450552745680875  0.32187109392821606  0.2849742059911548  1.0000
  O   O2        1.0  0.5755063008997325  0.6781282547921704  0.7150325258347151  1.0000
  O   O3        1.0  0.5032523228873131  0.36628477580821783  0.12862913715090224  1.0000
  O   O4        1.0  0.49676080117276206  0.6337145795319472  0.8713769980884221  1.0000
  O   O5        1.0  0.0728439587107275  0.949122665268483  0.3383644936528895  1.0000
  O   O6        1.0  0.9271285968271029  0.050885990104340806  0.6616319284452741  1.0000
  O   O7        1.0  0.9780407744203002  0.7545303721141039  0.2267842366270826  1.0000
  O   O8        1.0  0.021955134776135282  0.24548049729551735  0.773215921743727  1.0000
  O   O9        1.0  0.0011631462915460164  0.1961772359618692  0.26846169326817904  1.0000
  O   O10       1.0  0.9988368861500734  0.8038278690889271  0.7315451446269134  1.0000
  O   O11       1.0  0.8363018628568141  0.32201913167774177  0.19242308810890302  1.0000
  O   O12       1.0  0.16370554320736372  0.6779879732889498  0.8075810192816417  1.0000
  O   O13       1.0  0.23432272591059447  0.40571696337902813  0.42785243655784194  1.0000
  O   O14       1.0  0.7656828899437899  0.5942862079536512  0.5721511659764146  1.0000
  O   O15       1.0  0.055939377110625854  0.5263031593347876  0.35543493599161013  1.0000
  O   O16       1.0  0.944086266532544  0.47370699775964914  0.6445633974532823  1.0000
  O   O17       1.0  0.520768094051931  0.0943045464055032  0.3924674344343514  1.0000
  O   O18       1.0  0.47922481889716545  0.9056856807567185  0.6075246859525902  1.0000
  O   O19       1.0  0.659259981240993  0.9457906966777971  0.4504629098185687  1.0000
  O   O20       1.0  0.34073026795936556  0.054196565716566183  0.5495286269941316  1.0000
  O   O21       1.0  0.8936040066757585  0.44491892341484623  0.8558051179200274  1.0000
  O   O22       1.0  0.10640114455328133  0.5550899608329232  0.14418280166322006  1.0000
  O   O23       1.0  0.23087717570294328  0.5136688506949695  0.008304151025555496  1.0000
  O   O24       1.0  0.7691276994103757  0.4863244588766164  0.9916915904969766  1.0000
  O   O25       1.0  0.028575106285657587  0.15582103672495856  0.48914437681381157  1.0000
  O   O26       1.0  0.9714296360297825  0.8441831034738815  0.5108591470024918  1.0000
  O   O27       1.0  0.5383142170218278  0.3326533989277819  0.5392337652112785  1.0000
  O   O28       1.0  0.461692062990302  0.6673340934326148  0.4607658414157639  1.0000
  O   O29       1.0  0.3089734109231088  0.448374160160057  0.6623381633965832  1.0000
  O   O30       1.0  0.6910382435403124  0.5516222053417793  0.3376635856076857  1.0000
  O   O31       1.0  0.4024984095413018  0.36078778243150117  0.9011477076058083  1.0000
  O   O32       1.0  0.5975044270907617  0.6392036012386697  0.09885318718652762  1.0000
