data_image0
_chemical_formula_structural       Ba4P4H8C4O20
_chemical_formula_sum              "Ba4 P4 H8 C4 O20"
_cell_length_a       7.402305635673404
_cell_length_b       7.401546690770037
_cell_length_c       11.025779259353982
_cell_angle_alpha    93.89491033296258
_cell_angle_beta     108.69066295798774
_cell_angle_gamma    114.93887154406005

_space_group_name_H-M_alt    "P 1"
_space_group_IT_number       1

loop_
  _space_group_symop_operation_xyz
  'x, y, z'

loop_
  _atom_site_type_symbol
  _atom_site_label
  _atom_site_symmetry_multiplicity
  _atom_site_fract_x
  _atom_site_fract_y
  _atom_site_fract_z
  _atom_site_occupancy
  Ba  Ba1       1.0  0.23346591710506437  0.998391763613199  0.8167123160408636  1.0000
  Ba  Ba2       1.0  0.6816670354711788  0.4168136902384985  0.6833182378907169  1.0000
  Ba  Ba3       1.0  0.7665349108909751  0.0016097797487333002  0.18328795865760128  1.0000
  Ba  Ba4       1.0  0.3183344627480267  0.5831863209369176  0.31668210567438143  1.0000
  P   P1        1.0  0.9126628346471505  0.6940512774897556  0.4394808861484377  1.0000
  P   P2        1.0  0.7546510665392248  0.4732388097586623  0.0605933845564124  1.0000
  P   P3        1.0  0.08733875400550765  0.3059517901570601  0.5605214383347388  1.0000
  P   P4        1.0  0.24535051799474417  0.5267642670578638  0.9394071255444842  1.0000
  H   H1        1.0  0.8511326649087961  0.49127623377003715  0.3818491623626628  1.0000
  H   H2        1.0  0.6096626779951961  0.4695217915453043  0.1182890709682738  1.0000
  H   H3        1.0  0.14886740860865896  0.5087237715524466  0.6181517841244998  1.0000
  H   H4        1.0  0.39033815000084343  0.5304797518166282  0.8817112037301912  1.0000
  H   H5        1.0  0.269011105870561  0.8862658070174377  0.5132121813178685  1.0000
  H   H6        1.0  0.8730087441567277  0.7557645397822056  0.986775761936613  1.0000
  H   H7        1.0  0.7309889635281978  0.11373420747475647  0.486786950787014  1.0000
  H   H8        1.0  0.1269920797206225  0.2442370127494442  0.013222698379564699  1.0000
  C   C1        1.0  0.6706517151168397  0.8686478414971502  0.8238007191129242  1.0000
  C   C2        1.0  0.545031261595426  0.847088446967696  0.6761589723724414  1.0000
  C   C3        1.0  0.3293475998033345  0.13135063495559507  0.17619908478066293  1.0000
  C   C4        1.0  0.45496662450430847  0.15291003280183446  0.3238396200609301  1.0000
  O   O1        1.0  0.946174321342575  0.712637085128449  0.5838839805882331  1.0000
  O   O2        1.0  0.6286834847588453  0.3621667786335295  0.9162145417662516  1.0000
  O   O3        1.0  0.05382432129508883  0.2873629280956819  0.41611484724757025  1.0000
  O   O4        1.0  0.3713165866992653  0.6378332312738095  0.0837854975297745  1.0000
  O   O5        1.0  0.7513963154597217  0.7544703558068446  0.35393658900530767  1.0000
  O   O6        1.0  0.9005922160167259  0.3974719297736299  0.14611370737647883  1.0000
  O   O7        1.0  0.24860375599838844  0.24552965410049407  0.6460634502907112  1.0000
  O   O8        1.0  0.09940937263593225  0.6025311378731857  0.853888617106705  1.0000
  O   O9        1.0  0.14000254467341458  0.8162622839383429  0.4244571355906288  1.0000
  O   O10       1.0  0.8919960608774601  0.7156275800273304  0.07557411058724024  1.0000
  O   O11       1.0  0.8599961000235936  0.18373772470092578  0.575542599436325  1.0000
  O   O12       1.0  0.10800401263998785  0.2843724252951532  0.9244268358999294  1.0000
  O   O13       1.0  0.6122203121080644  0.9295536379473147  0.9063239782247692  1.0000
  O   O14       1.0  0.523780183923506  0.7064216782022257  0.5935617968323541  1.0000
  O   O15       1.0  0.3877804254545226  0.070444848943211  0.0936743155556101  1.0000
  O   O16       1.0  0.4762197991604964  0.2935752706488515  0.406437168736737  1.0000
  O   O17       1.0  0.8173659179096334  0.811554379666653  0.8490885462365938  1.0000
  O   O18       1.0  0.46258256872106757  0.9684553543185996  0.6509265491169955  1.0000
  O   O19       1.0  0.18263700501132263  0.18844563736168135  0.1509111944064401  1.0000
  O   O20       1.0  0.5374173301075089  0.031538524306512286  0.3490731571074334  1.0000
