data_image0
_chemical_formula_structural       Zn2H20C36N16Cl8O4
_chemical_formula_sum              "Zn2 H20 C36 N16 Cl8 O4"
_cell_length_a       8.711132373029145
_cell_length_b       10.287298648058885
_cell_length_c       12.003698846902822
_cell_angle_alpha    98.87362543351645
_cell_angle_beta     90.0001636661514
_cell_angle_gamma    90.00021891266861

_space_group_name_H-M_alt    "P 1"
_space_group_IT_number       1

loop_
  _space_group_symop_operation_xyz
  'x, y, z'

loop_
  _atom_site_type_symbol
  _atom_site_label
  _atom_site_symmetry_multiplicity
  _atom_site_fract_x
  _atom_site_fract_y
  _atom_site_fract_z
  _atom_site_occupancy
  Zn  Zn1       1.0  0.5000012488592561  0.499999259709881  0.9999995819884191  1.0000
  Zn  Zn2       1.0  0.999999675816902  0.9999991381912993  8.655044681404956e-07  1.0000
  H   H1        1.0  0.6376085785108218  0.38914504313492426  0.2962333960206252  1.0000
  H   H2        1.0  0.13760488126807502  0.11085274872287704  0.703767089333283  1.0000
  H   H3        1.0  0.36239078633593647  0.6108581963917746  0.7037684928096227  1.0000
  H   H4        1.0  0.8623956315234979  0.8891465665350256  0.29623341083476623  1.0000
  H   H5        1.0  0.6282866846947854  0.5496867886554142  0.44721199331829814  1.0000
  H   H6        1.0  0.12828391167094114  0.9503102081867071  0.5527891710390378  1.0000
  H   H7        1.0  0.37170923627879654  0.45031747817748186  0.5527867084282079  1.0000
  H   H8        1.0  0.8717143052053798  0.04968812327891919  0.447211189856958  1.0000
  H   H9        1.0  0.4272424633382812  0.9297693059709645  0.4324472969567381  1.0000
  H   H10       1.0  0.927242362425197  0.5702258379446692  0.5675550422632014  1.0000
  H   H11       1.0  0.572753457627087  0.07023301504818143  0.5675494630772562  1.0000
  H   H12       1.0  0.0727581503703973  0.4297724500006482  0.43244864498421254  1.0000
  H   H13       1.0  0.43506453904305437  0.13231702620994673  0.12744992985108183  1.0000
  H   H14       1.0  0.9350635401154648  0.3676818585201929  0.8725521443546356  1.0000
  H   H15       1.0  0.5649371217097752  0.8676822564066526  0.8725530650797992  1.0000
  H   H16       1.0  0.06493926858639298  0.6323164729539528  0.12744821654720795  1.0000
  H   H17       1.0  0.8523171382729798  0.31964622855372243  0.06746332628762272  1.0000
  H   H18       1.0  0.35231925296479016  0.1803524253053581  0.9325327161544621  1.0000
  H   H19       1.0  0.14768222655073518  0.6803511626505883  0.9325335689922128  1.0000
  H   H20       1.0  0.6476835557354335  0.8196459170499325  0.06746681316025871  1.0000
  C   C1        1.0  0.5751241768604629  0.4446813121032208  0.23957371920159432  1.0000
  C   C2        1.0  0.0751204552857061  0.05531624789814771  0.7604266070799427  1.0000
  C   C3        1.0  0.4248751879764471  0.5553199924908657  0.7604253963290192  1.0000
  C   C4        1.0  0.9248789095511116  0.9446830564764781  0.23957472467377272  1.0000
  C   C5        1.0  0.5668159752651009  0.61681222625586  0.40099492062709885  1.0000
  C   C6        1.0  0.066813084441371  0.883184520728804  0.5990077504126462  1.0000
  C   C7        1.0  0.4331810936632436  0.38319205146030555  0.5990029495337411  1.0000
  C   C8        1.0  0.9331851324382046  0.11681378897453241  0.40099427365760226  1.0000
  C   C9        1.0  0.5253250646251358  0.5738187487975284  0.28680941611231964  1.0000
  C   C10       1.0  0.025320524154004397  0.9261778551078802  0.7131923177109343  1.0000
  C   C11       1.0  0.4746754481657547  0.42618357223013703  0.7131873439275154  1.0000
  C   C12       1.0  0.9746765447716756  0.07382143838135143  0.2868098456269763  1.0000
  C   C13       1.0  0.4388484274406608  0.6582853836336682  0.22406440018252743  1.0000
  C   C14       1.0  0.9388469284067684  0.8417107980139493  0.7759372762640242  1.0000
  C   C15       1.0  0.5611509373954746  0.3417169265107277  0.7759331914429737  1.0000
  C   C16       1.0  0.0611524364332965  0.15828848459839415  0.22406571866393676  1.0000
  C   C17       1.0  0.4125296405027257  0.7895084035851168  0.2817711840001706  1.0000
  C   C18       1.0  0.9125296193275929  0.7104876804060042  0.7182304254460874  1.0000
  C   C19       1.0  0.5874708722915115  0.21049589589972587  0.7182250229908149  1.0000
  C   C20       1.0  0.08747089346723408  0.2895116130896086  0.2817717378962143  1.0000
  C   C21       1.0  0.5294641542827492  0.7419156594465904  0.45289493298725614  1.0000
  C   C22       1.0  0.029461643879756107  0.7580809489400624  0.5471076429629704  1.0000
  C   C23       1.0  0.4705340626003506  0.2580886291528516  0.5471021055879248  1.0000
  C   C24       1.0  0.970535425045064  0.24191734988000493  0.4528952126929299  1.0000
  C   C25       1.0  0.4543396707976584  0.8300696105519169  0.3925506229109602  1.0000
  C   C26       1.0  0.9543378798366289  0.6699256339082424  0.6074517852907065  1.0000
  C   C27       1.0  0.5456596940393367  0.16993369426163704  0.6074462763965514  1.0000
  C   C28       1.0  0.0456626329548513  0.3300716811301997  0.39255093110045186  1.0000
  C   C29       1.0  0.5548032637434233  0.14486673235631292  0.10638145027932921  1.0000
  C   C30       1.0  0.0548037124920384  0.355131725156312  0.8936197951309381  1.0000
  C   C31       1.0  0.4451983970077791  0.8551325611414317  0.8936207130644293  1.0000
  C   C32       1.0  0.9452002441670543  0.644867600989123  0.10637987345437243  1.0000
  C   C33       1.0  0.7714147504034586  0.24099644896453762  0.07483718131296513  1.0000
  C   C34       1.0  0.2714160408700863  0.25900188293204723  0.9251603183415966  1.0000
  C   C35       1.0  0.22858576238400022  0.7590018933864897  0.9251623479988356  1.0000
  C   C36       1.0  0.7285867678301443  0.7409964594232434  0.07483921097312424  1.0000
  N   N1        1.0  0.5547648378040861  0.3889351348352577  0.13502425067951412  1.0000
  N   N2        1.0  0.0547629294377785  0.11106334429270248  0.8649753314556818  1.0000
  N   N3        1.0  0.445236822939755  0.6110632075179013  0.864975278633743  1.0000
  N   N4        1.0  0.9452387313142836  0.8889369438741993  0.13502613957008694  1.0000
  N   N5        1.0  0.7909629658531115  0.11217809735195063  0.05232302837350741  1.0000
  N   N6        1.0  0.2909649238684224  0.3878193232940107  0.9476743817784765  1.0000
  N   N7        1.0  0.20903754693186732  0.8878192612110639  0.9476763616691599  1.0000
  N   N8        1.0  0.7090390327849363  0.6121790408256942  0.05232348436345551  1.0000
  N   N9        1.0  0.6241986524007643  0.26497458527850887  0.11035354155453801  1.0000
  N   N10       1.0  0.12419854630073962  0.23502415149586403  0.8896462173470568  1.0000
  N   N11       1.0  0.375803008348818  0.7350247191003803  0.8896477902020975  1.0000
  N   N12       1.0  0.8758042624035981  0.7649751637663016  0.11035428282391996  1.0000
  N   N13       1.0  0.6553191948125842  0.05111168215611169  0.0724884571779825  1.0000
  N   N14       1.0  0.15532019891035284  0.4488871592159429  0.927512212538609  1.0000
  N   N15       1.0  0.3446813179789885  0.9488876331017906  0.927512042990074  1.0000
  N   N16       1.0  0.8446837577503672  0.5511121560483546  0.07248828763382421  1.0000
  Cl  Cl1       1.0  0.3194293251386853  0.896864797361616  0.20833330672891756  1.0000
  Cl  Cl2       1.0  0.8194291136591687  0.6031319140753696  0.7916690365592345  1.0000
  Cl  Cl3       1.0  0.6805677437830653  0.10313752365966171  0.7916634533065405  1.0000
  Cl  Cl4       1.0  0.1805713991372784  0.39686736853909815  0.20833395837019  1.0000
  Cl  Cl5       1.0  0.5734416134634017  0.7947434292498129  0.5937555437822439  1.0000
  Cl  Cl6       1.0  0.07343945471761511  0.7052553207786687  0.40624659107707833  1.0000
  Cl  Cl7       1.0  0.42655201159579553  0.20526084845996456  0.4062423263742119  1.0000
  Cl  Cl8       1.0  0.9265564662475754  0.2947429998015566  0.5937546014031199  1.0000
  O   O1        1.0  0.38537404533299474  0.6230927578835692  0.12383169700925124  1.0000
  O   O2        1.0  0.8853719542072865  0.8769042200085551  0.8761691509838556  1.0000
  O   O3        1.0  0.6146287633656939  0.3769075955723268  0.8761647844952379  1.0000
  O   O4        1.0  0.1146274106336378  0.12309605727294581  0.1238331516261155  1.0000
