data_image0
_chemical_formula_structural       Ag4H88C40S4N20O16
_chemical_formula_sum              "Ag4 H88 C40 S4 N20 O16"
_cell_length_a       6.284132945836484
_cell_length_b       10.598063924418453
_cell_length_c       30.584727441250063
_cell_angle_alpha    89.99953629455779
_cell_angle_beta     90.00009265803637
_cell_angle_gamma    92.07290574812437

_space_group_name_H-M_alt    "P 1"
_space_group_IT_number       1

loop_
  _space_group_symop_operation_xyz
  'x, y, z'

loop_
  _atom_site_type_symbol
  _atom_site_label
  _atom_site_symmetry_multiplicity
  _atom_site_fract_x
  _atom_site_fract_y
  _atom_site_fract_z
  _atom_site_occupancy
  Ag  Ag1       1.0  0.864355899241879  0.5970856499260437  0.7595552132799881  1.0000
  Ag  Ag2       1.0  0.635644678280869  0.9029209266219738  0.2595542043973822  1.0000
  Ag  Ag3       1.0  0.13563924468417812  0.40291824657661823  0.2404446256527919  1.0000
  Ag  Ag4       1.0  0.3643535659785116  0.09708199881896463  0.7404459614979402  1.0000
  H   H1        1.0  0.2189552168243125  0.2238756374985443  0.838422105570075  1.0000
  H   H2        1.0  0.2810509178032774  0.276123189493184  0.338419549370947  1.0000
  H   H3        1.0  0.7810383367780033  0.7761282724842647  0.1615780603229524  1.0000
  H   H4        1.0  0.7189533664857778  0.7238759056590568  0.6615799626097996  1.0000
  H   H5        1.0  0.5021786231130321  0.2358706888411107  0.8384898233462863  1.0000
  H   H6        1.0  0.9978238881900907  0.26412688430468023  0.3384883645437781  1.0000
  H   H7        1.0  0.4978115892013619  0.7641313599517902  0.1615083807853068  1.0000
  H   H8        1.0  0.0021822273764300127  0.735875029622811  0.6615121283150387  1.0000
  H   H9        1.0  0.15224293923959206  0.5637717926146452  0.8464056618003113  1.0000
  H   H10       1.0  0.34776442259941126  0.9362283461149732  0.3464023506272156  1.0000
  H   H11       1.0  0.8477619875878162  0.43623485523996675  0.1535954849727261  1.0000
  H   H12       1.0  0.6522350907141005  0.063770789496516  0.6535965074314234  1.0000
  H   H13       1.0  0.018040524029352415  0.4126003184842376  0.8420422345053069  1.0000
  H   H14       1.0  0.4819655495312603  0.08739748112235905  0.34203865447732085  1.0000
  H   H15       1.0  0.981958041499631  0.5874063833060037  0.15795891226644443  1.0000
  H   H16       1.0  0.5180305421801846  0.9125988491977923  0.6579592227029138  1.0000
  H   H17       1.0  0.6823331086409113  0.44112331103870167  0.8443297367574303  1.0000
  H   H18       1.0  0.817675875336448  0.05887501786703813  0.3443287906319483  1.0000
  H   H19       1.0  0.31766648498673794  0.5588767686742172  0.15566814041816462  1.0000
  H   H20       1.0  0.1823240395651595  0.9411288381763827  0.6556717022229392  1.0000
  H   H21       1.0  0.5300832053156911  0.5804329547067512  0.8460574971348507  1.0000
  H   H22       1.0  0.9699283219783082  0.9195639841401546  0.3460559144701492  1.0000
  H   H23       1.0  0.46992242834598846  0.4195632946986621  0.1539413609290321  1.0000
  H   H24       1.0  0.0300729422941757  0.08043702616395622  0.6539432705467334  1.0000
  H   H25       1.0  0.0246156257706573  0.29608528278559026  0.775828634283215  1.0000
  H   H26       1.0  0.4753854853156554  0.2039159691595246  0.2758257026566824  1.0000
  H   H27       1.0  0.9753702974782427  0.7039224709660631  0.22417251248464248  1.0000
  H   H28       1.0  0.5246155380074455  0.7960822088703879  0.7241738093247462  1.0000
  H   H29       1.0  0.16480102010334013  0.3589876675003155  0.7290238389605008  1.0000
  H   H30       1.0  0.33519690236898475  0.14101752075446686  0.2290213590484669  1.0000
  H   H31       1.0  0.835183232502466  0.6410191556526218  0.2709766538872032  1.0000
  H   H32       1.0  0.6647980006059486  0.8589835434815146  0.7709781529277038  1.0000
  H   H33       1.0  0.3507207206843148  0.5571235957067132  0.7330834632281764  1.0000
  H   H34       1.0  0.1492765768585471  0.9428801757880196  0.2330810385259952  1.0000
  H   H35       1.0  0.6492714835436432  0.44288316003044786  0.2669167026605663  1.0000
  H   H36       1.0  0.8507165751574135  0.05711901375534012  0.7669181464919248  1.0000
  H   H37       1.0  0.3465384894990536  0.6489751201261811  0.7829830740939272  1.0000
  H   H38       1.0  0.15346392470920728  0.8510284067129064  0.2829805841486746  1.0000
  H   H39       1.0  0.6534599153946985  0.3510296934912845  0.21701741875931901  1.0000
  H   H40       1.0  0.84652922730762  0.14897078282669443  0.7170189278298196  1.0000
  H   H41       1.0  0.5509660692465275  0.3722790935891639  0.7296997211652325  1.0000
  H   H42       1.0  0.9490314940997849  0.12772574395480524  0.22969764920141963  1.0000
  H   H43       1.0  0.44901961304864824  0.6277258279070922  0.27030011776429314  1.0000
  H   H44       1.0  0.05096524015000632  0.8722781390677102  0.770301862771106  1.0000
  H   H45       1.0  0.6894294502672126  0.31814541458742  0.7768851392297762  1.0000
  H   H46       1.0  0.810571384036443  0.18185642196774413  0.2768835151614581  1.0000
  H   H47       1.0  0.31056553302012446  0.681856593757523  0.2231127379422091  1.0000
  H   H48       1.0  0.18942535021508183  0.8181474610472463  0.7231166507322156  1.0000
  H   H49       1.0  0.9306568618881812  0.5521050921563813  0.5946775737574727  1.0000
  H   H50       1.0  0.5693398027594299  0.9478882984353021  0.094676412261812  1.0000
  H   H51       1.0  0.0693363704488732  0.44789504145831677  0.4053232460619896  1.0000
  H   H52       1.0  0.4306756781134383  0.0520927511103011  0.9053250615100552  1.0000
  H   H53       1.0  0.9525253201927839  0.3902524979409563  0.5800113366947742  1.0000
  H   H54       1.0  0.5474688929529634  0.10974446867290771  0.0800072009736965  1.0000
  H   H55       1.0  0.0474678318301329  0.6097466915723047  0.419990464007725  1.0000
  H   H56       1.0  0.45254046756129895  0.8902394671239126  0.9199903492660438  1.0000
  H   H57       1.0  0.5546426902619644  0.3562942110344309  0.5916488166913397  1.0000
  H   H58       1.0  0.9453545244774305  0.14369962851888124  0.0916463711132636  1.0000
  H   H59       1.0  0.4453565821073795  0.6437020922802789  0.4083523300952692  1.0000
  H   H60       1.0  0.05464887632651033  0.8562890816454999  0.9083528139214464  1.0000
  H   H61       1.0  0.5404480498724881  0.5144396075303562  0.6098769689434462  1.0000
  H   H62       1.0  0.9595491775149085  0.9855590978054001  0.1098781380786917  1.0000
  H   H63       1.0  0.4595432708712295  0.48555676321517904  0.39012319695983416  1.0000
  H   H64       1.0  0.04047052812491359  0.014434197944304103  0.890123335676634  1.0000
  H   H65       1.0  0.33338272863888824  0.6054455130789694  0.5608065579051171  1.0000
  H   H66       1.0  0.16662780500261223  0.8945602132905609  0.060807873218671205  1.0000
  H   H67       1.0  0.6666136040314968  0.3945536494740054  0.4391945888768873  1.0000
  H   H68       1.0  0.8333972338265311  0.10543965064597674  0.9391929466072284  1.0000
  H   H69       1.0  0.2601287397861539  0.4526265754752289  0.5397351323212618  1.0000
  H   H70       1.0  0.2398754851056424  0.04737534856300841  0.0397332082624473  1.0000
  H   H71       1.0  0.7398659222446187  0.5473716564639802  0.4602666683828787  1.0000
  H   H72       1.0  0.7601364295359617  0.9526199028241467  0.9602649958829091  1.0000
  H   H73       1.0  0.5552775069313894  0.31979795793997573  0.5120362577623467  1.0000
  H   H74       1.0  0.9447287460457191  0.18019668866930524  0.0120340355462503  1.0000
  H   H75       1.0  0.4447282873690028  0.6802001796231638  0.48796456206233785  1.0000
  H   H76       1.0  0.055285867354157914  0.8197928711677778  0.9879677651739769  1.0000
  H   H77       1.0  0.8211685737264744  0.3855802683168649  0.514071871762944  1.0000
  H   H78       1.0  0.6788310878279518  0.11441155311287333  0.0140697345996657  1.0000
  H   H79       1.0  0.17882441766033005  0.6144170330273939  0.4859289480604829  1.0000
  H   H80       1.0  0.3211867062176593  0.8855779797714337  0.9859307582789114  1.0000
  H   H81       1.0  0.0395050167041333  0.756421829517393  0.8375247914284998  1.0000
  H   H82       1.0  0.4604972859901437  0.7435757217203476  0.3375250114166377  1.0000
  H   H83       1.0  0.9604927456504059  0.24357543140146742  0.1624737396718814  1.0000
  H   H84       1.0  0.5394976169865302  0.25642534250810917  0.6624751544806742  1.0000
  H   H85       1.0  0.801021004023781  0.7991669401791913  0.8378485668527348  1.0000
  H   H86       1.0  0.6989831705286207  0.7008378076959335  0.33784848134508394  1.0000
  H   H87       1.0  0.19898034056632238  0.20083501421130737  0.1621509451234004  1.0000
  H   H88       1.0  0.3010118930832917  0.29916514470529887  0.6621523384707332  1.0000
  C   C1        1.0  0.35725605751232337  0.2821528687738066  0.827864165527373  1.0000
  C   C2        1.0  0.14274684031562404  0.21784622815233945  0.3278610677853564  1.0000
  C   C3        1.0  0.6427310544739626  0.7178501510582509  0.1721356734051227  1.0000
  C   C4        1.0  0.8572559339664566  0.7821538245701948  0.6721387711543159  1.0000
  C   C5        1.0  0.15937260881347737  0.4695433347479894  0.8320018755155516  1.0000
  C   C6        1.0  0.3406366723178351  0.030455613025679895  0.3319987298936553  1.0000
  C   C7        1.0  0.8406292979964788  0.5304652282622584  0.16799861733305482  1.0000
  C   C8        1.0  0.659364591954649  0.9695453972784309  0.6680004551232273  1.0000
  C   C9        1.0  0.5367721856994194  0.48459738615832754  0.8327320290106214  1.0000
  C   C10       1.0  0.9632321262576867  0.0154031382725037  0.33273060750509126  1.0000
  C   C11       1.0  0.4632199382083185  0.5154084255037291  0.16726682903715331  1.0000
  C   C12       1.0  0.036761427340280824  0.9846007717291203  0.6672679235850794  1.0000
  C   C13       1.0  0.16475695839844207  0.3522948720070219  0.7647616199070056  1.0000
  C   C14       1.0  0.3352411541328379  0.14770949385037113  0.2647587940983697  1.0000
  C   C15       1.0  0.8352354064638873  0.6477137719066665  0.2352388729396679  1.0000
  C   C16       1.0  0.6647535882051159  0.8522896822203665  0.7352394100381545  1.0000
  C   C17       1.0  0.35016051728487707  0.5538108415876268  0.7690033563292646  1.0000
  C   C18       1.0  0.14983705160048544  0.9461930474164862  0.268999941576844  1.0000
  C   C19       1.0  0.6498315263095834  0.44619402596923413  0.2309968095621215  1.0000
  C   C20       1.0  0.8501517310193237  0.053810903055669726  0.7309969547094965  1.0000
  C   C21       1.0  0.5467188935441456  0.3650994766414116  0.7654394637642882  1.0000
  C   C22       1.0  0.9532819602092246  0.13490356737948161  0.2654390078910467  1.0000
  C   C23       1.0  0.4532649574700899  0.6349026260946503  0.23455808644487067  1.0000
  C   C24       1.0  0.04672415535294762  0.8650983465668108  0.7345598501649065  1.0000
  C   C25       1.0  0.860142891672325  0.45667259176664743  0.5991590170743137  1.0000
  C   C26       1.0  0.6398515036276251  0.043324878280138514  0.0991573933556111  1.0000
  C   C27       1.0  0.1398499390835966  0.5433228213860276  0.4008427836334718  1.0000
  C   C28       1.0  0.3601647000951189  0.9566646680805564  0.9008437534437874  1.0000
  C   C29       1.0  0.6247381278841289  0.4531861524176649  0.5871618128985077  1.0000
  C   C30       1.0  0.8752670146179967  0.046807722961112616  0.0871602689503561  1.0000
  C   C31       1.0  0.3752595541623478  0.5468101643734332  0.4128399878089298  1.0000
  C   C32       1.0  0.12475714072515841  0.9531817559913306  0.9128398969689329  1.0000
  C   C33       1.0  0.3732863697478024  0.5351906245576288  0.5359223497162233  1.0000
  C   C34       1.0  0.12672203964613263  0.9648109674854126  0.035923450878826216  1.0000
  C   C35       1.0  0.6267032000421581  0.46480387147271085  0.46407945099224435  1.0000
  C   C36       1.0  0.8733045895110934  0.035188882952169806  0.9640786767896827  1.0000
  C   C37       1.0  0.6536174568254226  0.40906512416719926  0.5094721252717065  1.0000
  C   C38       1.0  0.8463906941090825  0.09093334431483413  0.0094707723307508  1.0000
  C   C39       1.0  0.3463737836041502  0.5909303024769131  0.4905290215146181  1.0000
  C   C40       1.0  0.15363132470347554  0.9090684347735735  0.9905297205312918  1.0000
  S   S1        1.0  0.9031516224315794  0.4152059668292767  0.6551484663698802  1.0000
  S   S2        1.0  0.5968389421883131  0.08479780796469072  0.155146054910027  1.0000
  S   S3        1.0  0.09683883084349534  0.5847989141889232  0.344853661284624  1.0000
  S   S4        1.0  0.40317679564084596  0.9152049691570172  0.8448537840282526  1.0000
  N   N1        1.0  0.5459839139391818  0.493507448686522  0.7841074226574705  1.0000
  N   N2        1.0  0.9540201394227951  0.006494194702106901  0.2841056959154145  1.0000
  N   N3        1.0  0.4540129006247399  0.5064973784374305  0.2158911084320181  1.0000
  N   N4        1.0  0.045977944203087914  0.9935068425585388  0.715894469982544  1.0000
  N   N5        1.0  0.35066623369387884  0.40828067024961706  0.8470994031282117  1.0000
  N   N6        1.0  0.14934455742269392  0.09171602842182121  0.3470973190156529  1.0000
  N   N7        1.0  0.6493385324930684  0.5917240894547933  0.1528991279628826  1.0000
  N   N8        1.0  0.8506614778244668  0.908284941426807  0.6529021929627703  1.0000
  N   N9        1.0  0.3578069360516949  0.2875452902488576  0.7791401664921693  1.0000
  N   N10       1.0  0.1421973732982167  0.2124558585098271  0.2791383916513936  1.0000
  N   N11       1.0  0.6421866978656325  0.7124595638316223  0.2208593454783951  1.0000
  N   N12       1.0  0.8578071519419627  0.7875460689090945  0.7208614472859622  1.0000
  N   N13       1.0  0.15547676227273402  0.4809576386630783  0.7833135058091756  1.0000
  N   N14       1.0  0.3445261395770843  0.019045315737891106  0.2833103939891757  1.0000
  N   N15       1.0  0.8445170322824396  0.5190491035788867  0.2166876409616094  1.0000
  N   N16       1.0  0.6554718637311795  0.9809547774363667  0.7166894449495372  1.0000
  N   N17       1.0  0.5928760630127244  0.4996844622571076  0.5428285030170557  1.0000
  N   N18       1.0  0.9071273337095037  0.0003113908966127997  0.0428271028814464  1.0000
  N   N19       1.0  0.40711851870129584  0.5003128255919551  0.4571732976884135  1.0000
  N   N20       1.0  0.09289038001848846  0.9996771979013136  0.9571730630378782  1.0000
  O   O1        1.0  0.774535318212891  0.5001172047002387  0.6814869575428091  1.0000
  O   O2        1.0  0.7254624506327617  0.9998817409625008  0.1814844004151084  1.0000
  O   O3        1.0  0.2254574322271452  0.49987726435853125  0.31851517012687225  1.0000
  O   O4        1.0  0.2745502671859086  0.0001229512847515999  0.8185174002833264  1.0000
  O   O5        1.0  0.8310798216825005  0.2812768577313349  0.65972380158572  1.0000
  O   O6        1.0  0.6689153776100909  0.2187248831428264  0.15972136524612074  1.0000
  O   O7        1.0  0.16892136227844654  0.7187232084600554  0.340277345195922  1.0000
  O   O8        1.0  0.33109343669905655  0.7812713393023005  0.8402768388972675  1.0000
  O   O9        1.0  0.13469400167807072  0.4344040265460338  0.6621661746118689  1.0000
  O   O10       1.0  0.36530801494505744  0.06559888341027433  0.1621655545500573  1.0000
  O   O11       1.0  0.8653079854477711  0.5656054805581193  0.3378339912748416  1.0000
  O   O12       1.0  0.6347035784312852  0.9343925916087772  0.8378333035217267  1.0000
  O   O13       1.0  0.8906511732638124  0.7251627079306148  0.834105971031704  1.0000
  O   O14       1.0  0.6093620414286676  0.774836380639258  0.3341046609427352  1.0000
  O   O15       1.0  0.10935764105229141  0.2748335144844134  0.1658948487962633  1.0000
  O   O16       1.0  0.39063294186301795  0.22516562768687015  0.665894851032121  1.0000
