data_image0
_chemical_formula_structural       H16Pb2C24N8O16F4
_chemical_formula_sum              "H16 Pb2 C24 N8 O16 F4"
_cell_length_a       4.928640231031049
_cell_length_b       10.96739778328788
_cell_length_c       14.792262258793224
_cell_angle_alpha    99.29356859323353
_cell_angle_beta     95.34047970799728
_cell_angle_gamma    101.2579981669266

_space_group_name_H-M_alt    "P 1"
_space_group_IT_number       1

loop_
  _space_group_symop_operation_xyz
  'x, y, z'

loop_
  _atom_site_type_symbol
  _atom_site_label
  _atom_site_symmetry_multiplicity
  _atom_site_fract_x
  _atom_site_fract_y
  _atom_site_fract_z
  _atom_site_occupancy
  H   H1        1.0  0.2772384330474793  0.4940879401329568  0.9572248811867962  1.0000
  H   H2        1.0  0.7227509996034484  0.5058996200695205  0.04278005200200137  1.0000
  H   H3        1.0  0.16874899914712674  0.038598672920194595  0.4475608280490561  1.0000
  H   H4        1.0  0.8313065670304808  0.9614134312663722  0.5524037250526914  1.0000
  H   H5        1.0  0.8422588744573005  0.8262228249379221  0.7953460065846085  1.0000
  H   H6        1.0  0.15763635976995968  0.1737722567945852  0.20466713346767304  1.0000
  H   H7        1.0  0.6793094961378188  0.6643794865753634  0.7814356885681091  1.0000
  H   H8        1.0  0.32064219759050155  0.33560995995721743  0.21857915207075954  1.0000
  H   H9        1.0  0.2810141535568179  0.907274495244586  0.8834515968574264  1.0000
  H   H10       1.0  0.71895685532899  0.0927130380701371  0.11654466712005976  1.0000
  H   H11       1.0  0.6354836499449518  0.601673642425318  0.23590036960550972  1.0000
  H   H12       1.0  0.3645190339859568  0.39832053649615773  0.7641010188195876  1.0000
  H   H13       1.0  0.4650997363937321  0.6815544115876904  0.3197927935004755  1.0000
  H   H14       1.0  0.5349423940607494  0.31848514289622193  0.6801955863089403  1.0000
  H   H15       1.0  0.9906320295097687  0.7116394404816615  0.17462915122806064  1.0000
  H   H16       1.0  0.009351972561226793  0.2883849338747524  0.8253482353086665  1.0000
  Pb  Pb1       1.0  0.38666290454086993  0.6765483586654  0.5480710833564897  1.0000
  Pb  Pb2       1.0  0.6129358585551328  0.3234825732006286  0.4519989421199709  1.0000
  C   C1        1.0  0.016455637894757996  0.7016232309366117  0.6993325420136426  1.0000
  C   C2        1.0  0.9835249898866182  0.2983927492030531  0.30070796521715687  1.0000
  C   C3        1.0  0.8807976034243196  0.7301010053949284  0.7871616358625884  1.0000
  C   C4        1.0  0.11913909341449617  0.26989979022525284  0.21286086783165092  1.0000
  C   C5        1.0  0.053048215821966845  0.5970181833707072  0.8861775380732835  1.0000
  C   C6        1.0  0.9469660303932556  0.4029703211743935  0.11381878889302036  1.0000
  C   C7        1.0  0.5000013748185381  0.680132317710232  0.9891018523294546  1.0000
  C   C8        1.0  0.5000570787261793  0.3198467069280113  0.010865603148239695  1.0000
  C   C9        1.0  0.4911991016291778  0.8016504181607117  0.9654332931034586  1.0000
  C   C10       1.0  0.5088837420673895  0.19832008276104318  0.034517654044094584  1.0000
  C   C11       1.0  0.28129013915204837  0.8170240340794024  0.9051789246276483  1.0000
  C   C12       1.0  0.718731508017143  0.1829587772545196  0.09480342516719277  1.0000
  C   C13       1.0  0.789230216299579  0.5973652797884768  0.3773736296104103  1.0000
  C   C14       1.0  0.21068761851763176  0.4026515962924435  0.6226603653716294  1.0000
  C   C15       1.0  0.6676466043131126  0.6632546763506467  0.30392766001539673  1.0000
  C   C16       1.0  0.33237706704630193  0.3367451857535571  0.6960730086771462  1.0000
  C   C17       1.0  0.9116913261961272  0.8723073293763621  0.38086254819943816  1.0000
  C   C18       1.0  0.08846690771868987  0.12765766030365458  0.6191515260936737  1.0000
  C   C19       1.0  0.3194663356083182  0.988643211114173  0.3222108994334433  1.0000
  C   C20       1.0  0.6805380803777722  0.011385875708057798  0.6777521137290418  1.0000
  C   C21       1.0  0.251909456588123  0.8894204550089808  0.24169792203014132  1.0000
  C   C22       1.0  0.7480288525434419  0.11061991907238422  0.7582556622664567  1.0000
  C   C23       1.0  0.035805771776537564  0.7889614082318059  0.23381326828664567  1.0000
  C   C24       1.0  0.9641689057518477  0.2110648474042165  0.7661620343011463  1.0000
  N   N1        1.0  0.061820330248714576  0.718874175928967  0.8678413651064357  1.0000
  N   N2        1.0  0.9381405834169525  0.2811218953776517  0.13217454258109737  1.0000
  N   N3        1.0  0.2723374950145255  0.5865334177948397  0.9478010871003089  1.0000
  N   N4        1.0  0.7276584769214409  0.41345508848583273  0.05220212730848316  1.0000
  N   N5        1.0  0.8633277814267469  0.7811471974419956  0.30126717404144177  1.0000
  N   N6        1.0  0.13675653087731374  0.21883852606504914  0.6987363349593634  1.0000
  N   N7        1.0  0.13152378970816878  0.9722450006148194  0.3861362525789075  1.0000
  N   N8        1.0  0.8685270211751472  0.027756723119452396  0.6138397643884445  1.0000
  O   O1        1.0  0.24721540250671833  0.6680386227616424  0.7078977691187304  1.0000
  O   O2        1.0  0.7528465729794148  0.33204175038046907  0.2921765224807585  1.0000
  O   O3        1.0  0.8954993277275705  0.7159567047826059  0.6229881332538836  1.0000
  O   O4        1.0  0.10449294306888388  0.2839930729543028  0.377032660663346  1.0000
  O   O5        1.0  0.8654766510306684  0.5054543948413155  0.8498753458552027  1.0000
  O   O6        1.0  0.13458233053175664  0.49452559180239325  0.15010102863043065  1.0000
  O   O7        1.0  0.6949647802444047  0.6577149819896277  0.03989982606709217  1.0000
  O   O8        1.0  0.3051137346811145  0.3422678267102697  0.9600625991872389  1.0000
  O   O9        1.0  0.04884873996834215  0.6119093928897569  0.3919308751124574  1.0000
  O   O10       1.0  0.9510888179950356  0.3882049894045635  0.6081714507746765  1.0000
  O   O11       1.0  0.6095248722610973  0.5334777535433017  0.4187088289916898  1.0000
  O   O12       1.0  0.39034970168950883  0.4665040424671363  0.5812831770174965  1.0000
  O   O13       1.0  0.7638416949812663  0.8618080089060384  0.44465041426484203  1.0000
  O   O14       1.0  0.23646494916908978  0.1381164825923378  0.5553977678783325  1.0000
  O   O15       1.0  0.52297402553382  0.0793950665537366  0.33582970834819986  1.0000
  O   O16       1.0  0.4770385469024275  0.9206293326200096  0.6641519198195736  1.0000
  F   F1        1.0  0.7082942911370154  0.8996998981604635  0.0015333511236904009  1.0000
  F   F2        1.0  0.29177611622262123  0.10027438797252589  0.9984237580018556  1.0000
  F   F3        1.0  0.4204148326050259  0.8975620668265237  0.17425828777119529  1.0000
  F   F4        1.0  0.5795353721247664  0.1024471184509963  0.825695314896194  1.0000
