data_image0
_chemical_formula_structural       Zn4H52C46N4O16
_chemical_formula_sum              "Zn4 H52 C46 N4 O16"
_cell_length_a       8.74247254982757
_cell_length_b       8.746293722210947
_cell_length_c       17.135
_cell_angle_alpha    100.09828397321583
_cell_angle_beta     100.10274405396713
_cell_angle_gamma    105.86000129018025

_space_group_name_H-M_alt    "P 1"
_space_group_IT_number       1

loop_
  _space_group_symop_operation_xyz
  'x, y, z'

loop_
  _atom_site_type_symbol
  _atom_site_label
  _atom_site_symmetry_multiplicity
  _atom_site_fract_x
  _atom_site_fract_y
  _atom_site_fract_z
  _atom_site_occupancy
  Zn  Zn1       1.0  0.7402676497902119  0.2532348066813697  0.1467269731908019  1.0000
  Zn  Zn2       1.0  0.7466382959525433  0.2596290011441766  0.3532502024937259  1.0000
  Zn  Zn3       1.0  0.2597294894827015  0.7467655938730857  0.8532729233484274  1.0000
  Zn  Zn4       1.0  0.2533634907443627  0.7403713994102787  0.6467501099814115  1.0000
  H   H1        1.0  0.3314490477801683  0.46131397840348853  0.1310780584515285  1.0000
  H   H2        1.0  0.5387540212573612  0.6684807421169623  0.3689370340593782  1.0000
  H   H3        1.0  0.6685492430124569  0.5386900913520662  0.8689228531341726  1.0000
  H   H4        1.0  0.46124737126336157  0.3315221045715617  0.6310628784613995  1.0000
  H   H5        1.0  0.3604391327532568  0.4505094042098321  0.030873121669579017  1.0000
  H   H6        1.0  0.5495846823835038  0.6395295223141346  0.4691419479269499  1.0000
  H   H7        1.0  0.6395607140715568  0.5494922194116612  0.9691277102536375  1.0000
  H   H8        1.0  0.45041866034559047  0.360468432106245  0.5308565340832558  1.0000
  H   H9        1.0  0.5612499484114579  0.7344456396221517  0.07557661305658307  1.0000
  H   H10       1.0  0.2655233140215429  0.4387985373426915  0.42442039565109  1.0000
  H   H11       1.0  0.43875183828544806  0.2655547609322966  0.924424283019377  1.0000
  H   H12       1.0  0.7344796345313609  0.5612018632117639  0.5755788536063875  1.0000
  H   H13       1.0  0.36073107458206266  0.7275561030098743  0.0834913270781001  1.0000
  H   H14       1.0  0.2723949982345957  0.6392151940859563  0.4164984372362639  1.0000
  H   H15       1.0  0.6392707017785638  0.2724479667456876  0.9165093128587145  1.0000
  H   H16       1.0  0.7276079503183084  0.3607852064684991  0.5835025628236677  1.0000
  H   H17       1.0  0.43861710569376555  0.7507050927951795  0.23361460442456658  1.0000
  H   H18       1.0  0.24931443256780025  0.5613694233956537  0.2663843033555082  1.0000
  H   H19       1.0  0.5613846810031404  0.2492953077592759  0.7663862916513935  1.0000
  H   H20       1.0  0.7506865761130115  0.4386322002258325  0.7336154653500557  1.0000
  H   H21       1.0  0.631577000978929  0.7336530921829976  0.22600641812655914  1.0000
  H   H22       1.0  0.2664315420009586  0.3685308900057933  0.2740120964439114  1.0000
  H   H23       1.0  0.3684255637340712  0.2663460853044199  0.7739944381181587  1.0000
  H   H24       1.0  0.7335698505197641  0.6314719566827307  0.725987232476058  1.0000
  H   H25       1.0  0.5920396991288255  0.0060150436817352  0.43334505100040127  1.0000
  H   H26       1.0  0.9939171952076434  0.407858610539769  0.0666171396953459  1.0000
  H   H27       1.0  0.4079620772318009  0.9939890260738267  0.5666567561380447  1.0000
  H   H28       1.0  0.006078429378199188  0.592129559344329  0.93338327746212  1.0000
  H   H29       1.0  0.6637253841530395  0.9048763618503628  0.5594893945833234  1.0000
  H   H30       1.0  0.09510729839153237  0.3362431433294901  0.9404819317917514  1.0000
  H   H31       1.0  0.3362760187039626  0.0951228156370547  0.4405107740765999  1.0000
  H   H32       1.0  0.9048875378419439  0.6637499188227451  0.05951885265862699  1.0000
  H   H33       1.0  0.130958860519037  0.286964549392799  0.6206575350565302  1.0000
  H   H34       1.0  0.7130509101981558  0.8690992049211204  0.8793760076563331  1.0000
  H   H35       1.0  0.8690417643218638  0.7130358511616564  0.379343257035444  1.0000
  H   H36       1.0  0.28694314801921916  0.1308950802981599  0.1206213150203865  1.0000
  H   H37       1.0  0.04216287890074711  0.36669384331812444  0.4929111546667926  1.0000
  H   H38       1.0  0.6332695810367568  0.9578314952964675  0.007115532343853161  1.0000
  H   H39       1.0  0.9578392916360626  0.6333077803033689  0.5070904688251971  1.0000
  H   H40       1.0  0.3667248713568085  0.0421603437887299  0.9928833574888641  1.0000
  H   H41       1.0  0.0897556351633071  0.0607888778099763  0.6911682339314069  1.0000
  H   H42       1.0  0.9392096821802127  0.9103373561649093  0.8088494140765192  1.0000
  H   H43       1.0  0.9102422821256937  0.9392102996774412  0.30883220637740283  1.0000
  H   H44       1.0  0.060785143716977096  0.0896593751884396  0.19114936343226668  1.0000
  H   H45       1.0  0.906352721008254  0.8945487838006372  0.6616722674993412  1.0000
  H   H46       1.0  0.1055344415642665  0.0936367891886434  0.8383314409158089  1.0000
  H   H47       1.0  0.09364828767255769  0.105452839820849  0.33832866840786113  1.0000
  H   H48       1.0  0.8944607681728272  0.9063611652317436  0.16166923121065221  1.0000
  H   H49       1.0  0.7650644024862103  0.0586888717096201  0.7370322531307991  1.0000
  H   H50       1.0  0.9412915173982553  0.23483743232988274  0.7629555720446177  1.0000
  H   H51       1.0  0.23493659585832202  0.9413164211129725  0.2629672594356194  1.0000
  H   H52       1.0  0.05871026929865051  0.7651629682245726  0.2370447404305196  1.0000
  C   C1        1.0  0.5660946174416138  0.4476217429384661  0.11553929023502717  1.0000
  C   C2        1.0  0.5524422548504475  0.4339331766745502  0.3844620384820914  1.0000
  C   C3        1.0  0.4338990465995778  0.5523749884148828  0.8844605504914184  1.0000
  C   C4        1.0  0.4475610775423604  0.566068446946943  0.6155338529857062  1.0000
  C   C5        1.0  0.4199383522989777  0.5077721797557899  0.09575497018634849  1.0000
  C   C6        1.0  0.4923097200633748  0.5800395416961095  0.40426683879314135  1.0000
  C   C7        1.0  0.5800603326698308  0.4922294438657033  0.9042457577528963  1.0000
  C   C8        1.0  0.5076916827936273  0.419959635791308  0.5957315790643277  1.0000
  C   C9        1.0  0.46730943402890546  0.6931341043562185  0.108915048073186  1.0000
  C   C10       1.0  0.3068691044953127  0.5327031782121594  0.39108940260976505  1.0000
  C   C11       1.0  0.5326927365079044  0.3068675192652677  0.8910859918179881  1.0000
  C   C12       1.0  0.6931330660414972  0.4672984454093339  0.6089104700797776  1.0000
  C   C13       1.0  0.5330508481338541  0.77874268152231  0.1989484843418552  1.0000
  C   C14       1.0  0.22128060231572988  0.4669853402481863  0.3010546206294009  1.0000
  C   C15       1.0  0.4669509385630519  0.2212577190321454  0.8010524117340976  1.0000
  C   C16       1.0  0.7787207902049857  0.5330175064403448  0.6989452918913769  1.0000
  C   C17       1.0  0.6065407709134689  0.9627543401152963  0.21718027935881423  1.0000
  C   C18       1.0  0.03721509752457311  0.3934398732555167  0.2828048649603049  1.0000
  C   C19       1.0  0.3934567521993486  0.037247283506197  0.782820344596459  1.0000
  C   C20       1.0  0.9627859111562387  0.6065617503659695  0.7171954873460749  1.0000
  C   C21       1.0  0.709464583747817  0.0639040295499811  0.47729618968727283  1.0000
  C   C22       1.0  0.9360532243992239  0.29047108258424  0.022683838780203292  1.0000
  C   C23       1.0  0.2905356365806213  0.9361024863396494  0.5227056971136577  1.0000
  C   C24       1.0  0.06394509740224658  0.7095219795679952  0.9773166740212886  1.0000
  C   C25       1.0  0.7500473419242368  0.0089467353663863  0.5470193245534318  1.0000
  C   C26       1.0  0.9910263905184419  0.24993252568489052  0.9529637459528787  1.0000
  C   C27       1.0  0.24995600080485045  0.9910512190540003  0.4529803246584052  1.0000
  C   C28       1.0  0.008970748754471515  0.7500678748695648  0.04703790138881202  1.0000
  C   C29       1.0  0.9044520308150296  0.08640601687339  0.6006467084850087  1.0000
  C   C30       1.0  0.9135936384592965  0.0955729043062021  0.8993567762372123  1.0000
  C   C31       1.0  0.0955493720419653  0.9135931606140275  0.3993546273765459  1.0000
  C   C32       1.0  0.0864034904773305  0.9044311654493598  0.1006434477637015  1.0000
  C   C33       1.0  0.010117019371619997  0.2188800767146759  0.5814040691975606  1.0000
  C   C34       1.0  0.7811132833941128  0.9899174359118773  0.9186154613727665  1.0000
  C   C35       1.0  0.989883999645471  0.7811178777057037  0.41859712284877293  1.0000
  C   C36       1.0  0.21888308819898578  0.0100805185085093  0.08138239673358069  1.0000
  C   C37       1.0  0.9612081145593692  0.2662983856900283  0.5103538850868929  1.0000
  C   C38       1.0  0.7336748441891388  0.0387834557030757  0.9896611729359819  1.0000
  C   C39       1.0  0.03879405597744069  0.733703237931465  0.489647154804274  1.0000
  C   C40       1.0  0.26632346727605233  0.9612132756502731  0.010339083726371719  1.0000
  C   C41       1.0  0.9555288408173083  0.0286393377087109  0.6754474522525129  1.0000
  C   C42       1.0  0.9713841460883755  0.0445049632962338  0.8245618768360572  1.0000
  C   C43       1.0  0.0444717840235995  0.9713610628457445  0.3245533398394683  1.0000
  C   C44       1.0  0.028611447488629  0.9554942141911837  0.1754377719039795  1.0000
  C   C45       1.0  0.899721851676226  0.1002474665167767  0.749997312394761  1.0000
  C   C46       1.0  0.10027877316468188  0.8997529340376786  0.2500017288947731  1.0000
  N   N1        1.0  0.8134209152221601  0.190233400603752  0.4586901126168144  1.0000
  N   N2        1.0  0.8097180527559968  0.1865311766865929  0.04130487318709438  1.0000
  N   N3        1.0  0.1865824068343684  0.8097718922188406  0.541310775119193  1.0000
  N   N4        1.0  0.1902783188371018  0.8134667777337938  0.9586941521208844  1.0000
  O   O1        1.0  0.5385936254866548  0.3128422017348242  0.1408952590762382  1.0000
  O   O2        1.0  0.6872359947892477  0.4613433320123477  0.35907469945701104  1.0000
  O   O3        1.0  0.4614008062343443  0.6871569757525933  0.8591048692806424  1.0000
  O   O4        1.0  0.3127623063396641  0.5386570685421077  0.6409182978563948  1.0000
  O   O5        1.0  0.7030726779017868  0.520801512887445  0.10512947120857769  1.0000
  O   O6        1.0  0.47917517316312797  0.2970230526946622  0.3948759594667308  1.0000
  O   O7        1.0  0.2969244717074061  0.4791952184659038  0.8948706814697971  1.0000
  O   O8        1.0  0.5208293210856851  0.702978570926831  0.6051223703883082  1.0000
  O   O9        1.0  0.6106367625642122  0.0407941779098167  0.28816472542718685  1.0000
  O   O10       1.0  0.9591307367744051  0.3893352602836018  0.21181741337930046  1.0000
  O   O11       1.0  0.3893700657328765  0.959203776510563  0.7118369865390264  1.0000
  O   O12       1.0  0.040867948194410524  0.6106663633378915  0.7881827309591285  1.0000
  O   O13       1.0  0.9747246389007458  0.33645595699371  0.3373033156705318  1.0000
  O   O14       1.0  0.6634849520155797  0.0252563342878744  0.1626746360287115  1.0000
  O   O15       1.0  0.025277915475967902  0.663546889694814  0.6626978680358633  1.0000
  O   O16       1.0  0.3365156728253282  0.9747440662665809  0.8373261560632698  1.0000
