data_image0
_chemical_formula_structural       CuH12C18N10
_chemical_formula_sum              "Cu1 H12 C18 N10"
_cell_length_a       7.193341096840539
_cell_length_b       6.901380096868541
_cell_length_c       9.693868449647155
_cell_angle_alpha    89.45622276801424
_cell_angle_beta     84.95297587378145
_cell_angle_gamma    71.2828755736565

_space_group_name_H-M_alt    "P 1"
_space_group_IT_number       1

loop_
  _space_group_symop_operation_xyz
  'x, y, z'

loop_
  _atom_site_type_symbol
  _atom_site_label
  _atom_site_symmetry_multiplicity
  _atom_site_fract_x
  _atom_site_fract_y
  _atom_site_fract_z
  _atom_site_occupancy
  Cu  Cu1       1.0  1.34120237334e-05  1.6780547725000003e-06  3.2585599995999995e-06  1.0000
  H   H1        1.0  0.1697696782580849  0.2863216507469559  0.6717915438410884  1.0000
  H   H2        1.0  0.8302248708267825  0.7136907228280833  0.32820713271614477  1.0000
  H   H3        1.0  0.12614681991960452  0.22782134269984772  0.4277783205792858  1.0000
  H   H4        1.0  0.8738434180001491  0.7721694922987439  0.572218716446173  1.0000
  H   H5        1.0  0.8008342825817677  0.23081161422513216  0.3575012533444096  1.0000
  H   H6        1.0  0.19915345958568043  0.7691607683541694  0.6424919438256964  1.0000
  H   H7        1.0  0.5158507902557687  0.29349924476010614  0.5377684612091969  1.0000
  H   H8        1.0  0.48413797555091515  0.7064961858954533  0.46223276445630285  1.0000
  H   H9        1.0  0.7858826683876214  0.42689176617753344  0.9504862268336964  1.0000
  H   H10       1.0  0.21411048645980194  0.5731205944486889  0.049513570401337914  1.0000
  H   H11       1.0  0.02892470130586131  0.373880102869343  0.8959267526436036  1.0000
  H   H12       1.0  0.9710679266946509  0.626138380689433  0.10406375179368155  1.0000
  C   C1        1.0  0.40603324560513676  0.8922359822748905  0.8362945807573041  1.0000
  C   C2        1.0  0.5939847581243782  0.10775516174286541  0.16371925008613183  1.0000
  C   C3        1.0  0.7319847481062354  0.8587477599007374  0.8249094415303446  1.0000
  C   C4        1.0  0.2680463865729976  0.1412327783364447  0.1751077504593894  1.0000
  C   C5        1.0  0.8691005507426296  0.3247225920669266  0.745761068171916  1.0000
  C   C6        1.0  0.130878833131419  0.675280415274969  0.2542386410516571  1.0000
  C   C7        1.0  0.02682380524960586  0.2873362925276411  0.6420121597422295  1.0000
  C   C8        1.0  0.9731718632586491  0.7126638075270366  0.357983435177502  1.0000
  C   C9        1.0  0.0010984323770201923  0.254946845189572  0.5052071713498236  1.0000
  C   C10       1.0  0.9988963378147772  0.7450517078357706  0.494786428412695  1.0000
  C   C11       1.0  0.8175704742105053  0.25737812709279956  0.4654572019606036  1.0000
  C   C12       1.0  0.1824159524664494  0.7426203390212294  0.5345358994577225  1.0000
  C   C13       1.0  0.6598147835461815  0.2919537482420012  0.5655987121920703  1.0000
  C   C14       1.0  0.3401710693341684  0.7080508605583377  0.4344005730235025  1.0000
  C   C15       1.0  0.6829072598931771  0.32633109736420357  0.7055372930428518  1.0000
  C   C16       1.0  0.31709259445742083  0.6736690402200123  0.29445390807047284  1.0000
  C   C17       1.0  0.5187424634730956  0.3610346221240732  0.8050688992751986  1.0000
  C   C18       1.0  0.4812308788299618  0.6389698543339078  0.19492809076459136  1.0000
  N   N1        1.0  0.24419866141425206  0.9248863710866362  0.8863757550196921  1.0000
  N   N2        1.0  0.755829698555239  0.0751294167574414  0.11361867640353303  1.0000
  N   N3        1.0  0.577121471271326  0.8541887600930665  0.7687604727707721  1.0000
  N   N4        1.0  0.4229131250910072  0.14577646784837134  0.231260730055638  1.0000
  N   N5        1.0  0.8835795254861412  0.8539383660463642  0.865037779039163  1.0000
  N   N6        1.0  0.11646541146626528  0.1460515123059736  0.1349691832320303  1.0000
  N   N7        1.0  0.9006981205936951  0.3469445475554452  0.8816897465685828  1.0000
  N   N8        1.0  0.0992970022877841  0.6530616833332843  0.11830274619139661  1.0000
  N   N9        1.0  0.381634938852592  0.3888369116022332  0.886112156504197  1.0000
  N   N10       1.0  0.618338360875981  0.6112028640647794  0.11387840352747962  1.0000
