data_image0
_chemical_formula_structural       Zn2H46C46S8N18O8
_chemical_formula_sum              "Zn2 H46 C46 S8 N18 O8"
_cell_length_a       9.155904518073589
_cell_length_b       10.413550342280992
_cell_length_c       14.865
_cell_angle_alpha    85.81486587119247
_cell_angle_beta     88.59434557796955
_cell_angle_gamma    88.42027555101386

_space_group_name_H-M_alt    "P 1"
_space_group_IT_number       1

loop_
  _space_group_symop_operation_xyz
  'x, y, z'

loop_
  _atom_site_type_symbol
  _atom_site_label
  _atom_site_symmetry_multiplicity
  _atom_site_fract_x
  _atom_site_fract_y
  _atom_site_fract_z
  _atom_site_occupancy
  Zn  Zn1       1.0  0.4865710468561702  0.3470258448279324  0.2286198589512907  1.0000
  Zn  Zn2       1.0  0.5134347204370968  0.652975090320389  0.7713802079148453  1.0000
  H   H1        1.0  0.31818022311944827  0.5395879956368006  0.18730660602373927  1.0000
  H   H2        1.0  0.6818266649498099  0.46041197633475406  0.8126921477083044  1.0000
  H   H3        1.0  0.2770082825979046  0.42225091305547113  0.11966789425244433  1.0000
  H   H4        1.0  0.722998577215506  0.5777500220928431  0.880330137942835  1.0000
  H   H5        1.0  0.007518617634744405  0.8136185264393986  0.4091215313697419  1.0000
  H   H6        1.0  0.9924774300005768  0.18637855600187686  0.5908835883733234  1.0000
  H   H7        1.0  0.91081571270648  0.9611203788284115  0.3952957624887007  1.0000
  H   H8        1.0  0.0891803349288409  0.03887670361286409  0.6047046482062655  1.0000
  H   H9        1.0  0.014998540521489197  0.1782233383646812  0.9905957629484095  1.0000
  H   H10       1.0  0.9850038079320882  0.8217824126674457  0.009402763919538914  1.0000
  H   H11       1.0  0.8607932238520846  0.0817120637143134  0.9763723508049156  1.0000
  H   H12       1.0  0.1392180908094787  0.9182859819037147  0.023621725480708716  1.0000
  H   H13       1.0  0.9480545980683174  0.072377917721397  0.08176990468512461  1.0000
  H   H14       1.0  0.051945593600812905  0.9276268701339632  0.9182266858497174  1.0000
  H   H15       1.0  0.6506906861742293  0.8190932231501336  0.428849189252631  1.0000
  H   H16       1.0  0.34930392987075715  0.18091541741227246  0.5711526703259511  1.0000
  H   H17       1.0  0.4617036642877394  0.7966232724877854  0.4552382551015627  1.0000
  H   H18       1.0  0.5382978176924736  0.2033747731302498  0.544766733289002  1.0000
  H   H19       1.0  0.5209331038801395  0.8371200394130085  0.3416008799898692  1.0000
  H   H20       1.0  0.4790572833634883  0.162883785265592  0.6584059987443498  1.0000
  H   H21       1.0  0.6451112156496563  0.9334608317766353  0.1281392421872312  1.0000
  H   H22       1.0  0.35490377215423763  0.0665237293667431  0.8718568134370062  1.0000
  H   H23       1.0  0.0443954333102141  0.4357700620758678  0.4575065148981849  1.0000
  H   H24       1.0  0.9556148453428932  0.564226057188641  0.542498439064538  1.0000
  H   H25       1.0  0.757334162674674  0.0127640184396043  0.2620215874524945  1.0000
  H   H26       1.0  0.24266639632048745  0.9872282481178658  0.7379776558486527  1.0000
  H   H27       1.0  0.23409819279845576  0.5247858951704671  0.3496190324264319  1.0000
  H   H28       1.0  0.7659131501189549  0.4752111872708014  0.6503811471652129  1.0000
  H   H29       1.0  0.9926810454312616  0.6483826635229164  0.30643573744522007  1.0000
  H   H30       1.0  0.007309737394258801  0.3516076766810272  0.6935765337555397  1.0000
  H   H31       1.0  0.09337778274451838  0.2755841349184323  0.1511409425028845  1.0000
  H   H32       1.0  0.9066100803886316  0.7244312478812985  0.8488546199203456  1.0000
  H   H33       1.0  0.8801393751402032  0.5699174686706527  0.1729132800411577  1.0000
  H   H34       1.0  0.1198656952147985  0.43006998200300467  0.8270975775681536  1.0000
  H   H35       1.0  0.900716489845351  0.1895127331828661  0.25809635624266053  1.0000
  H   H36       1.0  0.09927563034499802  0.8105065023239177  0.7418989448886394  1.0000
  H   H37       1.0  0.44267797138764553  0.1286784889446153  0.12094189086005262  1.0000
  H   H38       1.0  0.5573311864894634  0.8713185934966603  0.8790650489579195  1.0000
  H   H39       1.0  0.3254179430115087  0.9140961629924362  0.13996638060501715  1.0000
  H   H40       1.0  0.6745867600174549  0.0859038089791184  0.8600398060745109  1.0000
  H   H41       1.0  0.21263608890072314  0.8435203489912695  0.2916210650478348  1.0000
  H   H42       1.0  0.7873464811667716  0.15648925474789618  0.7083816000174894  1.0000
  H   H43       1.0  0.23312538073551542  0.9867081326668057  0.41908685234528065  1.0000
  H   H44       1.0  0.7668472153713921  0.0133062869561655  0.5809136990449844  1.0000
  H   H45       1.0  0.3646293554160849  0.1940396639605666  0.3904196585197682  1.0000
  H   H46       1.0  0.6353587620197061  0.8059670502483128  0.6095837431766142  1.0000
  C   C1        1.0  0.9165081502902837  0.1384046478793479  0.024192153660031603  1.0000
  C   C2        1.0  0.0834944242100804  0.8615933977386874  0.9758034001269495  1.0000
  C   C3        1.0  0.5489228125494775  0.78198780160114  0.40452268139481623  1.0000
  C   C4        1.0  0.4510728960156527  0.21802083896126587  0.5954818525610153  1.0000
  C   C5        1.0  0.8168212470126974  0.2420443937394552  0.05587505053119913  1.0000
  C   C6        1.0  0.1831748571343255  0.757950762348294  0.9441180578622481  1.0000
  C   C7        1.0  0.5665735260987574  0.643413634611818  0.3876332442601439  1.0000
  C   C8        1.0  0.4334276450671197  0.356595005950588  0.6123664981106884  1.0000
  C   C9        1.0  0.6766441856959132  0.439653590777084  0.08285695425183094  1.0000
  C   C10       1.0  0.3233541882589535  0.560338675780386  0.9171403039006024  1.0000
  C   C11       1.0  0.6327842933418353  0.41505983535625285  0.38824354414880713  1.0000
  C   C12       1.0  0.3672159265831425  0.5849439893223476  0.6117537679227925  1.0000
  C   C13       1.0  0.7530285756384814  0.746494737950421  0.14243531364820683  1.0000
  C   C14       1.0  0.2469883711589134  0.2534975286070491  0.8575670456480182  1.0000
  C   C15       1.0  0.9634704508826034  0.3061293595468015  0.3651874840073503  1.0000
  C   C16       1.0  0.036528761289766  0.6938715756015128  0.63480460924918  1.0000
  C   C17       1.0  0.7214284472867618  0.8715170079094674  0.16735315101220755  1.0000
  C   C18       1.0  0.2785820856689796  0.1284704427641898  0.8326421514735856  1.0000
  C   C19       1.0  0.05519923176331081  0.4014751903160985  0.3903270120677434  1.0000
  C   C20       1.0  0.9448054712656528  0.5985247816554561  0.6096697565155866  1.0000
  C   C21       1.0  0.785492915258132  0.9160889757113893  0.2424010764164778  1.0000
  C   C22       1.0  0.2145077567604261  0.08389943813903498  0.7575976894259286  1.0000
  C   C23       1.0  0.1614635754900107  0.4510681985742266  0.3298469158295562  1.0000
  C   C24       1.0  0.8385433690909565  0.5489298470438086  0.6701485719279037  1.0000
  C   C25       1.0  0.8816657410534887  0.8352591819103452  0.2955566777299411  1.0000
  C   C26       1.0  0.1183283475883243  0.16473019511683867  0.7044488655527132  1.0000
  C   C27       1.0  0.17570185565885046  0.4046835321076969  0.2439803326270962  1.0000
  C   C28       1.0  0.8242951432173697  0.5953183662173771  0.756013090270905  1.0000
  C   C29       1.0  0.9176836902133231  0.7112164627174522  0.2667231534851666  1.0000
  C   C30       1.0  0.08231056796358159  0.2887671352491665  0.7332826826911046  1.0000
  C   C31       1.0  0.0813915851196612  0.3102613878524068  0.21834365213359064  1.0000
  C   C32       1.0  0.9185996968531783  0.6897491790635186  0.7816507594031992  1.0000
  C   C33       1.0  0.8537273904865046  0.6672773020476441  0.19178049465309505  1.0000
  C   C34       1.0  0.1462788571561973  0.3327072590957271  0.8082237656840692  1.0000
  C   C35       1.0  0.9750632107151276  0.26128962860526167  0.2786676937267174  1.0000
  C   C36       1.0  0.024928071257711796  0.7387209383106637  0.7213233542042873  1.0000
  C   C37       1.0  0.3958103736442453  0.0927259899787956  0.18587290711231932  1.0000
  C   C38       1.0  0.6041932368645675  0.907273981992759  0.8141332960745944  1.0000
  C   C39       1.0  0.32760006573360567  0.9745268361677403  0.19674163052267357  1.0000
  C   C40       1.0  0.6723980256627656  0.025475062157340692  0.8032632121276182  1.0000
  C   C41       1.0  0.26668331206325746  0.9354237860159884  0.2808337506200118  1.0000
  C   C42       1.0  0.7333047771166861  0.0645838913696579  0.7191696022607703  1.0000
  C   C43       1.0  0.2777345891790191  0.014687482431746399  0.3521142372243631  1.0000
  C   C44       1.0  0.7222468601124774  0.9853230844841859  0.647887722811582  1.0000
  C   C45       1.0  0.3503120409549751  0.1297553205636532  0.3368172495951642  1.0000
  C   C46       1.0  0.649677197256807  0.8702504304684736  0.6631875298517615  1.0000
  S   S1        1.0  0.8240982331718669  0.4011872004644914  0.010144207599069007  1.0000
  S   S2        1.0  0.17590002775960298  0.5988089188000174  0.9898474735216996  1.0000
  S   S3        1.0  0.6848004479530019  0.540967264758855  0.4514134445175771  1.0000
  S   S4        1.0  0.3152019852681249  0.45903559674298566  0.5485872469606506  1.0000
  S   S5        1.0  0.6609852199180111  0.6863742076922321  0.0525162569219688  1.0000
  S   S6        1.0  0.33903382715213576  0.3136209483955241  0.9474818865857417  1.0000
  S   S7        1.0  0.824543051397221  0.2473370500423258  0.4411810297318653  1.0000
  S   S8        1.0  0.1754526854237639  0.7526706273433205  0.5588161531068394  1.0000
  N   N1        1.0  0.6398412872990775  0.3335615968829231  0.1347434841977062  1.0000
  N   N2        1.0  0.3601548168479454  0.666433559204826  0.8652536605226829  1.0000
  N   N3        1.0  0.5349966023465456  0.4583170668791183  0.32673522907624186  1.0000
  N   N4        1.0  0.4650067256037858  0.5416925368600473  0.6732624133007548  1.0000
  N   N5        1.0  0.4971350213632845  0.5862144194703873  0.326810909955917  1.0000
  N   N6        1.0  0.502870661162433  0.4137894052082132  0.6731876650210895  1.0000
  N   N7        1.0  0.7174076595248379  0.22333950103668337  0.11928465304776384  1.0000
  N   N8        1.0  0.282588331598788  0.7766595077581115  0.8807096055255814  1.0000
  N   N9        1.0  0.6746771945884475  0.2907031205392059  0.39442442305477954  1.0000
  N   N10       1.0  0.3253241178566739  0.7093007041393945  0.6055742179517551  1.0000
  N   N11       1.0  0.6019697239986002  0.5496146657210302  0.09148758765348931  1.0000
  N   N12       1.0  0.3980329352693133  0.45038049036671873  0.9085101307437711  1.0000
  N   N13       1.0  0.9361626032540044  0.8726574091947441  0.3734247018117146  1.0000
  N   N14       1.0  0.0638237812350724  0.1273338941859592  0.626584222997181  1.0000
  N   N15       1.0  0.2935008300203137  0.444712195126975  0.18516642960539542  1.0000
  N   N16       1.0  0.7065005954482046  0.5552877768445796  0.8148317339423914  1.0000
  N   N17       1.0  0.4073575533378175  0.1686127606412882  0.2550713216304673  1.0000
  N   N18       1.0  0.5926416305787043  0.8313891376837858  0.7449341772336029  1.0000
  O   O1        1.0  0.8452437599775492  0.3058558173466182  0.5267604296154431  1.0000
  O   O2        1.0  0.1547563751798791  0.6941508968622685  0.4732360632881908  1.0000
  O   O3        1.0  0.8312050671188658  0.10716593598290558  0.4460024384336593  1.0000
  O   O4        1.0  0.1687972248230096  0.8928417414027336  0.5539953180819239  1.0000
  O   O5        1.0  0.5371431292920548  0.7722722376107782  0.0313231742412725  1.0000
  O   O6        1.0  0.4628779332832949  0.2277286975375361  0.9686706070311218  1.0000
  O   O7        1.0  0.7690517833939977  0.6696178215773968  0.9782123530032226  1.0000
  O   O8        1.0  0.23096863875478857  0.3303677027427412  0.0217862621531424  1.0000
