data_image0
_chemical_formula_structural       NaZn3H13C19O17
_chemical_formula_sum              "Na1 Zn3 H13 C19 O17"
_cell_length_a       7.698145492562622
_cell_length_b       9.409981289445314
_cell_length_c       9.78609952478397
_cell_angle_alpha    61.86956120459347
_cell_angle_beta     70.96981117453367
_cell_angle_gamma    79.70598124554155

_space_group_name_H-M_alt    "P 1"
_space_group_IT_number       1

loop_
  _space_group_symop_operation_xyz
  'x, y, z'

loop_
  _atom_site_type_symbol
  _atom_site_label
  _atom_site_symmetry_multiplicity
  _atom_site_fract_x
  _atom_site_fract_y
  _atom_site_fract_z
  _atom_site_occupancy
  Na  Na1       1.0  0.552296303954769  0.9537441474966711  0.17448843157266242  1.0000
  Zn  Zn1       1.0  0.0397820934033035  0.4530073908926227  0.6816717312058316  1.0000
  Zn  Zn2       1.0  0.79141415055588  0.2639383554748918  0.03335735461664068  1.0000
  Zn  Zn3       1.0  0.2725612763892967  0.6648072917330338  0.30308875694998977  1.0000
  H   H1        1.0  0.44680347094409006  0.2897889085061465  0.18539690468265485  1.0000
  H   H2        1.0  0.4597452193855176  0.2906453818812622  0.016451572103662254  1.0000
  H   H3        1.0  0.9293119857288729  0.569367369509358  0.3777921347517152  1.0000
  H   H4        1.0  0.8918266300704188  0.7439994970612885  0.3735830299889714  1.0000
  H   H5        1.0  0.6403242759477621  0.6163411742289713  0.17213348588018113  1.0000
  H   H6        1.0  0.5899357858381578  0.5807813263587391  0.3577358701044488  1.0000
  H   H7        1.0  0.801007986053726  0.8441810812602598  0.9592453215917232  1.0000
  H   H8        1.0  0.3503417507711645  0.18431548535609465  0.7457423724843294  1.0000
  H   H9        1.0  0.26338186014537257  0.0937280713933859  0.3801146500121532  1.0000
  H   H10       1.0  0.72752700268952  0.7277339798624993  0.6073384369224682  1.0000
  H   H11       1.0  0.8393658520120936  0.21427195193775356  0.47608930920514314  1.0000
  H   H12       1.0  0.24504704667850769  0.7040933708375334  0.850775991118759  1.0000
  H   H13       1.0  0.16660212319423098  0.23320019736976857  0.10030062612357685  1.0000
  C   C1        1.0  0.30383856711276985  0.1588942193188174  0.5514321016284001  1.0000
  C   C2        1.0  0.8403966712720319  0.16409328308454008  0.7752591082269333  1.0000
  C   C3        1.0  0.2218715012530907  0.772085563883337  0.5534839245845619  1.0000
  C   C4        1.0  0.3134251430021563  0.8809495053948523  0.9829269444427952  1.0000
  C   C5        1.0  0.7569512711093225  0.592952331845261  0.9082986316861292  1.0000
  C   C6        1.0  0.7895717829965393  0.8818352274871941  0.8388660747179841  1.0000
  C   C7        1.0  0.30460671850454457  0.3339666384134645  0.4397664200471637  1.0000
  C   C8        1.0  0.3214907423915747  0.1020509767985445  0.7069218721891986  1.0000
  C   C9        1.0  0.2770243149659634  0.0498504698387947  0.5008994604582283  1.0000
  C   C10       1.0  0.7538115780355099  0.8167096102735202  0.6387974269044391  1.0000
  C   C11       1.0  0.813933051878031  0.09000912606754949  0.5669808014005326  1.0000
  C   C12       1.0  0.26515154991771783  0.8309458782162409  0.7658032091264174  1.0000
  C   C13       1.0  0.7618452991503659  0.7678514354657721  0.7955382563763251  1.0000
  C   C14       1.0  0.3003299187922152  0.938343177377078  0.8147430365028967  1.0000
  C   C15       1.0  0.7849896484888318  0.9761258407118946  0.5230107065207221  1.0000
  C   C16       1.0  0.8119186165939496  0.044043167362630704  0.7255660173157775  1.0000
  C   C17       1.0  0.20285158529460998  0.2968385249545307  0.9666837338755199  1.0000
  C   C18       1.0  0.2584774601054817  0.8860190747988382  0.6072005042224832  1.0000
  C   C19       1.0  0.7921681942155273  0.023163578511841396  0.35244587411568057  1.0000
  O   O1        1.0  0.13987505389333424  0.6446156528699589  0.6629381693454589  1.0000
  O   O2        1.0  0.905506424462679  0.30006747429060715  0.6632815983104406  1.0000
  O   O3        1.0  0.5103749530425573  0.23446233463640448  0.11523499369546644  1.0000
  O   O4        1.0  0.38064103288159157  0.9697908511009175  0.014879718238695785  1.0000
  O   O5        1.0  0.8150917473944689  0.17290252237887668  0.2553167169145922  1.0000
  O   O6        1.0  0.2744540088204133  0.43773731930921395  0.4999115968327459  1.0000
  O   O7        1.0  0.7792418443081246  0.49388428509512033  0.845683409241481  1.0000
  O   O8        1.0  0.25211248668382064  0.7384825713173484  0.08588092688414414  1.0000
  O   O9        1.0  0.274542602585761  0.8127437559945464  0.40145726484288247  1.0000
  O   O10       1.0  0.798197496580279  0.12009929155988888  0.9263860698425289  1.0000
  O   O11       1.0  0.9671605166383798  0.6392627074045906  0.41051018335964073  1.0000
  O   O12       1.0  0.5744471718391678  0.6616982633473186  0.2535963159207242  1.0000
  O   O13       1.0  0.3305718053500257  0.3844460412300563  0.2913368376992551  1.0000
  O   O14       1.0  0.07348282590749018  0.30214766114384156  0.9069950411066682  1.0000
  O   O15       1.0  0.7377106446857056  0.5408052634448736  0.0568394534124367  1.0000
  O   O16       1.0  0.7758647133745598  0.9163597476995164  0.3126256324001703  1.0000
  O   O17       1.0  0.35718267162587847  0.35536652216564585  0.8861423590740711  1.0000
