data_image0
_chemical_formula_structural       La2H22C28N4O22
_chemical_formula_sum              "La2 H22 C28 N4 O22"
_cell_length_a       6.9768173937393305
_cell_length_b       11.225261174866455
_cell_length_c       11.192286476186595
_cell_angle_alpha    79.6574213500611
_cell_angle_beta     75.64370322178378
_cell_angle_gamma    75.23043046127363

_space_group_name_H-M_alt    "P 1"
_space_group_IT_number       1

loop_
  _space_group_symop_operation_xyz
  'x, y, z'

loop_
  _atom_site_type_symbol
  _atom_site_label
  _atom_site_symmetry_multiplicity
  _atom_site_fract_x
  _atom_site_fract_y
  _atom_site_fract_z
  _atom_site_occupancy
  La  La1       1.0  0.66694851325623  0.45993758964304016  0.23984136385671914  1.0000
  La  La2       1.0  0.3330574265596979  0.5400627928140267  0.7601566734659854  1.0000
  H   H1        1.0  0.19793638144722078  0.21872086492747655  0.839935296937817  1.0000
  H   H2        1.0  0.8020639079230776  0.7812786631170852  0.16006290454316033  1.0000
  H   H3        1.0  0.13047464283077667  0.956709429701668  0.17149679748350627  1.0000
  H   H4        1.0  0.8695161415086049  0.043282844263046585  0.8284997269120353  1.0000
  H   H5        1.0  0.9478814771132278  0.9234412293217957  0.34691551217422056  1.0000
  H   H6        1.0  0.052123707650594014  0.0765526634371128  0.6530864557430647  1.0000
  H   H7        1.0  0.5432077500565171  0.10134462600377958  0.6529822933098755  1.0000
  H   H8        1.0  0.45679304341054927  0.8986576949950091  0.3470126607506359  1.0000
  H   H9        1.0  0.5227985503773667  0.937670212548468  0.7703930593350349  1.0000
  H   H10       1.0  0.47720781747943153  0.062337596067557385  0.2296000436191434  1.0000
  H   H11       1.0  0.3641623643381137  0.2964410103613985  0.2250815048590695  1.0000
  H   H12       1.0  0.6358397925762843  0.703557540290845  0.7749201403124529  1.0000
  H   H13       1.0  0.3437368050027201  0.4107252706845018  0.11402835569209199  1.0000
  H   H14       1.0  0.6562652389208739  0.5892779295080287  0.8859698185212179  1.0000
  H   H15       1.0  0.42494934000659856  0.7216631290118511  0.09006896627946055  1.0000
  H   H16       1.0  0.5750420016458477  0.27833651393739695  0.9099288677830727  1.0000
  H   H17       1.0  0.434790359004488  0.7071184005146306  0.23115283356057154  1.0000
  H   H18       1.0  0.5651965826588565  0.2928812672158614  0.7688483848130331  1.0000
  H   H19       1.0  0.9708274481442559  0.35444616992979405  0.4330470454038462  1.0000
  H   H20       1.0  0.029172298008290944  0.6455551820297315  0.5669545005596746  1.0000
  H   H21       1.0  0.7913356568956048  0.4734770046068064  0.47787178149716414  1.0000
  H   H22       1.0  0.20866709863891236  0.5265196976271512  0.5221291952070358  1.0000
  C   C1        1.0  0.9902094753155667  0.2842055827175969  0.004077004566752872  1.0000
  C   C2        1.0  0.009789943825744413  0.7157967057027361  0.9959235376228219  1.0000
  C   C3        1.0  0.1317292127857144  0.19429567158508823  0.937327236810269  1.0000
  C   C4        1.0  0.8682720000298688  0.8057056721140228  0.06267318104956124  1.0000
  C   C5        1.0  0.1845799964320065  0.0752437804911708  0.9995806894625899  1.0000
  C   C6        1.0  0.8154206362309183  0.9247594034584521  0.00042128886963869116  1.0000
  C   C7        1.0  0.09082741686193431  0.050069627954101706  0.12387087323381958  1.0000
  C   C8        1.0  0.909162317976865  0.9499262775049784  0.8761341241369605  1.0000
  C   C9        1.0  0.9483335093472292  0.14488181333089048  0.1839285372960831  1.0000
  C   C10       1.0  0.051657307554918895  0.8551196453655406  0.8160735332540695  1.0000
  C   C11       1.0  0.835831952449915  0.12414182808439017  0.31388245977141327  1.0000
  C   C12       1.0  0.16416744822394247  0.8758604685037099  0.6861171904130926  1.0000
  C   C13       1.0  0.8537591774837524  0.007197569614753301  0.38459287257497704  1.0000
  C   C14       1.0  0.1462438496596334  0.9927982206617256  0.6154064318879477  1.0000
  C   C15       1.0  0.7475932077363651  0.995201863013115  0.5080466622977866  1.0000
  C   C16       1.0  0.25240860369932966  0.004797632267710101  0.49195308709472124  1.0000
  C   C17       1.0  0.6275456425104194  0.10233552503253658  0.5573510915953149  1.0000
  C   C18       1.0  0.37245615045782904  0.8976639784160623  0.4426477657921168  1.0000
  C   C19       1.0  0.6102318122657594  0.21466210696599564  0.47939494376397107  1.0000
  C   C20       1.0  0.38976874652733773  0.7853411096547233  0.5206034665479606  1.0000
  C   C21       1.0  0.4746822368444725  0.33306866352891956  0.5245663928425656  1.0000
  C   C22       1.0  0.5253145922633918  0.6669372973172896  0.4754401824056415  1.0000
  C   C23       1.0  0.7714903804399711  0.8661174307162509  0.5811334319783086  1.0000
  C   C24       1.0  0.22851301064957139  0.13387740676387244  0.4188686602687142  1.0000
  C   C25       1.0  0.3393348741009135  0.9732122023047154  0.9366866802725509  1.0000
  C   C26       1.0  0.6606560829518527  0.02679300214230551  0.063309355073045  1.0000
  C   C27       1.0  0.9250584184160219  0.41478328583301743  0.9421275736929431  1.0000
  C   C28       1.0  0.07495425390889925  0.585223504273898  0.057867372650868325  1.0000
  N   N1        1.0  0.9035859471335429  0.2609609697774572  0.12454819918436037  1.0000
  N   N2        1.0  0.0964050675076607  0.7390396096325983  0.8754486311042271  1.0000
  N   N3        1.0  0.7095000286725579  0.22535349784642017  0.3604811512084253  1.0000
  N   N4        1.0  0.2905011841430323  0.7746478458526836  0.6395192666514048  1.0000
  O   O1        1.0  0.41715078660264737  0.41890820029084364  0.44132847342525144  1.0000
  O   O2        1.0  0.5828531226789765  0.5810986230429974  0.5586750255508475  1.0000
  O   O3        1.0  0.429999869591292  0.33960763493332985  0.6403465208809817  1.0000
  O   O4        1.0  0.5700040212228713  0.6603991965682922  0.3596560860900481  1.0000
  O   O5        1.0  0.6767650166736489  0.8527741433956988  0.6956214726249996  1.0000
  O   O6        1.0  0.32322277675122274  0.1472227721268027  0.3043765130349314  1.0000
  O   O7        1.0  0.8854047418494915  0.7797965236757776  0.5231823794179675  1.0000
  O   O8        1.0  0.1146097176434253  0.22019631771763665  0.4768209596917004  1.0000
  O   O9        1.0  0.3936820955100372  0.8701000837061411  0.9938189323921378  1.0000
  O   O10       1.0  0.6063174290330481  0.12990136626668664  0.006171909510499096  1.0000
  O   O11       1.0  0.4089828788960475  0.006417368427222  0.8179779970411329  1.0000
  O   O12       1.0  0.591013712320965  0.9935840980664352  0.18201510106888455  1.0000
  O   O13       1.0  0.03167183242811691  0.44790409754614297  0.838952876058201  1.0000
  O   O14       1.0  0.9683406997461859  0.5520989468101902  0.1610481054901598  1.0000
  O   O15       1.0  0.7656251760897279  0.4834757240049327  0.9997469220226376  1.0000
  O   O16       1.0  0.23437850289007403  0.5165227938835669  0.000256271060422413  1.0000
  O   O17       1.0  0.42275455218543817  0.3670884911493175  0.1779088242310536  1.0000
  O   O18       1.0  0.5772493060659587  0.6329091556205809  0.8220882365853655  1.0000
  O   O19       1.0  0.42864559937782337  0.6613804971672222  0.1654048113182824  1.0000
  O   O20       1.0  0.5713407436654023  0.3386210189815557  0.8345970755226444  1.0000
  O   O21       1.0  0.8643834950405135  0.42599329273721753  0.40751469761595155  1.0000
  O   O22       1.0  0.13561000423236183  0.5740044526944601  0.5924857999009346  1.0000
