data_image0
_chemical_formula_structural       Sr2Cu2H8C8O16
_chemical_formula_sum              "Sr2 Cu2 H8 C8 O16"
_cell_length_a       6.763857083331932
_cell_length_b       7.413532880674422
_cell_length_c       8.550280051005707
_cell_angle_alpha    90.0000391707558
_cell_angle_beta     89.99987131897198
_cell_angle_gamma    96.94675783813952

_space_group_name_H-M_alt    "P 1"
_space_group_IT_number       1

loop_
  _space_group_symop_operation_xyz
  'x, y, z'

loop_
  _atom_site_type_symbol
  _atom_site_label
  _atom_site_symmetry_multiplicity
  _atom_site_fract_x
  _atom_site_fract_y
  _atom_site_fract_z
  _atom_site_occupancy
  Sr  Sr1       1.0  0.2499985456050098  2.5865470119988316e-07  0.1354152283147911  1.0000
  Sr  Sr2       1.0  0.7500009043387267  8.712493268998745e-07  0.8645686844936549  1.0000
  Cu  Cu1       1.0  0.25000096610560973  0.5000019424489822  0.4077772160035735  1.0000
  Cu  Cu2       1.0  0.7499992889462703  0.4999997179989963  0.5922128416322963  1.0000
  H   H1        1.0  0.9225623095414691  0.44715449984566663  0.1642489145502779  1.0000
  H   H2        1.0  0.5774391336766057  0.5528460876679021  0.1642504181893756  1.0000
  H   H3        1.0  0.07742872988721675  0.5528118407671841  0.8357352953214983  1.0000
  H   H4        1.0  0.4225729251542632  0.44718816796112304  0.8357349612364828  1.0000
  H   H5        1.0  0.7753329885579348  0.1578143672526764  0.4485378915954783  1.0000
  H   H6        1.0  0.724665625523045  0.8421822825920772  0.4485404784404636  1.0000
  H   H7        1.0  0.22468647349640491  0.8421981224078083  0.5514977785678356  1.0000
  H   H8        1.0  0.2753174588043663  0.1578017474471665  0.5514963612986392  1.0000
  C   C1        1.0  0.00883857290864401  0.3303065032042198  0.1512664807448942  1.0000
  C   C2        1.0  0.4911611246468226  0.6696972664398404  0.1512673280990953  1.0000
  C   C3        1.0  0.9911307949495269  0.6697509605520651  0.8487422897720052  1.0000
  C   C4        1.0  0.5088687234740094  0.3302499530348157  0.8487426118843402  1.0000
  C   C5        1.0  0.6348064207900279  0.19621250782331864  0.399357181004504  1.0000
  C   C6        1.0  0.8651926994112602  0.8037868363038856  0.39935832898703444  1.0000
  C   C7        1.0  0.3650986716426843  0.8038179210950461  0.6006246898570282  1.0000
  C   C8        1.0  0.13490105639026242  0.19618470028449767  0.6006235416915403  1.0000
  O   O1        1.0  0.15568811338363286  0.32063565831793994  0.2442902027127332  1.0000
  O   O2        1.0  0.3443113225902863  0.6793681556398214  0.2442901438485876  1.0000
  O   O3        1.0  0.844246170850987  0.6793919834857505  0.7556963463317103  1.0000
  O   O4        1.0  0.6557549032870752  0.32060752345105936  0.7556975746170309  1.0000
  O   O5        1.0  0.9626954903181189  0.21189265224472822  0.0476853759785527  1.0000
  O   O6        1.0  0.5373062806797649  0.7881078797407144  0.0476847506867983  1.0000
  O   O7        1.0  0.03736441558073981  0.7881455689160147  0.9523526332616042  1.0000
  O   O8        1.0  0.46263691153129843  0.2118544953657704  0.9523532586331882  1.0000
  O   O9        1.0  0.5286031621731483  0.08429617365366941  0.3166804167777499  1.0000
  O   O10       1.0  0.9713960066044297  0.9157017722330354  0.3166814449623985  1.0000
  O   O11       1.0  0.47133488059643014  0.9156281534858479  0.6833096408897106  1.0000
  O   O12       1.0  0.0286672030655026  0.0843717826312371  0.683309782191948  1.0000
  O   O13       1.0  0.5923884838597432  0.3569037578983868  0.43180649548227024  1.0000
  O   O14       1.0  0.9076118391647583  0.6430942393609343  0.4318074735863604  1.0000
  O   O15       1.0  0.4075561328606696  0.6431456082427404  0.5681788840072244  1.0000
  O   O16       1.0  0.09244664237272815  0.35685699074009153  0.5681779057741139  1.0000
