data_image0
_chemical_formula_structural       Zn2H32C42N4O8
_chemical_formula_sum              "Zn2 H32 C42 N4 O8"
_cell_length_a       7.6319758858164395
_cell_length_b       10.233061429544588
_cell_length_c       12.854604767366089
_cell_angle_alpha    110.05999745631493
_cell_angle_beta     93.44952802361662
_cell_angle_gamma    104.65889370492894

_space_group_name_H-M_alt    "P 1"
_space_group_IT_number       1

loop_
  _space_group_symop_operation_xyz
  'x, y, z'

loop_
  _atom_site_type_symbol
  _atom_site_label
  _atom_site_symmetry_multiplicity
  _atom_site_fract_x
  _atom_site_fract_y
  _atom_site_fract_z
  _atom_site_occupancy
  Zn  Zn1       1.0  0.838093293571603  0.48859556761262  0.11068882270240711  1.0000
  Zn  Zn2       1.0  0.1619058920512798  0.5114036388312113  0.8893105258934781  1.0000
  H   H1        1.0  0.05959173150924362  0.4936281905238504  0.3181018311040447  1.0000
  H   H2        1.0  0.9404091731442815  0.5063720966978947  0.681897876737473  1.0000
  H   H3        1.0  0.1430536470205865  0.012864646964388297  0.3993442946188566  1.0000
  H   H4        1.0  0.8569468413074331  0.9871345504167125  0.6006566558417744  1.0000
  H   H5        1.0  0.9514155249169105  0.8170568742311699  0.22427791593620572  1.0000
  H   H6        1.0  0.04858586822504659  0.1829412296254844  0.7757219914929295  1.0000
  H   H7        1.0  0.3414768499087444  0.08602494073409868  0.568799202391908  1.0000
  H   H8        1.0  0.6585206166835034  0.9139731849318123  0.4311997869583378  1.0000
  H   H9        1.0  0.36742228865517024  0.8513283305611451  0.6652844935945834  1.0000
  H   H10       1.0  0.6325786086246337  0.14867195450903375  0.3347167692530703  1.0000
  H   H11       1.0  0.7663419276606118  0.15504557672157654  0.008057088541988791  1.0000
  H   H12       1.0  0.23365898436663451  0.8449547126517415  0.9919410642933925  1.0000
  H   H13       1.0  0.5861578574320773  0.9446259204325571  0.835959066162836  1.0000
  H   H14       1.0  0.41384255504614476  0.05537654907850251  0.16404121959413223  1.0000
  H   H15       1.0  0.587678149990374  0.4457318803209063  0.9018164830535937  1.0000
  H   H16       1.0  0.41232144827115036  0.5542684148877794  0.0981824004262463  1.0000
  H   H17       1.0  0.41046074681613476  0.2555925596006929  0.7288125931825746  1.0000
  H   H18       1.0  0.5895379466314522  0.7444088291324461  0.27118733332876127  1.0000
  H   H19       1.0  0.2509675423219804  0.6732676394640649  0.4986210493181601  1.0000
  H   H20       1.0  0.7490329570666319  0.32673156114439195  0.5013775686332593  1.0000
  H   H21       1.0  0.9613229882018998  0.1992706510049729  0.3796288113289775  1.0000
  H   H22       1.0  0.03867569787195881  0.800730735576593  0.6203726701884945  1.0000
  H   H23       1.0  0.25900844322507055  0.3289986730383417  0.511430063836741  1.0000
  H   H24       1.0  0.7409907387109554  0.6710005323296995  0.4885700622622123  1.0000
  H   H25       1.0  0.5444707664443198  0.4005655937348962  0.4341977969935016  1.0000
  H   H26       1.0  0.45552800285306455  0.5994325228682841  0.56580279422149  1.0000
  H   H27       1.0  0.9497162546767226  0.15062824506483707  0.1782095963010732  1.0000
  H   H28       1.0  0.05028374884972204  0.8493731367571371  0.8217903770688648  1.0000
  H   H29       1.0  0.12747141762860537  0.11700742825699709  0.017040148660811397  1.0000
  H   H30       1.0  0.87252948702492  0.8829928589647478  0.9829595591807062  1.0000
  H   H31       1.0  0.3542535597819523  0.22820660291114342  0.03596618057986941  1.0000
  H   H32       1.0  0.645746031105851  0.7717936901459767  0.9640342579061139  1.0000
  C   C1        1.0  0.0815969037805573  0.6100551668867241  0.3404308645037303  1.0000
  C   C2        1.0  0.9184022855291898  0.3899440406328905  0.6595677065890868  1.0000
  C   C3        1.0  0.12749844318646086  0.8990200951242427  0.3854979545235507  1.0000
  C   C4        1.0  0.8725007387495649  0.1009791102438058  0.6145021715754027  1.0000
  C   C5        1.0  0.21411042121863497  0.8608742141667778  0.46570201051529375  1.0000
  C   C6        1.0  0.7858887607173839  0.13912499120126398  0.5342981155836597  1.0000
  C   C7        1.0  0.021146005541261576  0.7912536299425595  0.287879839313966  1.0000
  C   C8        1.0  0.9788549027991279  0.20874665835497552  0.7121190910244835  1.0000
  C   C9        1.0  0.3197954746728299  0.9762409263855217  0.5688895942189303  1.0000
  C   C10       1.0  0.6802046083902694  0.023757184382290592  0.4311102663515952  1.0000
  C   C11       1.0  0.3868930949149812  0.9594491213726639  0.6617904885112508  1.0000
  C   C12       1.0  0.6131087108656245  0.0405500712488447  0.3382089538018462  1.0000
  C   C13       1.0  0.6869129472190705  0.17109388461135205  0.9424253201533899  1.0000
  C   C14       1.0  0.31308443614965836  0.8289075110329449  0.05757455949933635  1.0000
  C   C15       1.0  0.4871601041437187  0.08069341222005728  0.7638309350466416  1.0000
  C   C16       1.0  0.5128398993827332  0.9193079696019238  0.2361690383232967  1.0000
  C   C17       1.0  0.5862637044732965  0.05501145980490209  0.8472290697330392  1.0000
  C   C18       1.0  0.4137349889742905  0.944989928928237  0.15277085677829655  1.0000
  C   C19       1.0  0.5905940906676576  0.3346146405522674  0.8836966849724277  1.0000
  C   C20       1.0  0.40940813143845384  0.665385641909893  0.11630151472156308  1.0000
  C   C21       1.0  0.48946166525563933  0.22529874006592368  0.785410721539364  1.0000
  C   C22       1.0  0.5105396557233915  0.7747026369964658  0.2145877436830473  1.0000
  C   C23       1.0  0.18861824933527063  0.7113460588820004  0.44055607150578874  1.0000
  C   C24       1.0  0.8113805273358351  0.288652059872753  0.5594429647030665  1.0000
  C   C25       1.0  0.23918418306592318  0.24989363637853046  0.18997435630858917  1.0000
  C   C26       1.0  0.7608167215876023  0.7501066508432148  0.8100253515329354  1.0000
  C   C27       1.0  0.40722192039907396  0.32089952062833044  0.26395107708930243  1.0000
  C   C28       1.0  0.5927776704887291  0.6791007724287894  0.7360493613966738  1.0000
  C   C29       1.0  0.08726633260715029  0.2327946382680537  0.3481878550082271  1.0000
  C   C30       1.0  0.9127328530157327  0.7672045681757778  0.6518114935876581  1.0000
  C   C31       1.0  0.2537881269774758  0.3049606515818867  0.4215343961529213  1.0000
  C   C32       1.0  0.7462114639103276  0.6950396414752333  0.578466042333062  1.0000
  C   C33       1.0  0.4129748681923927  0.34595754659734  0.378534255758474  1.0000
  C   C34       1.0  0.5870247226954105  0.6540427464597799  0.6214661827275093  1.0000
  C   C35       1.0  0.08141079880394388  0.20455099572861707  0.23388574100828657  1.0000
  C   C36       1.0  0.9185887957707236  0.7954492984042858  0.7661139199746214  1.0000
  C   C37       1.0  0.5858413093772725  0.3668962326213999  0.22404822301383828  1.0000
  C   C38       1.0  0.41415786887188927  0.6331029716708585  0.7759526805881762  1.0000
  C   C39       1.0  0.14545834477705447  0.3346634984206958  0.03717986724776518  1.0000
  C   C40       1.0  0.8545412461107486  0.6653367946364241  0.9628205712382183  1.0000
  C   C41       1.0  0.22337672676654557  0.2251027284147469  0.06701741576647177  1.0000
  C   C42       1.0  0.7766241742001225  0.7748975577312152  0.932983069578114  1.0000
  N   N1        1.0  0.9981614987754666  0.6488271787966795  0.26492977728220507  1.0000
  N   N2        1.0  0.0018380957992007653  0.35117311533623047  0.735069883700703  1.0000
  N   N3        1.0  0.6914322516445564  0.3097821957012457  0.9605246322557548  1.0000
  N   N4        1.0  0.30857038310019635  0.6902191755257688  0.03947310232219068  1.0000
  O   O1        1.0  0.5977916865412353  0.4611304117860868  0.17716204414853814  1.0000
  O   O2        1.0  0.4022088054736485  0.5388687866707969  0.8228381288090174  1.0000
  O   O3        1.0  0.7106650278153309  0.31204521629059195  0.23841400110384814  1.0000
  O   O4        1.0  0.28933415043383076  0.6879539880016665  0.7615869024981662  1.0000
  O   O5        1.0  0.18226979423204875  0.3515146027429381  0.9464650089218266  1.0000
  O   O6        1.0  0.8177297966557544  0.6484856903141817  0.053535429564156696  1.0000
  O   O7        1.0  0.05091188072450588  0.3975048652243984  0.10339049761535078  1.0000
  O   O8        1.0  0.9490877101632973  0.6024954278327215  0.8966099408706324  1.0000
