data_image0
_chemical_formula_structural       K4H16C8N28O4
_chemical_formula_sum              "K4 H16 C8 N28 O4"
_cell_length_a       8.001708227122379
_cell_length_b       8.002293054186438
_cell_length_c       11.864663407280577
_cell_angle_alpha    93.50965812171667
_cell_angle_beta     108.93668130433878
_cell_angle_gamma    115.34132938260616

_space_group_name_H-M_alt    "P 1"
_space_group_IT_number       1

loop_
  _space_group_symop_operation_xyz
  'x, y, z'

loop_
  _atom_site_type_symbol
  _atom_site_label
  _atom_site_symmetry_multiplicity
  _atom_site_fract_x
  _atom_site_fract_y
  _atom_site_fract_z
  _atom_site_occupancy
  K   K1        1.0  0.7372520883945273  0.9986321450616773  0.9655291341339518  1.0000
  K   K2        1.0  0.5326059669615832  0.7711994822363764  0.5343392090058643  1.0000
  K   K3        1.0  0.26274998477776984  0.0013680873242734003  0.034471242216071105  1.0000
  K   K4        1.0  0.4673968080235014  0.22880217450293122  0.4656580087245318  1.0000
  H   H1        1.0  0.9344894494460193  0.3790823526894158  0.5610862419722409  1.0000
  H   H2        1.0  0.31800952509367875  0.3733937972764282  0.9389485730242484  1.0000
  H   H3        1.0  0.0655099778318943  0.6209178728616395  0.43891355758592  1.0000
  H   H4        1.0  0.681990516302271  0.6266050094866529  0.061051300751067586  1.0000
  H   H5        1.0  0.8855360318330627  0.5613092039739129  0.564759959723041  1.0000
  H   H6        1.0  0.49642735593397463  0.3205043452733349  0.9352805300397334  1.0000
  H   H7        1.0  0.11446268836978396  0.4386895988347419  0.4352404688559446  1.0000
  H   H8        1.0  0.5035726854619754  0.6794944614897461  0.06471934373558237  1.0000
  H   H9        1.0  0.7424397339414314  0.2614149746068648  0.755784461640495  1.0000
  H   H10       1.0  0.005615713210439042  0.986576205977812  0.7442553544592058  1.0000
  H   H11       1.0  0.25756101803776243  0.7385852538246525  0.24421646951319076  1.0000
  H   H12       1.0  0.994383005238312  0.0134225973678284  0.25574423092017884  1.0000
  H   H13       1.0  0.8386747428485748  0.3585758131484695  0.9133213531209989  1.0000
  H   H14       1.0  0.9451726103816898  0.9253985100274279  0.5866785256999093  1.0000
  H   H15       1.0  0.16132600737653052  0.6414244158200334  0.08667873483309312  1.0000
  H   H16       1.0  0.05482681689622381  0.07460171552362743  0.4133212738582515  1.0000
  C   C1        1.0  0.22607565773375887  0.7103042027300077  0.7639193767896443  1.0000
  C   C2        1.0  0.4464298381064965  0.46207718941519726  0.736146870383017  1.0000
  C   C3        1.0  0.7739250942454347  0.2896960257015165  0.23608155436404832  1.0000
  C   C4        1.0  0.5535702032894535  0.5379216173478908  0.26385300339229906  1.0000
  C   C5        1.0  0.025681339990448724  0.49158925110329926  0.8316971000871902  1.0000
  C   C6        1.0  0.15989764432893594  0.19392644966794853  0.668347511003688  1.0000
  C   C7        1.0  0.974319411988745  0.508410977328218  0.16830383106650268  1.0000
  C   C8        1.0  0.8401017829489702  0.8060737758831067  0.3316522885544728  1.0000
  N   N1        1.0  0.1918566853035344  0.6125941203439991  0.9282181330790421  1.0000
  N   N2        1.0  0.1843825015402984  0.2636411504022931  0.5718446881487438  1.0000
  N   N3        1.0  0.8081440666756594  0.38740610808751813  0.07178279807465064  1.0000
  N   N4        1.0  0.8156169257376151  0.7363590751487695  0.4281551114094101  1.0000
  N   N5        1.0  0.3163038332170345  0.7524285559333775  0.8845605360972824  1.0000
  N   N6        1.0  0.3678654589857544  0.43176123251649307  0.6155197961006634  1.0000
  N   N7        1.0  0.6836969170080709  0.24757167303512526  0.11543955185680944  1.0000
  N   N8        1.0  0.6321352912393438  0.56823899645201  0.3844802918534214  1.0000
  N   N9        1.0  0.2837908568003018  0.8008041632118649  0.6772687845229372  1.0000
  N   N10       1.0  0.6236175120212624  0.606410335169123  0.8227699009990984  1.0000
  N   N11       1.0  0.7162098951788918  0.19919606521965247  0.3227321466307486  1.0000
  N   N12       1.0  0.37638120642748885  0.39358846817651044  0.1772296843802863  1.0000
  N   N13       1.0  0.43834358023612213  0.9685686919950671  0.7272461355783832  1.0000
  N   N14       1.0  0.741235251402273  0.7110381386988891  0.7727135001543529  1.0000
  N   N15       1.0  0.5616578788181383  0.0314329591788578  0.27275416655447765  1.0000
  N   N16       1.0  0.2587655005769207  0.28896208973262827  0.2272874309993327  1.0000
  N   N17       1.0  0.04371016138807706  0.5452114228390742  0.7265645063984177  1.0000
  N   N18       1.0  0.31866280643193795  0.3170788297981844  0.7734919560776845  1.0000
  N   N19       1.0  0.9562892676439249  0.4547888021749956  0.2734361363593365  1.0000
  N   N20       1.0  0.681337234964012  0.6829199769648964  0.22650791769763148  1.0000
  N   N21       1.0  0.8947052233533201  0.4571114478293835  0.6088884311245621  1.0000
  N   N22       1.0  0.34814552925219305  0.28571796297060104  0.8911607679691969  1.0000
  N   N23       1.0  0.10529552862587378  0.5428887806021339  0.3911125000291236  1.0000
  N   N24       1.0  0.6518552209729126  0.7142822659979019  0.1088393199848952  1.0000
  N   N25       1.0  0.8672525060189998  0.33959170714867776  0.8359340949996293  1.0000
  N   N26       1.0  0.0036853154125822017  0.0312798465996877  0.664115306621099  1.0000
  N   N27       1.0  0.13274824420610548  0.660408521819825  0.16406599295445548  1.0000
  N   N28       1.0  0.9963154348125162  0.9687203823688153  0.33588478133298594  1.0000
  O   O1        1.0  0.499987512689131  0.0559172834241721  0.6492224826148032  1.0000
  O   O2        1.0  0.9067220677743819  0.8506121565173573  0.850695730587539  1.0000
  O   O3        1.0  0.5000119145887754  0.944082942126883  0.3507773169433577  1.0000
  O   O4        1.0  0.09327797362156794  0.1493866502457237  0.1493041431877771  1.0000
