data_image0
_chemical_formula_structural       Cd8H56C72N24O24
_chemical_formula_sum              "Cd8 H56 C72 N24 O24"
_cell_length_a       5.826654653038792
_cell_length_b       20.86378412659287
_cell_length_c       20.86322442855743
_cell_angle_alpha    89.99686899819673
_cell_angle_beta     89.99999153285299
_cell_angle_gamma    90.00132754915302

_space_group_name_H-M_alt    "P 1"
_space_group_IT_number       1

loop_
  _space_group_symop_operation_xyz
  'x, y, z'

loop_
  _atom_site_type_symbol
  _atom_site_label
  _atom_site_symmetry_multiplicity
  _atom_site_fract_x
  _atom_site_fract_y
  _atom_site_fract_z
  _atom_site_occupancy
  Cd  Cd1       1.0  0.9901387088306421  0.26614024150897103  0.6690826678372517  1.0000
  Cd  Cd2       1.0  0.9901267945601405  0.23386702311047702  0.8309192328014274  1.0000
  Cd  Cd3       1.0  0.49012961343037637  0.3309216288729927  0.766140630972167  1.0000
  Cd  Cd4       1.0  0.4901487021515294  0.16908397963256044  0.7338634078047618  1.0000
  Cd  Cd5       1.0  0.009865291861927998  0.7338645473542866  0.3309188366318238  1.0000
  Cd  Cd6       1.0  0.009860044133162698  0.7661435174621969  0.16907939569847488  1.0000
  Cd  Cd7       1.0  0.5098658057912715  0.6690807634821779  0.23386135285996087  1.0000
  Cd  Cd8       1.0  0.5098655956986774  0.8309169747930764  0.2661390553532925  1.0000
  H   H1        1.0  0.017609605277428404  0.14738436694879906  0.7249824870239505  1.0000
  H   H2        1.0  0.017587814873884597  0.3526276931713709  0.7750155029865338  1.0000
  H   H3        1.0  0.517590316716266  0.275014163358307  0.6473786136042889  1.0000
  H   H4        1.0  0.5175908576753513  0.22498709073081358  0.8526273040612862  1.0000
  H   H5        1.0  0.9824167069799115  0.8526242565003412  0.2750132656103403  1.0000
  H   H6        1.0  0.9824007396953219  0.6473790130907344  0.22498072902229177  1.0000
  H   H7        1.0  0.48240338545701184  0.7249796016082467  0.3526233703901481  1.0000
  H   H8        1.0  0.48241314293668575  0.7750167394990795  0.1473751590502772  1.0000
  H   H9        1.0  0.8922343853406431  0.9936484816867402  0.3315125081402285  1.0000
  H   H10       1.0  0.8922119792358812  0.5063443762680034  0.16849838890931315  1.0000
  H   H11       1.0  0.3922172450873376  0.668483404913644  0.49365158679122356  1.0000
  H   H12       1.0  0.39215611971721387  0.8315169048352966  0.006329334362718  1.0000
  H   H13       1.0  0.10781080575895878  0.006360620875440799  0.6684880375948623  1.0000
  H   H14       1.0  0.10778172246673279  0.4936426778684646  0.831521329765394  1.0000
  H   H15       1.0  0.6077730242895143  0.33150940233591797  0.5063259522963861  1.0000
  H   H16       1.0  0.6077740816840204  0.16848357087043547  0.9936587494942727  1.0000
  H   H17       1.0  0.5421578268612703  0.9937094894493155  0.42818620775783955  1.0000
  H   H18       1.0  0.5421423574470552  0.5062853249093563  0.0718227829216218  1.0000
  H   H19       1.0  0.04216696911021239  0.5718281377322824  0.49369965075057104  1.0000
  H   H20       1.0  0.0421151340427031  0.9281568727897634  0.0063018919949869  1.0000
  H   H21       1.0  0.45789251377591006  0.006308240550666298  0.5718128998756526  1.0000
  H   H22       1.0  0.4578633569588604  0.4936902259799749  0.9281983738963716  1.0000
  H   H23       1.0  0.9578559106138157  0.4281795268791412  0.506302812276175  1.0000
  H   H24       1.0  0.9578545391339404  0.07182203439477058  0.993686671549419  1.0000
  H   H25       1.0  0.4143731805147581  0.08339523459331126  0.4975583471974687  1.0000
  H   H26       1.0  0.41434660279242047  0.4166057178993298  0.002450323211604699  1.0000
  H   H27       1.0  0.9143787857857502  0.5024533408596026  0.5833844592456285  1.0000
  H   H28       1.0  0.9143810384506637  0.9975418561061031  0.9166194847443307  1.0000
  H   H29       1.0  0.5856582813165971  0.9166220161384541  0.5024402811458941  1.0000
  H   H30       1.0  0.5856299357710526  0.5833741466203362  0.9975732301077398  1.0000
  H   H31       1.0  0.0855977553150566  0.4975557616327108  0.4166194417235971  1.0000
  H   H32       1.0  0.0856109460853602  0.0024384890981678986  0.08336524425923388  1.0000
  H   H33       1.0  0.760555622000645  0.0839261599857153  0.4010106983869406  1.0000
  H   H34       1.0  0.7605288603193047  0.41606565244214977  0.0989979667256051  1.0000
  H   H35       1.0  0.26054597800861495  0.5989784813891389  0.583927134051045  1.0000
  H   H36       1.0  0.26052522323087146  0.9010186431359907  0.9160585530277173  1.0000
  H   H37       1.0  0.23949300177736893  0.9160853392607745  0.5989845748657316  1.0000
  H   H38       1.0  0.2394459626096648  0.5839214017772673  0.9010198347131321  1.0000
  H   H39       1.0  0.7394408597012188  0.4010224736085774  0.4160599911327481  1.0000
  H   H40       1.0  0.7394358705012535  0.09897991536634976  0.08392905153115039  1.0000
  H   H41       1.0  0.6058863791027206  0.22983371228573182  0.5458668028704777  1.0000
  H   H42       1.0  0.6058763940861738  0.27015686644962494  0.9541394706679398  1.0000
  H   H43       1.0  0.1058859023762153  0.45413624653518503  0.7298369238023099  1.0000
  H   H44       1.0  0.1058776703083879  0.04586465878804089  0.7701657359114478  1.0000
  H   H45       1.0  0.39414164957872794  0.7701763488880287  0.45413374285872976  1.0000
  H   H46       1.0  0.39410701003546916  0.7298301880220632  0.04587114108034029  1.0000
  H   H47       1.0  0.8941507075066254  0.5458723763890703  0.2701732081936683  1.0000
  H   H48       1.0  0.894079989987901  0.9541233549567774  0.2298266619696889  1.0000
  H   H49       1.0  0.23300348599104836  0.13444508162188376  0.5772556522744523  1.0000
  H   H50       1.0  0.2329728537870537  0.365559949148597  0.9227473086800231  1.0000
  H   H51       1.0  0.7330070567416272  0.4227441420065217  0.634440982530691  1.0000
  H   H52       1.0  0.7330045258281145  0.07726206550834289  0.8655607988854397  1.0000
  H   H53       1.0  0.7670193935555003  0.8655611452808785  0.4227415383438852  1.0000
  H   H54       1.0  0.7670105509149537  0.6344328567094448  0.0772690547084096  1.0000
  H   H55       1.0  0.2670038095981583  0.5772678364294279  0.36555812523783965  1.0000
  H   H56       1.0  0.2669702975708859  0.9227331380084602  0.13442345054038896  1.0000
  C   C1        1.0  0.30403349060216567  0.9309779126600614  0.33725481362927917  1.0000
  C   C2        1.0  0.3040242926982586  0.569013419882445  0.16275594850720407  1.0000
  C   C3        1.0  0.8040356846380591  0.6627514952489119  0.4309798848166153  1.0000
  C   C4        1.0  0.8040024219634744  0.8372482041392072  0.0690138803799343  1.0000
  C   C5        1.0  0.6960031193043364  0.0690321486280396  0.6627423769078362  1.0000
  C   C6        1.0  0.6959642603367014  0.4309750723630542  0.837258018396703  1.0000
  C   C7        1.0  0.19597689679593336  0.33724850090671754  0.5690134714269064  1.0000
  C   C8        1.0  0.19595867194207273  0.16275179208903265  0.9309785172750508  1.0000
  C   C9        1.0  0.005767501746227299  0.013223089467174999  0.36804736465777665  1.0000
  C   C10       1.0  0.0057492227418194  0.4867679233761635  0.1319661919363213  1.0000
  C   C11       1.0  0.5057663265107165  0.6319537687061751  0.5132239484081963  1.0000
  C   C12       1.0  0.5057149251167486  0.8680468270068215  0.9867637917922069  1.0000
  C   C13       1.0  0.9942811221849652  0.9867898475914172  0.6319503051295285  1.0000
  C   C14       1.0  0.9942393302087636  0.5132191307641135  0.8680535267419883  1.0000
  C   C15       1.0  0.4942239437447854  0.3680476655884347  0.48676317676424213  1.0000
  C   C16       1.0  0.49423243832806923  0.13194837628892486  0.0132271680249971  1.0000
  C   C17       1.0  0.22471558370597933  0.9866812141459532  0.3766523411180315  1.0000
  C   C18       1.0  0.2247074332879393  0.5133116738068395  0.12335709412531769  1.0000
  C   C19       1.0  0.7247177035881761  0.6233535330792532  0.48667820279931107  1.0000
  C   C20       1.0  0.7246667574497749  0.8766424494910293  0.0133127976788856  1.0000
  C   C21       1.0  0.7753261753070857  0.01333268153384639  0.6233448493438869  1.0000
  C   C22       1.0  0.7752879848262211  0.48667777708417476  0.8766554348189856  1.0000
  C   C23       1.0  0.27529144540070394  0.3766474218157326  0.5133113189303485  1.0000
  C   C24       1.0  0.27528918724843976  0.12335275379835751  0.9866781621323141  1.0000
  C   C25       1.0  0.36966285758968104  0.012941400671351695  0.4233055918151365  1.0000
  C   C26       1.0  0.36964712977895436  0.48705290779766114  0.076704099945502  1.0000
  C   C27       1.0  0.8696698606762893  0.5767037048231953  0.5129352206892079  1.0000
  C   C28       1.0  0.869628680737442  0.9232925172583816  0.9870611169238257  1.0000
  C   C29       1.0  0.6303891991731164  0.9870753708836586  0.5766892020243901  1.0000
  C   C30       1.0  0.6303465715407982  0.512930312063993  0.9233122636147328  1.0000
  C   C31       1.0  0.13033757268276247  0.423303001286996  0.48706484580477377  1.0000
  C   C32       1.0  0.1303375607153043  0.07669501740479487  0.012925049900402998  1.0000
  C   C33       1.0  0.29696398590719747  0.0627747209153284  0.46259537901514136  1.0000
  C   C34       1.0  0.2969452439042897  0.43721825721311064  0.0374172904507262  1.0000
  C   C35       1.0  0.7969697031071377  0.5374181046916743  0.5627715425578188  1.0000
  C   C36       1.0  0.7969469601878316  0.9625839764579563  0.937229689862164  1.0000
  C   C37       1.0  0.7030726247243493  0.9372434885839238  0.5373984561837517  1.0000
  C   C38       1.0  0.703038159750534  0.5627625659003498  0.9626062628459167  1.0000
  C   C39       1.0  0.20303429852012303  0.46259674944253937  0.4372304410356023  1.0000
  C   C40       1.0  0.20303472715029608  0.03739972386724588  0.0627545597736656  1.0000
  C   C41       1.0  0.07355659334799469  0.08620856949150377  0.45552524148254037  1.0000
  C   C42       1.0  0.07353706930038578  0.41377754981507303  0.0444925340854212  1.0000
  C   C43       1.0  0.5735679197140655  0.5444818213430122  0.5862113762955729  1.0000
  C   C44       1.0  0.573538326080019  0.9555239458444543  0.9137872930292514  1.0000
  C   C45       1.0  0.9264988961256008  0.9138105986098849  0.5444681143729326  1.0000
  C   C46       1.0  0.9264429016114661  0.5862003974008444  0.9555338951411017  1.0000
  C   C47       1.0  0.4264292169064348  0.4555330328135268  0.4137901279903531  1.0000
  C   C48       1.0  0.42643306400778863  0.04446263033672439  0.0861955186231924  1.0000
  C   C49       1.0  0.9300266268326993  0.06299241478671998  0.4070364055059272  1.0000
  C   C50       1.0  0.9300070666540562  0.4369957913306023  0.0929787327208516  1.0000
  C   C51       1.0  0.43003014834109626  0.5929643801686877  0.5629965183359003  1.0000
  C   C52       1.0  0.42999369748910243  0.9070392033660466  0.9369946830421368  1.0000
  C   C53       1.0  0.07002028103701721  0.9370229189082762  0.5929574297394566  1.0000
  C   C54       1.0  0.0699729047331275  0.5629874282308617  0.9070462584703308  1.0000
  C   C55       1.0  0.569972136471101  0.4070452020005745  0.436996358423535  1.0000
  C   C56       1.0  0.5699708280312733  0.0929516863599815  0.06299244234523367  1.0000
  C   C57       1.0  0.7552659538523088  0.19928426814375647  0.5388046020553147  1.0000
  C   C58       1.0  0.7552583051847606  0.30070944448861764  0.9612009829256465  1.0000
  C   C59       1.0  0.2552773370671417  0.4611934812717633  0.6992848423484617  1.0000
  C   C60       1.0  0.255271748660661  0.038807682340959083  0.8007113770971584  1.0000
  C   C61       1.0  0.2447552096853869  0.8007243551712616  0.46119498508095796  1.0000
  C   C62       1.0  0.2447285319378594  0.6992828822226256  0.0388110666586741  1.0000
  C   C63       1.0  0.7447472590283722  0.5388156212884281  0.3007161827133444  1.0000
  C   C64       1.0  0.7446927769082805  0.9611832071781731  0.1992815000377703  1.0000
  C   C65       1.0  0.07463962679602079  0.15213450974713538  0.5559864290055428  1.0000
  C   C66       1.0  0.0746215285930347  0.3478650038194146  0.9440201089954812  1.0000
  C   C67       1.0  0.5746507234471353  0.4440216421374356  0.6521316336251813  1.0000
  C   C68       1.0  0.5746388103994279  0.05598671714201229  0.84786893157613  1.0000
  C   C69       1.0  0.9253918343705935  0.8478755514930607  0.44401219947206977  1.0000
  C   C70       1.0  0.9253670246313348  0.652125405572107  0.0559952958095096  1.0000
  C   C71       1.0  0.42536872459346137  0.5559946497802029  0.3478732258043493  1.0000
  C   C72       1.0  0.42533429641055415  0.9440046519115908  0.1521172351716871  1.0000
  N   N1        1.0  0.9880019568944363  0.13300178279107655  0.4986584788889059  1.0000
  N   N2        1.0  0.987993646352642  0.3669887340807704  0.0013532229145098995  1.0000
  N   N3        1.0  0.4880160954401306  0.5013470865117354  0.6330017493968185  1.0000
  N   N4        1.0  0.4880177153430124  0.9986597659787431  0.8669960810645349  1.0000
  N   N5        1.0  0.012036369725940698  0.867013550893027  0.50133583567478  1.0000
  N   N6        1.0  0.011989757745133998  0.6329973615161746  0.9986650578484201  1.0000
  N   N7        1.0  0.5119861895616892  0.4986639333144537  0.3669978377079133  1.0000
  N   N8        1.0  0.5119691214764474  0.0013316030474470998  0.1329905649859668  1.0000
  N   N9        1.0  0.7826672443723696  0.16288234731482015  0.4873659463031713  1.0000
  N   N10       1.0  0.7826553150033105  0.33710463927661033  0.012645084486386795  1.0000
  N   N11       1.0  0.2826851605545997  0.5126365412833919  0.6628810522720414  1.0000
  N   N12       1.0  0.2826893362617966  0.9873658223693479  0.8371146692468512  1.0000
  N   N13       1.0  0.2173659334154294  0.8371320277397417  0.5126293269066194  1.0000
  N   N14       1.0  0.2173143591655275  0.6628824149810978  0.9873717583313633  1.0000
  N   N15       1.0  0.7173085430446875  0.48737304071980236  0.33711661761636685  1.0000
  N   N16       1.0  0.7172837705483986  0.012625067195152396  0.16287676994517847  1.0000
  N   N17       1.0  0.9306855451163117  0.19416701550107254  0.5821669995970495  1.0000
  N   N18       1.0  0.9306678132156279  0.3058341062735152  0.9178349844161745  1.0000
  N   N19       1.0  0.43069298317814747  0.417837546261637  0.6941659944926001  1.0000
  N   N20       1.0  0.43068176906150757  0.08216719178998488  0.8058352516806265  1.0000
  N   N21       1.0  0.06933905068517282  0.8058387318940772  0.4178359427765912  1.0000
  N   N22       1.0  0.06932760519255508  0.6941586997825336  0.08217562721629429  1.0000
  N   N23       1.0  0.5693539245349656  0.5821749111711938  0.30584078223849076  1.0000
  N   N24       1.0  0.5692844727297839  0.9178236978485611  0.1941542702670205  1.0000
  O   O1        1.0  0.18158036754205398  0.9129153882940878  0.2899552613332972  1.0000
  O   O2        1.0  0.181565011391605  0.58707516704532  0.210054234363426  1.0000
  O   O3        1.0  0.6815819872324697  0.7100528590024734  0.4129257896441558  1.0000
  O   O4        1.0  0.6815625937156539  0.7899451043800237  0.08707198155258308  1.0000
  O   O5        1.0  0.818444228472913  0.08709275563273877  0.7100467223709969  1.0000
  O   O6        1.0  0.8184080954032353  0.4129138046317491  0.7899563773562618  1.0000
  O   O7        1.0  0.3184426082302636  0.2899500129064022  0.5870685251618468  1.0000
  O   O8        1.0  0.3184036489097579  0.2100544124932354  0.9129218540446331  1.0000
  O   O9        1.0  0.49343995403395263  0.9036978981427095  0.3524541833327177  1.0000
  O   O10       1.0  0.4934424086880185  0.5962902780528622  0.14755775155442305  1.0000
  O   O11       1.0  0.9934326089893801  0.6475561478911441  0.4036932662443107  1.0000
  O   O12       1.0  0.9934129150947155  0.8524471055790239  0.09629544052975797  1.0000
  O   O13       1.0  0.5066035208147567  0.09631168390983896  0.647541089959354  1.0000
  O   O14       1.0  0.5065581577392705  0.40369390033361424  0.8524605292322889  1.0000
  O   O15       1.0  0.0065834049178335  0.3524433688935388  0.596302007254941  1.0000
  O   O16       1.0  0.006556759814309001  0.14755049426636185  0.903693601977892  1.0000
  O   O17       1.0  0.10672100465696839  0.18598043995445576  0.736292515475867  1.0000
  O   O18       1.0  0.1066987509955908  0.3140319673289794  0.7637101428634878  1.0000
  O   O19       1.0  0.6067007655501157  0.2637122660052924  0.6859782607790449  1.0000
  O   O20       1.0  0.6066941635323104  0.23629460773692995  0.8140270526876918  1.0000
  O   O21       1.0  0.8932984426219477  0.8140281833963171  0.2637061130370099  1.0000
  O   O22       1.0  0.8933001012187346  0.6859761767893315  0.2362870477358712  1.0000
  O   O23       1.0  0.3932980862293505  0.7362906055950514  0.3140251609786162  1.0000
  O   O24       1.0  0.39329610692111316  0.7637077846910213  0.18597301389885956  1.0000
