data_image0
_chemical_formula_structural       Mn4H40C24S8N32O24
_chemical_formula_sum              "Mn4 H40 C24 S8 N32 O24"
_cell_length_a       7.038850588
_cell_length_b       7.603690425462972
_cell_length_c       27.104
_cell_angle_alpha    91.2094311238903
_cell_angle_beta     90.0
_cell_angle_gamma    90.0

_space_group_name_H-M_alt    "P 1"
_space_group_IT_number       1

loop_
  _space_group_symop_operation_xyz
  'x, y, z'

loop_
  _atom_site_type_symbol
  _atom_site_label
  _atom_site_symmetry_multiplicity
  _atom_site_fract_x
  _atom_site_fract_y
  _atom_site_fract_z
  _atom_site_occupancy
  Mn  Mn1       1.0  0.7630123601651846  0.7498464387611037  0.7501277894334135  1.0000
  Mn  Mn2       1.0  0.262998905411628  0.2501448140630629  0.7498755162099257  1.0000
  Mn  Mn3       1.0  0.2369989217904376  0.2501540221704417  0.24987557073392  1.0000
  Mn  Mn4       1.0  0.7369995903655067  0.7498530159806622  0.2501252457344947  1.0000
  H   H1        1.0  0.9447977218521402  0.8858988561154391  0.6618793828703105  1.0000
  H   H2        1.0  0.44479847396357297  0.1140963430404582  0.8381176740034988  1.0000
  H   H3        1.0  0.0551950911789945  0.1140937121526377  0.3381176584252187  1.0000
  H   H4        1.0  0.5551929183810671  0.8859054333349976  0.1618801597144852  1.0000
  H   H5        1.0  0.5806189446565924  0.6119760779221508  0.8386535807527193  1.0000
  H   H6        1.0  0.08061117264902862  0.3880335911167735  0.6613479891924426  1.0000
  H   H7        1.0  0.4193823924935387  0.3880164903459332  0.1613460431874287  1.0000
  H   H8        1.0  0.919381640382106  0.6119721315904201  0.3386531884360622  1.0000
  H   H9        1.0  0.7185008314598988  0.5004829983810097  0.5057476024532619  1.0000
  H   H10       1.0  0.2185115283768226  0.4995306169896453  0.9942539908593275  1.0000
  H   H11       1.0  0.2814791953927482  0.4995385096531067  0.4942562512895776  1.0000
  H   H12       1.0  0.7814940708328066  0.5004803674931892  0.005746480027276801  1.0000
  H   H13       1.0  0.7900863827797481  0.0020586697202845  0.9933652006331926  1.0000
  H   H14       1.0  0.2900857142046789  0.99795231476255  0.5066363771011096  1.0000
  H   H15       1.0  0.2099121129973867  0.9979562610942807  0.006634555722378399  1.0000
  H   H16       1.0  0.709911360885954  0.0020586697202845  0.49336593853166016  1.0000
  H   H17       1.0  0.7019100545226707  0.14853992639883276  0.6644122388329305  1.0000
  H   H18       1.0  0.20191080663410332  0.8514802661913807  0.8355875486792073  1.0000
  H   H19       1.0  0.2980912826274675  0.8514684271961814  0.33558784752616316  1.0000
  H   H20       1.0  0.7980933718890313  0.1485228256279925  0.1644084480817511  1.0000
  H   H21       1.0  0.47744442902784817  0.2402303133079471  0.6488306081468806  1.0000
  H   H22       1.0  0.9774635665274047  0.7597714630675085  0.851169070317269  1.0000
  H   H23       1.0  0.5225498046897883  0.759772778511419  0.3511716607510351  1.0000
  H   H24       1.0  0.0225420326822245  0.2402171588688375  0.1488279476108332  1.0000
  H   H25       1.0  0.0476896044039137  0.2586057492968337  0.8513460705176499  1.0000
  H   H26       1.0  0.5476959557249828  0.7413815571956022  0.6486498327736071  1.0000
  H   H27       1.0  0.9523145741192138  0.7413933961908017  0.14865248552051466  1.0000
  H   H28       1.0  0.4523139055441447  0.2586215346237637  0.3513502224289126  1.0000
  H   H29       1.0  0.8260382753275763  0.3538517810966368  0.8345742335522459  1.0000
  H   H30       1.0  0.32605181361749663  0.6461276327323375  0.6654197782579985  1.0000
  H   H31       1.0  0.1739587997630636  0.6461342099518887  0.16542203089910856  1.0000
  H   H32       1.0  0.673958047651631  0.3538570428722779  0.3345768473534391  1.0000
  H   H33       1.0  0.5906759843841698  0.4886466340723246  0.789878002765235  1.0000
  H   H34       1.0  0.0906696330631078  0.5113577731909515  0.7101250118202884  1.0000
  H   H35       1.0  0.4093338768849577  0.5113485650835798  0.21012089885473975  1.0000
  H   H36       1.0  0.9093430695790161  0.4886413722966837  0.28987760265943047  1.0000
  H   H37       1.0  0.9329761894925994  0.011398321486410604  0.7102305684774848  1.0000
  H   H38       1.0  0.4329797829770357  0.9885889850060252  0.78976607271224  1.0000
  H   H39       1.0  0.0670152028520405  0.9885968776694867  0.289764643650166  1.0000
  H   H40       1.0  0.5670158714271025  0.0114035832620587  0.21023244438021035  1.0000
  C   C1        1.0  0.6384124714425639  0.3958552206099313  0.7013378541990462  1.0000
  C   C2        1.0  0.1384316924784841  0.6041518175411726  0.7986637001678359  1.0000
  C   C3        1.0  0.3615789209020761  0.6041399785459731  0.29866326111632446  1.0000
  C   C4        1.0  0.8615838515366434  0.395838119839091  0.20133701504173018  1.0000
  C   C5        1.0  0.6270597656277488  0.2719864447567063  0.6564717892748461  1.0000
  C   C6        1.0  0.127073303917669  0.7280258551700314  0.8435286894009051  1.0000
  C   C7        1.0  0.3729330474033929  0.7280192779504802  0.3435282815059608  1.0000
  C   C8        1.0  0.8729308746054585  0.2719732903176038  0.15646986663725926  1.0000
  C   C9        1.0  0.5993080755530898  0.39814277757067634  0.5719952159280979  1.0000
  C   C10       1.0  0.09932161384301  0.6018774150195298  0.9280056784317381  1.0000
  C   C11       1.0  0.4006776340455573  0.6018721532438891  0.4280067541228689  1.0000
  C   C12       1.0  0.900685406053114  0.3981335694633047  0.0719925787594704  1.0000
  C   C13       1.0  0.8874659181783997  0.10462383143934771  0.7983796186294113  1.0000
  C   C14       1.0  0.38748940127381803  0.8953358507309661  0.7016235000745183  1.0000
  C   C15       1.0  0.1125354189717314  0.8953713677165567  0.20161780719363517  1.0000
  C   C16       1.0  0.6125076738168147  0.10463830132236043  0.29837822851304446  1.0000
  C   C17       1.0  0.897996046510201  0.22942394158135934  0.843029828726692  1.0000
  C   C18       1.0  0.39800106068113195  0.7705607340232561  0.656968641630911  1.0000
  C   C19       1.0  0.1020067113264318  0.7705686266867249  0.15696647467036223  1.0000
  C   C20       1.0  0.6020073799015009  0.2294357805765586  0.34302952987974317  1.0000
  C   C21       1.0  0.9171128040429437  0.10309923194682112  0.9275954286759995  1.0000
  C   C22       1.0  0.4171135561543764  0.8969130679799237  0.5724046810505143  1.0000
  C   C23       1.0  0.0828871124206927  0.8969025444286418  0.0724031429404448  1.0000
  C   C24       1.0  0.5828820982497618  0.10309791650290383  0.4275972656330254  1.0000
  S   S1        1.0  0.36365312319085774  0.399514785569565  0.5659149397672251  1.0000
  S   S2        1.0  0.8636651572579197  0.6004975143571798  0.9340870147054543  1.0000
  S   S3        1.0  0.6363269036617893  0.600492252581539  0.43409067304121157  1.0000
  S   S4        1.0  0.1363404419517167  0.3995134701256475  0.0659138251303872  1.0000
  S   S5        1.0  0.1523714684082762  0.0979900477975733  0.9346977022122616  1.0000
  S   S6        1.0  0.6523749783563417  0.9020235675730819  0.5653020463541693  1.0000
  S   S7        1.0  0.8476284480553602  0.9020104131339792  0.06530123056428039  1.0000
  S   S8        1.0  0.34762920016679294  0.0979834705780149  0.43469913906347557  1.0000
  N   N1        1.0  0.7028050870171398  0.3449080779476362  0.6119467474298188  1.0000
  N   N2        1.0  0.2028186253070672  0.655121322749949  0.8880560462001696  1.0000
  N   N3        1.0  0.2971834639544965  0.6551055374230188  0.388054476933533  1.0000
  N   N4        1.0  0.7971883945890639  0.3448909771767959  0.1119436945771142  1.0000
  N   N5        1.0  0.8923133005135497  0.3645147694369585  0.6038599963054025  1.0000
  N   N6        1.0  0.3923282594899717  0.6355080540410682  0.896143865226577  1.0000
  N   N7        1.0  0.1076724090850973  0.6354975304897863  0.3961423271165074  1.0000
  N   N8        1.0  0.6076787604061593  0.3644963532222079  0.10385619776509  1.0000
  N   N9        1.0  0.9141393072001947  0.426906274122544  0.5604624636526054  1.0000
  N   N10       1.0  0.414152845490122  0.5731073412481109  0.9395409744061495  1.0000
  N   N11       1.0  0.0858435610254489  0.5731099721359315  0.4395406210351993  1.0000
  N   N12       1.0  0.5858527537195144  0.4268983814590826  0.0604594653238948  1.0000
  N   N13       1.0  0.7398636943478181  0.4470009953027444  0.5405755474002802  1.0000
  N   N14       1.0  0.2398772326377454  0.5530113046239934  0.959427144970867  1.0000
  N   N15       1.0  0.2601134911318255  0.5530152509557241  0.45942790623676194  1.0000
  N   N16       1.0  0.7601283665718839  0.4469983644149238  0.040573318126597285  1.0000
  N   N17       1.0  0.8176221285065282  0.15833998353371476  0.8872244739631512  1.0000
  N   N18       1.0  0.3176257219909644  0.8416604773978309  0.6127748277626209  1.0000
  N   N19       1.0  0.1823820500165994  0.8416539001782797  0.1127722061722807  1.0000
  N   N20       1.0  0.6823770358456684  0.15834392986544546  0.3872256041782761  1.0000
  N   N21       1.0  0.627278551348617  0.14136944164147996  0.894346167468214  1.0000
  N   N22       1.0  0.1272821448330461  0.8586283884022452  0.6056527497300406  1.0000
  N   N23       1.0  0.3727213651150194  0.8586257575144245  0.1056508894055952  1.0000
  N   N24       1.0  0.8727220336900814  0.14137338797321067  0.394348404531037  1.0000
  N   N25       1.0  0.6011549680019996  0.0789069029847127  0.9375728249618831  1.0000
  N   N26       1.0  0.1011557201134323  0.9210975042785636  0.5624272380297839  1.0000
  N   N27       1.0  0.398843527775135  0.9210988197224736  0.062425401072758284  1.0000
  N   N28       1.0  0.8988441963502041  0.0789055875408025  0.4375742929696712  1.0000
  N   N29       1.0  0.7734501438745411  0.056030017933331115  0.9582881609211995  1.0000
  N   N30       1.0  0.2734508959859738  0.9439822819934138  0.5417126867037823  1.0000
  N   N31       1.0  0.2265483519025935  0.9439783356616829  0.041710449640966395  1.0000
  N   N32       1.0  0.7265504411641572  0.056026071601600315  0.4582896133507006  1.0000
  O   O1        1.0  0.7342107827676472  0.5356053507973116  0.6980667000573673  1.0000
  O   O2        1.0  0.2342385279225638  0.4643832711390417  0.801942862144642  1.0000
  O   O3        1.0  0.2657749268309928  0.4643937946903236  0.3019373902192938  1.0000
  O   O4        1.0  0.7657770160925567  0.5356066662412218  0.19806375625264389  1.0000
  O   O5        1.0  0.5506012596157674  0.3464208384449634  0.7398674522868518  1.0000
  O   O6        1.0  0.05062474271118591  0.65355331360837  0.7601364899960996  1.0000
  O   O7        1.0  0.4494029189073601  0.6535506827205497  0.2601338917731866  1.0000
  O   O8        1.0  0.9493964840499345  0.3464221538888738  0.23986303268520703  1.0000
  O   O9        1.0  0.7925669014072838  0.9644834753420286  0.8018993844982703  1.0000
  O   O10       1.0  0.2925804396972111  0.035516985589517  0.69810139302443  1.0000
  O   O11       1.0  0.2074486426078437  0.0355104083699658  0.19809877143409688  1.0000
  O   O12       1.0  0.7074052699014359  0.9644716363468293  0.3019018970406222  1.0000
  O   O13       1.0  0.9752302473507228  0.1536648958750035  0.7598100587663765  1.0000
  O   O14       1.0  0.475233840835152  0.8462961017392203  0.7401875334882035  1.0000
  O   O15       1.0  0.0247739311724118  0.8463329341687216  0.2401881205334178  1.0000
  O   O16       1.0  0.5247646549419827  0.1536767348702028  0.2598108667671184  1.0000
  O   O17       1.0  0.8638711568002932  0.9199859541740025  0.6902290977631084  1.0000
  O   O18       1.0  0.3638733295982277  0.0800079295379845  0.8097679513215539  1.0000
  O   O19       1.0  0.1361216562308414  0.0800039832062538  0.30976792795413377  1.0000
  O   O20       1.0  0.636119483432914  0.919987269617913  0.19023058134918355  1.0000
  O   O21       1.0  0.6600566302573156  0.5796700909187038  0.8099248019687763  1.0000
  O   O22       1.0  0.1600417548172572  0.4203277391250211  0.6900778047218097  1.0000
  O   O23       1.0  0.3399574930713101  0.4203264236811109  0.19007558323727378  1.0000
  O   O24       1.0  0.8399610030193756  0.5796661445869731  0.3099225649059534  1.0000
