data_image0
_chemical_formula_structural       Zn2H24C36S4N6O8
_chemical_formula_sum              "Zn2 H24 C36 S4 N6 O8"
_cell_length_a       8.102120581305014
_cell_length_b       10.472219157948766
_cell_length_c       12.053225375562665
_cell_angle_alpha    70.17132836134581
_cell_angle_beta     76.39367767477052
_cell_angle_gamma    81.55795297532227

_space_group_name_H-M_alt    "P 1"
_space_group_IT_number       1

loop_
  _space_group_symop_operation_xyz
  'x, y, z'

loop_
  _atom_site_type_symbol
  _atom_site_label
  _atom_site_symmetry_multiplicity
  _atom_site_fract_x
  _atom_site_fract_y
  _atom_site_fract_z
  _atom_site_occupancy
  Zn  Zn1       1.0  0.388748791677223  0.4557407707986769  0.44284258958587946  1.0000
  Zn  Zn2       1.0  0.6112501019981167  0.5442490689222979  0.5571645500058011  1.0000
  H   H1        1.0  0.049125882416063894  0.24807121746867716  0.5141524779010709  1.0000
  H   H2        1.0  0.9508862389562012  0.7519369832305499  0.4858354050052471  1.0000
  H   H3        1.0  0.2784807707187511  0.08855883075909791  0.44561258305812873  1.0000
  H   H4        1.0  0.721530639787261  0.9114442863806288  0.5543786098965884  1.0000
  H   H5        1.0  0.7597144812767098  0.19572603045796194  0.27701700727861583  1.0000
  H   H6        1.0  0.24030241531878008  0.804296463850072  0.7229633080175265  1.0000
  H   H7        1.0  0.42380033964396085  0.29676640101227036  0.8939349943233029  1.0000
  H   H8        1.0  0.576188774722148  0.7032314831407973  0.10607208038562996  1.0000
  H   H9        1.0  0.1876223304566622  0.06870279859617769  0.7440079392864973  1.0000
  H   H10       1.0  0.8123546862117833  0.93130109416856  0.2560025409881988  1.0000
  H   H11       1.0  0.13531841558386054  0.8934615166467877  0.9460005682021376  1.0000
  H   H12       1.0  0.8646590547503051  0.1065382854256214  0.05400941940096258  1.0000
  H   H13       1.0  0.468422457078475  0.3410529203467263  0.24133159739090368  1.0000
  H   H14       1.0  0.5315869806261374  0.6589450679102953  0.7586606290128944  1.0000
  H   H15       1.0  0.36242966226776463  0.37943411723662024  0.05272359622801299  1.0000
  H   H16       1.0  0.637580220562164  0.6205598203969273  0.9472714454973713  1.0000
  H   H17       1.0  0.9440697561329542  0.6336922576724007  0.18153918600006588  1.0000
  H   H18       1.0  0.055941280553440706  0.3663027229143977  0.8184561879967944  1.0000
  H   H19       1.0  0.06328501744704337  0.5805549015398486  0.36594905876439304  1.0000
  H   H20       1.0  0.9367234782882575  0.4194400685382576  0.6340483780201824  1.0000
  H   H21       1.0  0.030903574879616265  0.6517262794612294  0.9566366251948256  1.0000
  H   H22       1.0  0.9690946489726572  0.34826964621215944  0.04336711841277459  1.0000
  H   H23       1.0  0.17524693405221112  0.5232197904078647  0.9152311898067185  1.0000
  H   H24       1.0  0.8247457905288871  0.47678003464783103  0.0847631130769173  1.0000
  C   C1        1.0  0.7429385182402938  0.3286684788002603  0.43798597033809733  1.0000
  C   C2        1.0  0.2570583633544742  0.6713282689561949  0.5620028013645425  1.0000
  C   C3        1.0  0.885488456746245  0.23473889219933855  0.4001876073382533  1.0000
  C   C4        1.0  0.11452772471278655  0.7652785385836152  0.5997976720028648  1.0000
  C   C5        1.0  0.03451372132035149  0.20399767256466822  0.4474288153467612  1.0000
  C   C6        1.0  0.9654964618883995  0.7960165988154202  0.552555875971052  1.0000
  C   C7        1.0  0.16225363521406422  0.11569537281668116  0.4092717079226845  1.0000
  C   C8        1.0  0.837758373809322  0.8843138455470199  0.59071588465239  1.0000
  C   C9        1.0  0.13740101204822966  0.061716646383445116  0.3228017719170069  1.0000
  C   C10       1.0  0.8626129394088694  0.9382864812649672  0.6771873582499952  1.0000
  C   C11       1.0  0.8744428970933599  0.1746847865355221  0.3150536863022851  1.0000
  C   C12       1.0  0.1255743365487589  0.8253346547790841  0.6849274999876016  1.0000
  C   C13       1.0  0.2508198590986623  0.006780732416572699  0.02676108445665192  1.0000
  C   C14       1.0  0.7491646206256846  0.9932130700784257  0.9732521041510015  1.0000
  C   C15       1.0  0.3577583332998984  0.20840896289858785  0.9045508720881231  1.0000
  C   C16       1.0  0.6422194655404994  0.7915878262492556  0.09546329450189726  1.0000
  C   C17       1.0  0.31313619256236086  0.19606630741075287  0.8034266882801903  1.0000
  C   C18       1.0  0.6868328642061952  0.8039406068213424  0.19658910936390583  1.0000
  C   C19       1.0  0.22912231389041443  0.08150781118087018  0.8190175306475851  1.0000
  C   C20       1.0  0.7708467450132376  0.9184990930340147  0.18099743999822251  1.0000
  C   C21       1.0  0.1992667257754732  0.9839549877229956  0.9318611607657987  1.0000
  C   C22       1.0  0.8007091263610067  0.016047912174563802  0.06815312222887832  1.0000
  C   C23       1.0  0.36024351558418743  0.3018739604060841  0.6840400145599193  1.0000
  C   C24       1.0  0.6397370424997462  0.6981208339731423  0.31597515089976724  1.0000
  C   C25       1.0  0.3522234996642197  0.40468907527752407  0.22366567505635263  1.0000
  C   C26       1.0  0.6477861541977461  0.595306917719398  0.7763304400031218  1.0000
  C   C27       1.0  0.29314690417395883  0.4278545869306996  0.11880976426731851  1.0000
  C   C28       1.0  0.7068551396453485  0.5721413144368698  0.8811875771655339  1.0000
  C   C29       1.0  0.1451941152919005  0.5131903255966678  0.09981456414504926  1.0000
  C   C30       1.0  0.854807937067818  0.48680553570203944  0.9001794692946349  1.0000
  C   C31       1.0  0.06007223913294981  0.567129092221208  0.19109417524191494  1.0000
  C   C32       1.0  0.9399339510245285  0.43286378193318586  0.8089017700014053  1.0000
  C   C33       1.0  0.1256057770923746  0.5386523663661222  0.2940665216506417  1.0000
  C   C34       1.0  0.8744067526322185  0.461340594163282  0.7059292286131511  1.0000
  C   C35       1.0  0.0755243282984708  0.5434484104169642  0.9879900062442318  1.0000
  C   C36       1.0  0.9244739040942065  0.4565474751875697  0.01201042937019286  1.0000
  S   S1        1.0  0.30479638056840497  0.9490240039042135  0.2776637029264821  1.0000
  S   S2        1.0  0.6952010286091407  0.0509678158052935  0.7223397524050913  1.0000
  S   S3        1.0  0.21227167005559275  0.8789078615955856  0.16964065962655905  1.0000
  S   S4        1.0  0.7877193888793315  0.12108392182497599  0.8303671256760127  1.0000
  N   N1        1.0  0.2708512787327351  0.460076394675248  0.30947239764406487  1.0000
  N   N2        1.0  0.7291597515483589  0.5399186159631879  0.6905254573476755  1.0000
  N   N3        1.0  0.9978581104654868  0.09120217748246519  0.27534814033305116  1.0000
  N   N4        1.0  0.00215472604323706  0.9088110867418424  0.724634778528291  1.0000
  N   N5        1.0  0.32487405444749845  0.11774158663698131  0.01468497662438039  1.0000
  N   N6        1.0  0.6751181498034883  0.8822512798056862  0.9853264489428427  1.0000
  O   O1        1.0  0.6006986421552442  0.3278599951465679  0.41031608046381524  1.0000
  O   O2        1.0  0.3993106250764953  0.6721279214007154  0.5896891776275553  1.0000
  O   O3        1.0  0.7755490201277055  0.4026677789820852  0.4938779992540958  1.0000
  O   O4        1.0  0.2244463321321532  0.5973311591244013  0.5061244551525947  1.0000
  O   O5        1.0  0.46419890199086933  0.3847376879827991  0.678446071261199  1.0000
  O   O6        1.0  0.5358172281205641  0.6152454069269737  0.3215753294761613  1.0000
  O   O7        1.0  0.2947468905932454  0.30263055527427707  0.5971766443731497  1.0000
  O   O8        1.0  0.7052513209246882  0.6973767903413942  0.40284106815930454  1.0000
