data_image0
_chemical_formula_structural       K4H28C16S8O8
_chemical_formula_sum              "K4 H28 C16 S8 O8"
_cell_length_a       6.696142131818112
_cell_length_b       9.500114976168579
_cell_length_c       12.792425082038967
_cell_angle_alpha    89.99983096193183
_cell_angle_beta     89.99981971500463
_cell_angle_gamma    104.90073234216356

_space_group_name_H-M_alt    "P 1"
_space_group_IT_number       1

loop_
  _space_group_symop_operation_xyz
  'x, y, z'

loop_
  _atom_site_type_symbol
  _atom_site_label
  _atom_site_symmetry_multiplicity
  _atom_site_fract_x
  _atom_site_fract_y
  _atom_site_fract_z
  _atom_site_occupancy
  K   K1        1.0  0.8356485688440571  0.47637544345133886  0.6353763461567823  1.0000
  K   K2        1.0  0.6643561768129372  0.5236216629207958  0.1353758544453996  1.0000
  K   K3        1.0  0.16436407775187695  0.5236231653242172  0.3646252221059926  1.0000
  K   K4        1.0  0.33564046365015104  0.47637808355149514  0.8646241504043175  1.0000
  H   H1        1.0  0.8076323098845889  0.005030916967619701  0.5203603872440041  1.0000
  H   H2        1.0  0.6923622125529222  0.9949690200083839  0.0203603704481878  1.0000
  H   H3        1.0  0.19236662920327785  0.9949710035825704  0.47963727246355603  1.0000
  H   H4        1.0  0.3076344279009575  0.005030726457619  0.979641979539352  1.0000
  H   H5        1.0  0.9979058779322828  0.17209760175437344  0.4937700887467784  1.0000
  H   H6        1.0  0.5020898016702162  0.8279008721092468  0.9937695811039049  1.0000
  H   H7        1.0  0.00209564128353897  0.8279032207413836  0.5062299160976593  1.0000
  H   H8        1.0  0.4979049435746035  0.1720977895150285  0.0062358957368644  1.0000
  H   H9        1.0  0.6877235429608389  0.12002114482913837  0.3724689337093494  1.0000
  H   H10       1.0  0.8122728087067941  0.8799812517599577  0.8724662276006043  1.0000
  H   H11       1.0  0.312281485133049  0.8799851194572454  0.6275295077009133  1.0000
  H   H12       1.0  0.18771447767271346  0.1200174319057581  0.12753299554550782  1.0000
  H   H13       1.0  0.526440430726268  0.1306042797705373  0.4816383500431272  1.0000
  H   H14       1.0  0.9735558695785258  0.8693997097688284  0.9816338335338699  1.0000
  H   H15       1.0  0.4735604035552968  0.8693987256108998  0.5183600913742481  1.0000
  H   H16       1.0  0.026440367487289517  0.13059894747986087  0.018360699329115  1.0000
  H   H17       1.0  0.10339915079964611  0.14602851456643864  0.6703050260151857  1.0000
  H   H18       1.0  0.3966040942440117  0.8539661518620463  0.1703104504179507  1.0000
  H   H19       1.0  0.8966023684192451  0.8539723079314216  0.3296941971166447  1.0000
  H   H20       1.0  0.6034017783901433  0.14603029604830917  0.8296942447033333  1.0000
  H   H21       1.0  0.8846665260333494  0.9994851016710339  0.704941895698262  1.0000
  H   H22       1.0  0.6153379542593528  0.0005083594562904999  0.20494498723704171  1.0000
  H   H23       1.0  0.1153330979887741  0.0005146359934827  0.2950573274363535  1.0000
  H   H24       1.0  0.3846660231780349  0.9994870036207218  0.7950597078870276  1.0000
  H   H25       1.0  0.9355585078078547  0.17193310398834433  0.7724381792740048  1.0000
  H   H26       1.0  0.5644520939484182  0.8280577946318105  0.27243718230405284  1.0000
  H   H27       1.0  0.06444071279548073  0.8280655444378979  0.22756104386215278  1.0000
  H   H28       1.0  0.43555893896929376  0.17193645718855075  0.727565167677497  1.0000
  C   C1        1.0  0.6120032029021801  0.38815668528200575  0.383837147407192  1.0000
  C   C2        1.0  0.8879990265041543  0.6118456327104981  0.8838356885870909  1.0000
  C   C3        1.0  0.3880029135416763  0.6118484853548836  0.616163639141199  1.0000
  C   C4        1.0  0.11199382356233664  0.3881519440930106  0.11616509798080443  1.0000
  C   C5        1.0  0.8380087722338487  0.1251283561092009  0.5216789782647241  1.0000
  C   C6        1.0  0.6619902151767363  0.8748715605830673  0.021677714344910705  1.0000
  C   C7        1.0  0.1619912552070702  0.8748724707935907  0.47832024486834984  1.0000
  C   C8        1.0  0.3380123923921304  0.1251281682652987  0.9783238539250406  1.0000
  C   C9        1.0  0.6842670543926134  0.16737431788032353  0.45063310988089716  1.0000
  C   C10       1.0  0.8157286828130311  0.8326276594784475  0.9506289391922281  1.0000
  C   C11       1.0  0.3157337798858821  0.8326286874990176  0.5493661132490928  1.0000
  C   C12       1.0  0.18426009535366467  0.167371019788618  0.0493679388148109  1.0000
  C   C13       1.0  0.941492137125053  0.11875625830897016  0.6969474645871044  1.0000
  C   C14       1.0  0.5585128094368202  0.8812383349376988  0.1969494869075419  1.0000
  C   C15       1.0  0.05850748689707811  0.8812434793555471  0.303051758547511  1.0000
  C   C16       1.0  0.4414938700410502  0.11876029145339832  0.803053644785436  1.0000
  S   S1        1.0  0.6894175391516841  0.572632665969039  0.3875234353688342  1.0000
  S   S2        1.0  0.8105880482484694  0.4273707126789931  0.8875225139596665  1.0000
  S   S3        1.0  0.3105930526291801  0.4273724914551453  0.6124765694632117  1.0000
  S   S4        1.0  0.18940331004618835  0.5726268685336465  0.11247670918425712  1.0000
  S   S5        1.0  0.40971015196623745  0.2852124621908416  0.3181993679699104  1.0000
  S   S6        1.0  0.09029556123576311  0.7147912141651106  0.8181989624250007  1.0000
  S   S7        1.0  0.5902959644806955  0.714792708448151  0.681800636865873  1.0000
  S   S8        1.0  0.9097040627679293  0.28520852348682985  0.1818049509852742  1.0000
  O   O1        1.0  0.737760448527453  0.32464605093356624  0.4427008534256558  1.0000
  O   O2        1.0  0.7622402297896828  0.6753570449943285  0.942696338220678  1.0000
  O   O3        1.0  0.2622422809355101  0.6753580392707262  0.5573014965519861  1.0000
  O   O4        1.0  0.23775193535176709  0.3246427147011418  0.0573005397823323  1.0000
  O   O5        1.0  0.8153808218448901  0.1734802008167406  0.6254856881496521  1.0000
  O   O6        1.0  0.6846210180210194  0.8265169674220729  0.1254821480065829  1.0000
  O   O7        1.0  0.18461880217415688  0.8265195368456875  0.37451431669757085  1.0000
  O   O8        1.0  0.31538457310688267  0.17348275261851853  0.8745186385482671  1.0000
