data_image0
_chemical_formula_structural       Co3H84C60S6N24O18
_chemical_formula_sum              "Co3 H84 C60 S6 N24 O18"
_cell_length_a       7.755157818286684
_cell_length_b       18.795039620337228
_cell_length_c       19.061496766997795
_cell_angle_alpha    120.48268920340844
_cell_angle_beta     90.0158639439619
_cell_angle_gamma    90.89136151788824

_space_group_name_H-M_alt    "P 1"
_space_group_IT_number       1

loop_
  _space_group_symop_operation_xyz
  'x, y, z'

loop_
  _atom_site_type_symbol
  _atom_site_label
  _atom_site_symmetry_multiplicity
  _atom_site_fract_x
  _atom_site_fract_y
  _atom_site_fract_z
  _atom_site_occupancy
  Co  Co1       1.0  0.5006186763828138  0.5473845756382401  0.9974751889308346  1.0000
  Co  Co2       1.0  0.4991352479928536  0.45261221070838775  0.4499761822144489  1.0000
  Co  Co3       1.0  0.5004618759379298  1.6293756544808633e-05  0.5459320066156009  1.0000
  H   H1        1.0  0.697148579881208  0.6815750864360554  0.9812922367049804  1.0000
  H   H2        1.0  0.6839039499081492  0.297976133209751  0.32154630931196937  1.0000
  H   H3        1.0  0.3024453816782682  0.3184315053884603  0.2996129351693709  1.0000
  H   H4        1.0  0.6910167612833361  0.012556821854410124  0.6886233280770852  1.0000
  H   H5        1.0  0.3097627279912628  0.9874919209512993  0.6760614607674421  1.0000
  H   H6        1.0  0.316252636302316  0.7019111369449718  0.023597859652490037  1.0000
  H   H7        1.0  0.8096133724583295  0.4257184581198316  0.5311377909404981  1.0000
  H   H8        1.0  0.8027399783724645  0.10319285125640204  0.5745021602806657  1.0000
  H   H9        1.0  0.19001257197918156  0.574265494163825  0.1053713249651976  1.0000
  H   H10       1.0  0.8082107640866877  0.4689756614530436  0.8960131503411329  1.0000
  H   H11       1.0  0.1912590768280893  0.5311202810824722  0.42699056354626186  1.0000
  H   H12       1.0  0.1982282067515654  0.8970440254478688  0.47158608144940195  1.0000
  H   H13       1.0  0.3206486901298859  0.45272647413341355  0.8286807932649222  1.0000
  H   H14       1.0  0.3166944852688403  0.37383593320294034  0.5460371917045845  1.0000
  H   H15       1.0  0.6794051113517765  0.547164656505636  0.3759701635790121  1.0000
  H   H16       1.0  0.32425666289616817  0.1728341240798769  0.6217691248120258  1.0000
  H   H17       1.0  0.6762994395450618  0.8270488786997134  0.4489149204237034  1.0000
  H   H18       1.0  0.681795903391908  0.6254849434806431  0.17231532170370642  1.0000
  H   H19       1.0  0.49095005827503957  0.40394870171319025  0.7588775068364765  1.0000
  H   H20       1.0  0.49087576179217507  0.3563647520056674  0.5956802816131695  1.0000
  H   H21       1.0  0.509019291849043  0.5960843813094951  0.35514859443404095  1.0000
  H   H22       1.0  0.5092582854942833  0.23618447912657095  0.6371442150696892  1.0000
  H   H23       1.0  0.491098524392406  0.7639223972177618  0.400881934174613  1.0000
  H   H24       1.0  0.5081396173554182  0.6440576026442315  0.23992658103068693  1.0000
  H   H25       1.0  0.33168102921212744  0.45672594532498295  0.7373162853455068  1.0000
  H   H26       1.0  0.33098885392254834  0.2782788688968763  0.5441279970607054  1.0000
  H   H27       1.0  0.668047212621637  0.5433128378981635  0.2806743247955409  1.0000
  H   H28       1.0  0.35931129540689705  0.26562927768354416  0.7167751628073517  1.0000
  H   H29       1.0  0.640791623036705  0.7342010818912073  0.45098356991831395  1.0000
  H   H30       1.0  0.6694067569532365  0.7214233728123033  0.2657093157881857  1.0000
  H   H31       1.0  0.8334145319228554  0.7564335163160363  0.9152482726156063  1.0000
  H   H32       1.0  0.8083858961398177  0.15422588900187859  0.24629341460019552  1.0000
  H   H33       1.0  0.16470971613975385  0.24393663730064924  0.15884120759407228  1.0000
  H   H34       1.0  0.7908686382142064  0.0782319286314888  0.8377279618030542  1.0000
  H   H35       1.0  0.21009438919312365  0.9218311867923102  0.7595572565698271  1.0000
  H   H36       1.0  0.192456872344728  0.8458613284237301  0.0920850616426986  1.0000
  H   H37       1.0  0.7682470401825795  0.7243620425129932  0.8133284706870111  1.0000
  H   H38       1.0  0.7411424165231251  0.08317280706761918  0.27742198286509273  1.0000
  H   H39       1.0  0.23142588291737806  0.2755109162552856  0.08878499392606898  1.0000
  H   H40       1.0  0.7426461373317323  0.18428664385621102  0.9055186731637687  1.0000
  H   H41       1.0  0.25783527051357413  0.8156790724873061  0.7210754057927597  1.0000
  H   H42       1.0  0.2594087772558637  0.9167576472379649  0.1943913351393147  1.0000
  H   H43       1.0  0.9404685215320823  0.6746345577454135  0.8322466499807458  1.0000
  H   H44       1.0  0.919360889314447  0.15191021969618387  0.3260909724420315  1.0000
  H   H45       1.0  0.0593636358095466  0.32596607166361485  0.15725215012378857  1.0000
  H   H46       1.0  0.9211730718442083  0.15666113258860284  0.8383164135321264  1.0000
  H   H47       1.0  0.0794831583249191  0.8436089691355305  0.6816533010091771  1.0000
  H   H48       1.0  0.08091653073871903  0.8480888869325581  0.17401166281116054  1.0000
  H   H49       1.0  0.24754840875489487  0.5335089161113514  0.6117766624543532  1.0000
  H   H50       1.0  0.2310128434998191  0.07437780931267915  0.46775703453880607  1.0000
  H   H51       1.0  0.7519599734319227  0.4664277854694704  0.07828403982858119  1.0000
  H   H52       1.0  0.2420018684155067  0.3836551914215888  0.9208046754358602  1.0000
  H   H53       1.0  0.7580837507846779  0.6163074390282475  0.5367062012068186  1.0000
  H   H54       1.0  0.7694604526062532  0.9252170515297918  0.39305747582356043  1.0000
  H   H55       1.0  0.347839397121831  0.6324105690850529  0.6603117647951035  1.0000
  H   H56       1.0  0.32783846208620554  0.020739683366912072  0.37084440875992175  1.0000
  H   H57       1.0  0.6515620782885988  0.36756369979085696  0.02805153837878986  1.0000
  H   H58       1.0  0.34036852373599646  0.33632671242026646  0.9700286781006112  1.0000
  H   H59       1.0  0.659813506731808  0.6633116290878504  0.633287251358176  1.0000
  H   H60       1.0  0.6727656717940744  0.9789553094848241  0.3498624036882771  1.0000
  H   H61       1.0  0.29193076078909286  0.5865919638941007  0.7189951109051831  1.0000
  H   H62       1.0  0.2786999729471944  0.1265672731635091  0.41293949569924127  1.0000
  H   H63       1.0  0.707838888257612  0.413532837916506  0.13256436412241596  1.0000
  H   H64       1.0  0.2831934985076642  0.2749878569390276  0.8653256796801896  1.0000
  H   H65       1.0  0.7167171491426244  0.7249635128817573  0.5902651143821911  1.0000
  H   H66       1.0  0.7213108575339149  0.8730457268457101  0.2860842591422849  1.0000
  H   H67       1.0  0.020523725646896192  0.436545687316922  0.6343749584235564  1.0000
  H   H68       1.0  0.014456611441040892  0.19556140216737097  0.5609002026336467  1.0000
  H   H69       1.0  0.9788627608154385  0.5632537562211792  0.19757688865083597  1.0000
  H   H70       1.0  0.016005143798245997  0.36636251749961685  0.802975637691247  1.0000
  H   H71       1.0  0.9840849296033055  0.6337135660651894  0.4362813655503215  1.0000
  H   H72       1.0  0.986162930317775  0.8046082083129775  0.36589282143450635  1.0000
  H   H73       1.0  0.90082500363453  0.4246559451454104  0.7077508500646628  1.0000
  H   H74       1.0  0.8971173993379509  0.28141046733117736  0.5718034886372789  1.0000
  H   H75       1.0  0.09831934138158259  0.5754213831823235  0.2830675612430225  1.0000
  H   H76       1.0  0.8964550376799281  0.2897165937036234  0.717008838607988  1.0000
  H   H77       1.0  0.10356341270018278  0.7106417415567632  0.42746455498021135  1.0000
  H   H78       1.0  0.10312219577627958  0.7186763099620919  0.2908066032002733  1.0000
  H   H79       1.0  0.9945458945899259  0.5210234760032363  0.7360233677122278  1.0000
  H   H80       1.0  0.9833506135453264  0.21150637844932865  0.47681422105411275  1.0000
  H   H81       1.0  0.005264132796703799  0.4789226372147867  0.21487939773064801  1.0000
  H   H82       1.0  0.9881025432243289  0.2633618320967484  0.7844896358386035  1.0000
  H   H83       1.0  0.0116446560246857  0.7365866337358328  0.521083272988683  1.0000
  H   H84       1.0  0.016610572850709097  0.7885578231130167  0.26577973323437454  1.0000
  C   C1        1.0  0.6898923226753694  0.6422694359515544  0.8548257248308739  1.0000
  C   C2        1.0  0.673155832686021  0.20891389878172353  0.35946250171694044  1.0000
  C   C3        1.0  0.30967229145124264  0.3577513271189616  0.2124575015326399  1.0000
  C   C4        1.0  0.6751212454753241  0.13944756703651945  0.7809615586636125  1.0000
  C   C5        1.0  0.32556278422850937  0.8606211436374025  0.6414955140877151  1.0000
  C   C6        1.0  0.3270669717662854  0.791014220032025  0.15057974896955498  1.0000
  C   C7        1.0  0.6075077066713062  0.5724319780987697  0.7912134711212173  1.0000
  C   C8        1.0  0.5940119915852476  0.21523290737372477  0.42819686822565456  1.0000
  C   C9        1.0  0.3920610102913428  0.42763733357445227  0.21881378074115063  1.0000
  C   C10       1.0  0.6000465988138117  0.2039700606692205  0.7762777393544621  1.0000
  C   C11       1.0  0.40046860407642265  0.7960402985155639  0.5722593514734552  1.0000
  C   C12       1.0  0.405800103964367  0.7846211945189195  0.21302671379747523  1.0000
  C   C13       1.0  0.514071588581821  0.5357845749294581  0.8287881983839538  1.0000
  C   C14       1.0  0.5071415356884471  0.29145526562818697  0.4653546062499599  1.0000
  C   C15       1.0  0.48563804251676146  0.464213421959272  0.2930183100419652  1.0000
  C   C16       1.0  0.5192393659856407  0.16716964654208494  0.6987596786715569  1.0000
  C   C17       1.0  0.48132692826601436  0.8328203826608415  0.5315630759024683  1.0000
  C   C18       1.0  0.4925469617477204  0.7083757909982893  0.17399950424002217  1.0000
  C   C19       1.0  0.40790588628058083  0.4583338875134188  0.7866535527600075  1.0000
  C   C20       1.0  0.40540741802156777  0.32719673914105835  0.5417745325368484  1.0000
  C   C21       1.0  0.5919572514715694  0.5416554020822062  0.3284124437161607  1.0000
  C   C22       1.0  0.422242797460818  0.21233009643275105  0.6663835013066046  1.0000
  C   C23       1.0  0.5781306611965107  0.7876123228543505  0.4539879236811042  1.0000
  C   C24       1.0  0.5940173865705346  0.6726149869004486  0.21475438249050396  1.0000
  C   C25       1.0  0.8139204073008202  0.7029439065380669  0.8539112190507363  1.0000
  C   C26       1.0  0.7909716653011215  0.14600150007360915  0.2988865136632412  1.0000
  C   C27       1.0  0.18537777962421123  0.29723683478766816  0.1508050118412  1.0000
  C   C28       1.0  0.7877971635037538  0.13966636024820617  0.8442716112937843  1.0000
  C   C29       1.0  0.21290489561354053  0.8604483401028487  0.704589216609882  1.0000
  C   C30       1.0  0.209495866667524  0.8539668292634061  0.15288305886463124  1.0000
  C   C31       1.0  0.7704457666085034  0.4900638127137071  0.6590182111805871  1.0000
  C   C32       1.0  0.7603914425738552  0.165556976202282  0.5091488049999667  1.0000
  C   C33       1.0  0.22914189305068786  0.5100109783927351  0.16899429326983284  1.0000
  C   C34       1.0  0.7651071809683926  0.3393026649702121  0.8305795203682036  1.0000
  C   C35       1.0  0.23482615114470917  0.6607771034783666  0.4912066439382269  1.0000
  C   C36       1.0  0.23988175239124834  0.834507535539224  0.3438273043205765  1.0000
  C   C37       1.0  0.6291734219174214  0.5368431156546761  0.7035277230758862  1.0000
  C   C38       1.0  0.6159590973451542  0.16254273064331662  0.4633931099590283  1.0000
  C   C39       1.0  0.37042702624947305  0.4632614153628722  0.16677961055080445  1.0000
  C   C40       1.0  0.6217168336637258  0.29300990198472476  0.8314612823593703  1.0000
  C   C41       1.0  0.37837130384414747  0.7070030030559238  0.5383751525051108  1.0000
  C   C42       1.0  0.3840831854686326  0.8373862158245444  0.3009102194844287  1.0000
  C   C43       1.0  0.5126667155274233  0.5343278914264289  0.6449153965949959  1.0000
  C   C44       1.0  0.497914213587073  0.10607095917269752  0.46678137531505814  1.0000
  C   C45       1.0  0.48692749978359007  0.46572854423781246  0.1107040801938196  1.0000
  C   C46       1.0  0.5062476083116464  0.35145379404732296  0.8879819298350495  1.0000
  C   C47       1.0  0.49372124855012345  0.6484720790008962  0.5363504051407869  1.0000
  C   C48       1.0  0.5024230625418153  0.8938330438363521  0.36065576449125525  1.0000
  C   C49       1.0  0.34054567327849833  0.5735003477628453  0.6596167342520328  1.0000
  C   C50       1.0  0.32395508119783756  0.08073368429531047  0.427876376258986  1.0000
  C   C51       1.0  0.6590031172198821  0.4265173063662857  0.08622899058417471  1.0000
  C   C52       1.0  0.33327919239927445  0.3358576019579756  0.9120897324640462  1.0000
  C   C53       1.0  0.6668127057015807  0.6640094893297713  0.5759465604721467  1.0000
  C   C54       1.0  0.676346991813446  0.9189670533471173  0.34689707987688895  1.0000
  C   C55       1.0  0.9305656289093561  0.4669147355124749  0.685208315825683  1.0000
  C   C56       1.0  0.923001558079626  0.2156013601216954  0.5307455197090716  1.0000
  C   C57       1.0  0.06893743590833168  0.5330878333832132  0.21822841109688065  1.0000
  C   C58       1.0  0.925631451617235  0.31385451601259007  0.7817505465078866  1.0000
  C   C59       1.0  0.07433622521180178  0.6862407087511428  0.467825039850737  1.0000
  C   C60       1.0  0.07721416008244117  0.7844788785919831  0.3155783197503081  1.0000
  S   S1        1.0  0.08721343672401359  0.5812744973758653  0.9460530645025426  1.0000
  S   S2        1.0  0.08096020373686487  0.36299355185985854  0.41789002623359267  1.0000
  S   S3        1.0  0.9122660017989829  0.4187394499662317  0.3646292469964363  1.0000
  S   S4        1.0  0.0800376397551119  0.05752469757539552  0.6355785113621335  1.0000
  S   S5        1.0  0.9205194560280247  0.9424934954714742  0.57797624912893  1.0000
  S   S6        1.0  0.9187061304116141  0.6370378452080985  0.05506940282803879  1.0000
  N   N1        1.0  0.5388676676813091  0.5801613711270119  0.9102816085315051  1.0000
  N   N2        1.0  0.5325150214708215  0.3293197608236723  0.4221571791318508  1.0000
  N   N3        1.0  0.4608253562959063  0.4197663063666254  0.33004794024456857  1.0000
  N   N4        1.0  0.5455858191303234  0.08483165775653825  0.6582921246774445  1.0000
  N   N5        1.0  0.4551606184247844  0.9151795091709544  0.5734510605137966  1.0000
  N   N6        1.0  0.4674935899031992  0.6705766409783678  0.09291927623021908  1.0000
  N   N7        1.0  0.6424123853896688  0.6451875084653267  0.9243121117801036  1.0000
  N   N8        1.0  0.6298100611862266  0.27725446178542507  0.3574823391492996  1.0000
  N   N9        1.0  0.357240950669606  0.35475839351453686  0.278992248945819  1.0000
  N   N10       1.0  0.6357337861989761  0.06957707843292117  0.7103984315572162  1.0000
  N   N11       1.0  0.36504754350830376  0.9304772069920657  0.6408178001876333  1.0000
  N   N12       1.0  0.37052841384793567  0.7226954123473631  0.08025243080707845  1.0000
  N   N13       1.0  0.7346094035487737  0.463704012495306  0.5802772270278636  1.0000
  N   N14       1.0  0.7256864173356872  0.11342770585401492  0.5364327206951882  1.0000
  N   N15       1.0  0.2650431495017997  0.5363640660775459  0.116629147021001  1.0000
  N   N16       1.0  0.7311981841231939  0.41872834271499915  0.8838450055671739  1.0000
  N   N17       1.0  0.26850682570481865  0.5813239309622559  0.46501451946659206  1.0000
  N   N18       1.0  0.2750044493053138  0.8867013449856741  0.42320127200508706  1.0000
  N   N19       1.0  0.5798775719514779  0.489222175231944  0.5698115817264761  1.0000
  N   N20       1.0  0.5677653850148728  0.07696395241035241  0.5122284006538605  1.0000
  N   N21       1.0  0.41975146401452423  0.5108028503280195  0.08066232425566242  1.0000
  N   N22       1.0  0.575639007405563  0.42842919944290253  0.9195625550377071  1.0000
  N   N23       1.0  0.42416058217816033  0.5715294405054789  0.4909535922229577  1.0000
  N   N24       1.0  0.43293115843582075  0.9230765753603051  0.4352909508580251  1.0000
  O   O1        1.0  0.16205439729760224  0.6501571398680779  0.9401847608314281  1.0000
  O   O2        1.0  0.1469026475119293  0.2867177596142554  0.3492009938963248  1.0000
  O   O3        1.0  0.8374386573154523  0.3500240459949423  0.28973231077664235  1.0000
  O   O4        1.0  0.15584547100912258  0.06687822825719529  0.7105419861016243  1.0000
  O   O5        1.0  0.8444549503154588  0.9331950748209363  0.6435543711040306  1.0000
  O   O6        1.0  0.8528411402441307  0.7132911087269492  0.06257576740798476  1.0000
  O   O7        1.0  0.9711735153587567  0.5274072621030328  0.8782419942672347  1.0000
  O   O8        1.0  0.968679757695078  0.3496151894311695  0.4720726628380233  1.0000
  O   O9        1.0  0.02858976588765219  0.47262315446831576  0.35089458987742705  1.0000
  O   O10       1.0  0.9594354042047755  0.12300202360484733  0.6505933395203127  1.0000
  O   O11       1.0  0.04098666637755598  0.8769418948165536  0.5275451033932579  1.0000
  O   O12       1.0  0.031295473841780094  0.6504519360846359  0.12255681585986604  1.0000
  O   O13       1.0  0.21320525501276674  0.5346295843093499  0.9649308485772958  1.0000
  O   O14       1.0  0.21334363142146628  0.428675213624892  0.46238621337700875  1.0000
  O   O15       1.0  0.7863176610958645  0.46537128096819896  0.43017773532601894  1.0000
  O   O16       1.0  0.20529177131839296  0.040782088853482744  0.5708985939930072  1.0000
  O   O17       1.0  0.7954552816351208  0.9592957559601983  0.5299857490826834  1.0000
  O   O18       1.0  0.7862447230092187  0.5714346991376261  0.03403205170952342  1.0000
