data_image0
_chemical_formula_structural       Cu4H24C40S2N16
_chemical_formula_sum              "Cu4 H24 C40 S2 N16"
_cell_length_a       6.786294580427581
_cell_length_b       8.262148152385477
_cell_length_c       18.285533271076506
_cell_angle_alpha    90.000111851961
_cell_angle_beta     89.99972470259934
_cell_angle_gamma    111.70823660829393

_space_group_name_H-M_alt    "P 1"
_space_group_IT_number       1

loop_
  _space_group_symop_operation_xyz
  'x, y, z'

loop_
  _atom_site_type_symbol
  _atom_site_label
  _atom_site_symmetry_multiplicity
  _atom_site_fract_x
  _atom_site_fract_y
  _atom_site_fract_z
  _atom_site_occupancy
  Cu  Cu1       1.0  0.3399458101199854  0.6381925335777793  0.2107091662901297  1.0000
  Cu  Cu2       1.0  0.6600500436996981  0.361800259238123  0.7107024678857741  1.0000
  Cu  Cu3       1.0  0.9109587957415498  0.7099085947152729  0.4895685758424619  1.0000
  Cu  Cu4       1.0  0.08906082198020468  0.29010388281128024  0.9895730325521942  1.0000
  H   H1        1.0  0.1729174580789135  0.2153412153816845  0.23043840187268932  1.0000
  H   H2        1.0  0.8270616426746501  0.7846607806499932  0.7304268260038783  1.0000
  H   H3        1.0  0.22368894682300317  0.007958972118935002  0.3217924821908795  1.0000
  H   H4        1.0  0.7763061315759074  0.9920456430646778  0.8217865856537472  1.0000
  H   H5        1.0  0.44877635267504706  0.1316375787224686  0.43301580812778445  1.0000
  H   H6        1.0  0.5512296627874775  0.8683592487005992  0.9330123367837617  1.0000
  H   H7        1.0  0.6201913818404208  0.45576972355630824  0.4460714704247053  1.0000
  H   H8        1.0  0.37981414795937957  0.5442297240233529  0.9460707611227265  1.0000
  H   H9        1.0  0.15937288454118467  0.9775305050919911  0.598171446587429  1.0000
  H   H10       1.0  0.8406332427978356  0.022471307790837607  0.09817319396649542  1.0000
  H   H11       1.0  0.2798543171304004  0.29957215545277904  0.6131348766878234  1.0000
  H   H12       1.0  0.7201501110264203  0.7004296735706956  0.11313451322466511  1.0000
  H   H13       1.0  0.1471158247954563  0.469375663187975  0.5213827131928143  1.0000
  H   H14       1.0  0.8528823573420042  0.5306287324678324  0.021378219505301405  1.0000
  H   H15       1.0  0.9125171003627771  0.3069508208866266  0.4203787710524267  1.0000
  H   H16       1.0  0.08747590297508612  0.6930590887679812  0.9203763893143417  1.0000
  H   H17       1.0  0.8318545540015378  0.2975494998234964  0.24625757036738352  1.0000
  H   H18       1.0  0.16814991037760046  0.7024537264373122  0.7462523457499871  1.0000
  H   H19       1.0  0.7504241202147031  0.4334648719704006  0.1350238381025974  1.0000
  H   H20       1.0  0.2495793637040435  0.56652914717165  0.6350238758051887  1.0000
  H   H21       1.0  0.48455461292219587  0.24332841557294665  0.0436167307982629  1.0000
  H   H22       1.0  0.5154478941032039  0.7566603243818405  0.543612142090467  1.0000
  H   H23       1.0  0.32023512142231425  0.921246674292419  0.069100607260296  1.0000
  H   H24       1.0  0.6797675897426316  0.07874338742600168  0.5690969733053138  1.0000
  C   C1        1.0  0.2698946866943785  0.26274607205073863  0.2792720352511679  1.0000
  C   C2        1.0  0.7300983648222542  0.7372493873596682  0.7792660345004094  1.0000
  C   C3        1.0  0.2992408860328625  0.14807089492021672  0.3303041219414383  1.0000
  C   C4        1.0  0.7007614006937077  0.8519271783062551  0.8302965987723497  1.0000
  C   C5        1.0  0.42518347316540434  0.21722037185868703  0.3914272386275002  1.0000
  C   C6        1.0  0.574823786562881  0.7827842507241201  0.8914214891225641  1.0000
  C   C7        1.0  0.5199527062063823  0.397307953196453  0.3991180105407893  1.0000
  C   C8        1.0  0.4800364751874114  0.6026928215301837  0.8991122757366201  1.0000
  C   C9        1.0  0.4845865232192565  0.5029421673359522  0.3449326126515899  1.0000
  C   C10       1.0  0.5154049733248273  0.4970650854586225  0.8449273039667987  1.0000
  C   C11       1.0  0.5841290750981541  0.6947704542591991  0.3452000303498082  1.0000
  C   C12       1.0  0.41585974293303  0.30522767473620865  0.845194188431627  1.0000
  C   C13       1.0  0.7807701757368264  0.9571214577183011  0.3962310300296893  1.0000
  C   C14       1.0  0.21922699842892968  0.04288059277332931  0.8962274803562523  1.0000
  C   C15       1.0  0.915708047159278  0.05856123440022999  0.4557656768774976  1.0000
  C   C16       1.0  0.08428204822997992  0.9414434908196226  0.9557661997504638  1.0000
  C   C17       1.0  0.10998215382493731  0.056033645308453096  0.5598386855695665  1.0000
  C   C18       1.0  0.8900198565663331  0.9439707642067602  0.05983769603049181  1.0000
  C   C19       1.0  0.1739114465231211  0.23580767632660837  0.568196673416935  1.0000
  C   C20       1.0  0.826091010208657  0.7641915186352362  0.06819510802586139  1.0000
  C   C21       1.0  0.10305081656835566  0.3288353374771232  0.5175528941270215  1.0000
  C   C22       1.0  0.896945054852452  0.6711638444391069  0.0175533534204177  1.0000
  C   C23       1.0  0.9709550064031945  0.2391421425761422  0.4608954360868935  1.0000
  C   C24       1.0  0.029037666696325598  0.760865186956295  0.9608937295794887  1.0000
  C   C25       1.0  0.6460569010651511  0.9502456281793954  0.2821803070305364  1.0000
  C   C26       1.0  0.35394084415261773  0.049760255164145  0.7821765703229744  1.0000
  C   C27       1.0  0.6135821372062297  0.0393264791365127  0.2161611696852077  1.0000
  C   C28       1.0  0.38641894519297887  0.9606715187148039  0.7161574474595795  1.0000
  C   C29       1.0  0.7190216142295043  0.21880792476695626  0.20588855285863875  1.0000
  C   C30       1.0  0.2809840385450997  0.7811900505295383  0.7058865015421887  1.0000
  C   C31       1.0  0.673077538628334  0.2937360675786422  0.1432385372092497  1.0000
  C   C32       1.0  0.32693229771386  0.7062592405822057  0.6432358236807973  1.0000
  C   C33       1.0  0.5275958863236241  0.18871013403352782  0.0926013075076852  1.0000
  C   C34       1.0  0.472407651448485  0.8112825506857604  0.5925968164529749  1.0000
  C   C35       1.0  0.4336217820601506  0.0101320462414094  0.10692192530336093  1.0000
  C   C36       1.0  0.5663818430362257  0.9898645622995943  0.6069201540869997  1.0000
  C   C37       1.0  0.0536950535983039  0.6716097127206242  0.3400657396759499  1.0000
  C   C38       1.0  0.9463071029395351  0.3283948913266599  0.8400782995041498  1.0000
  C   C39       1.0  0.20373680748945597  0.4387456097069915  0.06755777956077942  1.0000
  C   C40       1.0  0.7962936139959851  0.5612534905409844  0.5675488328898908  1.0000
  S   S1        1.0  0.028003943219268038  0.672523474484052  0.25156847594662685  1.0000
  S   S2        1.0  0.9719898169184662  0.3274693538297057  0.751575529819313  1.0000
  N   N1        1.0  0.35841696226771097  0.43572443654861803  0.28644163220231894  1.0000
  N   N2        1.0  0.6415706870425169  0.5642723507785944  0.7864372826420478  1.0000
  N   N3        1.0  0.6920991782190029  0.7816672480521658  0.4035586852454713  1.0000
  N   N4        1.0  0.3078946362999275  0.21833090471443484  0.9035529389462837  1.0000
  N   N5        1.0  0.9857419882140236  0.9681951807567089  0.504535085072483  1.0000
  N   N6        1.0  0.0142608644052231  0.0318091874322732  0.0045358266166318  1.0000
  N   N7        1.0  0.7572400035226678  0.04573899397738759  0.3374771924643269  1.0000
  N   N8        1.0  0.2427565941067087  0.9542630175691968  0.8374747640711748  1.0000
  N   N9        1.0  0.47392909493299845  0.936934501110862  0.1673617883943379  1.0000
  N   N10       1.0  0.5260744887671152  0.0630608449154408  0.6673594563577581  1.0000
  N   N11       1.0  0.5615833008995921  0.7736356401623183  0.28221476167848897  1.0000
  N   N12       1.0  0.43839971202898914  0.22636376928471688  0.782210475735049  1.0000
  N   N13       1.0  0.06693016051343648  0.6761864261008198  0.40499574954715467  1.0000
  N   N14       1.0  0.9330627529757649  0.3238130354231856  0.9050006688279523  1.0000
  N   N15       1.0  0.2724397555170198  0.5245770378468249  0.11977882314569399  1.0000
  N   N16       1.0  0.7275833745079369  0.4754142950260416  0.6197737451183869  1.0000
