data_image0
_chemical_formula_structural       Mn2H28C20N8O8
_chemical_formula_sum              "Mn2 H28 C20 N8 O8"
_cell_length_a       4.917630917475135
_cell_length_b       9.202078472426951
_cell_length_c       13.126864911630875
_cell_angle_alpha    91.37576544585166
_cell_angle_beta     88.67968422330313
_cell_angle_gamma    90.33592367327326

_space_group_name_H-M_alt    "P 1"
_space_group_IT_number       1

loop_
  _space_group_symop_operation_xyz
  'x, y, z'

loop_
  _atom_site_type_symbol
  _atom_site_label
  _atom_site_symmetry_multiplicity
  _atom_site_fract_x
  _atom_site_fract_y
  _atom_site_fract_z
  _atom_site_occupancy
  Mn  Mn1       1.0  0.9999944728802247  2.3891444627001564e-06  4.7843961467989804e-06  1.0000
  Mn  Mn2       1.0  0.5000079928332682  0.5000029118125441  0.5000023514551799  1.0000
  H   H1        1.0  0.5273818185167302  0.11945387923399411  0.8660629332711167  1.0000
  H   H2        1.0  0.025842671942179193  0.37886184027613  0.6236582129635265  1.0000
  H   H3        1.0  0.4726219033409647  0.8805443262461309  0.1339425018108713  1.0000
  H   H4        1.0  0.9741612549497061  0.6211373724329476  0.376341136635105  1.0000
  H   H5        1.0  0.4517629793642328  0.6237084480498891  0.8898745773554848  1.0000
  H   H6        1.0  0.9708447412718115  0.8674760634281566  0.5973530122658772  1.0000
  H   H7        1.0  0.5482368547131244  0.3762907682325433  0.1101255505805554  1.0000
  H   H8        1.0  0.029158870751416495  0.13252545286999853  0.4026562669780843  1.0000
  H   H9        1.0  0.40010057090172785  0.6976123041722601  0.7686207403095507  1.0000
  H   H10       1.0  0.9249408547016313  0.7981021521367849  0.720997759547636  1.0000
  H   H11       1.0  0.5998931314011813  0.3023858254959037  0.23138016285036403  1.0000
  H   H12       1.0  0.07505454643474249  0.20189393636169223  0.27901302018511126  1.0000
  H   H13       1.0  0.14370324687040184  0.7207654324609577  0.8655604037042507  1.0000
  H   H14       1.0  0.659587128036726  0.7757474558499309  0.6312344863190802  1.0000
  H   H15       1.0  0.8563006603351723  0.27924032212385425  0.13444053749777396  1.0000
  H   H16       1.0  0.3404227455416801  0.22425073928514644  0.3687694002117397  1.0000
  H   H17       1.0  0.4783860858895465  0.3625470517335501  0.7705249055284327  1.0000
  H   H18       1.0  0.9859492401861657  0.13304470142598027  0.7152596364918792  1.0000
  H   H19       1.0  0.5216099151947232  0.6374487974839623  0.2294675840426166  1.0000
  H   H20       1.0  0.014048714761408098  0.8669500939107235  0.2847351199884969  1.0000
  H   H21       1.0  0.910931936185264  0.5328926272636777  0.8323266545579315  1.0000
  H   H22       1.0  0.4466641783971212  0.9811565369451782  0.6544925739293532  1.0000
  H   H23       1.0  0.08907433974358979  0.46710972997109196  0.1676635755478131  1.0000
  H   H24       1.0  0.5533377443758453  0.018838304668378193  0.3455052146639659  1.0000
  H   H25       1.0  0.18774338670930035  0.35468784769224726  0.9606796376533282  1.0000
  H   H26       1.0  0.7299501326956629  0.17336521982258546  0.5342145229177788  1.0000
  H   H27       1.0  0.8122463331334656  0.6453178645640705  0.0393198362342702  1.0000
  H   H28       1.0  0.2700659077581236  0.8266362259352743  0.4657878487735231  1.0000
  C   C1        1.0  0.49390367373703015  0.8570681078521215  0.884015906310303  1.0000
  C   C2        1.0  0.9959126538991041  0.6336630438382754  0.6044010384389651  1.0000
  C   C3        1.0  0.506094156481353  0.1429321822512009  0.1159834788965455  1.0000
  C   C4        1.0  0.004085186422401001  0.36633942024359806  0.3955983692423145  1.0000
  C   C5        1.0  0.3632656348950575  0.7155442198283524  0.850970502984886  1.0000
  C   C6        1.0  0.8801185470595313  0.7775846616589914  0.6401448597119596  1.0000
  C   C7        1.0  0.6367382720505503  0.28445608984004866  0.1490296199410182  1.0000
  C   C8        1.0  0.1198892327717047  0.2224168211556972  0.3598613549243836  1.0000
  C   C9        1.0  0.6434107511539294  0.33865413498587305  0.8206056615948825  1.0000
  C   C10       1.0  0.15752382020149006  0.1645733739160349  0.6673775266328548  1.0000
  C   C11       1.0  0.3565931257422931  0.661345097663286  0.1793952121838842  1.0000
  C   C12       1.0  0.8424741844817872  0.8354159565641693  0.3326148873912587  1.0000
  C   C13       1.0  0.8626317978038428  0.4225117638632199  0.8531206723134162  1.0000
  C   C14       1.0  0.39035649735795636  0.0905121382373437  0.6355090933791985  1.0000
  C   C15       1.0  0.13736005062708048  0.5774873798055892  0.1468749155768876  1.0000
  C   C16       1.0  0.6096476542544308  0.9094815398249525  0.3644825791326696  1.0000
  C   C17       1.0  0.005920618021875188  0.3324581965430085  0.9178424900760193  1.0000
  C   C18       1.0  0.5383713701747297  0.18851584038183938  0.574970407269582  1.0000
  C   C19       1.0  0.9940670878588166  0.6675464155556552  0.0821562186079632  1.0000
  C   C20       1.0  0.46163267186314266  0.811486593414905  0.4250259276803945  1.0000
  N   N1        1.0  0.8833297970983549  0.20193930864845552  0.9242273477384656  1.0000
  N   N2        1.0  0.40617230388112086  0.31627766280112707  0.5703240976836028  1.0000
  N   N3        1.0  0.11665976770588317  0.7980653764388349  0.0757766874523398  1.0000
  N   N4        1.0  0.5938315081247366  0.6837237737367088  0.4296790848398047  1.0000
  N   N5        1.0  0.6634926479398117  0.20804101392743485  0.864398770805245  1.0000
  N   N6        1.0  0.17374706482352306  0.29888459193863776  0.6273368360072097  1.0000
  N   N7        1.0  0.3364990156631507  0.7919614704695305  0.1356029475172562  1.0000
  N   N8        1.0  0.8262567969180306  0.7011113797426913  0.37266400405992073  1.0000
  O   O1        1.0  0.3438001284116794  0.9714234414006241  0.8894143143062436  1.0000
  O   O2        1.0  0.8325594557593802  0.5252230667387391  0.5891905807712163  1.0000
  O   O3        1.0  0.6561894111347754  0.028575808740285393  0.11058966469850869  1.0000
  O   O4        1.0  0.1674382444183067  0.47477618622551165  0.41081260364877886  1.0000
  O   O5        1.0  0.7460053373476399  0.8588427110424417  0.9028711622731789  1.0000
  O   O6        1.0  0.254095846090621  0.6226922651612056  0.5933031189072864  1.0000
  O   O7        1.0  0.2539885654578172  0.1411662286982391  0.0971252807184229  1.0000
  O   O8        1.0  0.7459019841277693  0.37730802494211685  0.40669626629956923  1.0000
