data_image0
_chemical_formula_structural       Ag4H44C32N4Cl4
_chemical_formula_sum              "Ag4 H44 C32 N4 Cl4"
_cell_length_a       4.067861613734015
_cell_length_b       13.986062450743388
_cell_length_c       15.281605715272965
_cell_angle_alpha    90.00029461514934
_cell_angle_beta     89.99935489752647
_cell_angle_gamma    94.21527497045803

_space_group_name_H-M_alt    "P 1"
_space_group_IT_number       1

loop_
  _space_group_symop_operation_xyz
  'x, y, z'

loop_
  _atom_site_type_symbol
  _atom_site_label
  _atom_site_symmetry_multiplicity
  _atom_site_fract_x
  _atom_site_fract_y
  _atom_site_fract_z
  _atom_site_occupancy
  Ag  Ag1       1.0  0.6776963999489  0.9828920913772805  0.9108597606099877  1.0000
  Ag  Ag2       1.0  0.3223179482195989  0.5171071376424335  0.4108659315935768  1.0000
  Ag  Ag3       1.0  0.3223350048755905  0.017110379412969196  0.08913481897548789  1.0000
  Ag  Ag4       1.0  0.6776730199574104  0.4828901851061643  0.5891384637634189  1.0000
  H   H1        1.0  0.7323361256781025  0.8501702698133755  0.7450777026435345  1.0000
  H   H2        1.0  0.2676082381922241  0.6498257712642186  0.24508859109168665  1.0000
  H   H3        1.0  0.26767975128475285  0.1498285678349092  0.2549162225753889  1.0000
  H   H4        1.0  0.7323385998983128  0.3501721223265193  0.754919076240938  1.0000
  H   H5        1.0  0.04746915002314716  0.8786355597343484  0.6663959755551616  1.0000
  H   H6        1.0  0.9524899475557902  0.6213565645556896  0.16641316309251408  1.0000
  H   H7        1.0  0.9525602547049346  0.12136905360992502  0.3335966408939015  1.0000
  H   H8        1.0  0.04745627708030749  0.3786384614773438  0.833597121760256  1.0000
  H   H9        1.0  0.10283018658796551  0.9133052092529682  0.7784679658874862  1.0000
  H   H10       1.0  0.8971504955760211  0.5866832341089963  0.27847926814411034  1.0000
  H   H11       1.0  0.8971864570598882  0.08669721285795619  0.22152923124620114  1.0000
  H   H12       1.0  0.10282448452877448  0.4133083048433121  0.7215323254199077  1.0000
  H   H13       1.0  0.8674282381441004  0.993999180607382  0.5671770294009448  1.0000
  H   H14       1.0  0.1325332009994966  0.5059960497447021  0.06718503133491538  1.0000
  H   H15       1.0  0.1325654970138856  0.005999584026568498  0.4328227852847917  1.0000
  H   H16       1.0  0.8674160973581093  0.4940018519509835  0.9328187097050316  1.0000
  H   H17       1.0  0.35921918876380227  0.18082102134269457  0.4986928955243997  1.0000
  H   H18       1.0  0.6407666473174983  0.3191786005185335  0.9986958803064778  1.0000
  H   H19       1.0  0.640754711585913  0.8191769614815811  0.5013049560450327  1.0000
  H   H20       1.0  0.35922078065108565  0.6808251580187914  0.0013078606895434  1.0000
  H   H21       1.0  0.7696608943941642  0.2282684342368029  0.5098044381566922  1.0000
  H   H22       1.0  0.2303282147688392  0.2717316812625441  0.009808815996429097  1.0000
  H   H23       1.0  0.23033837460603476  0.7717332141818075  0.4901921046199859  1.0000
  H   H24       1.0  0.7696664404510614  0.7282713847219212  0.9901929618425312  1.0000
  H   H25       1.0  0.6861563979752745  0.11080303558721029  0.46459568772321796  1.0000
  H   H26       1.0  0.3138432789411425  0.38919718213427507  0.9646006468332614  1.0000
  H   H27       1.0  0.31383718396546095  0.8891950121402556  0.5353975831461071  1.0000
  H   H28       1.0  0.6861704442955913  0.6108030812096243  0.0354050572592044  1.0000
  H   H29       1.0  0.3808289017007311  0.2346008171474097  0.6660399325304525  1.0000
  H   H30       1.0  0.6191916769757525  0.2654044618989033  0.16604244878846686  1.0000
  H   H31       1.0  0.6191900488372754  0.7654008961805869  0.33395464707209027  1.0000
  H   H32       1.0  0.38083849434418243  0.7346037359188673  0.8339580202458308  1.0000
  H   H33       1.0  0.5820521327607011  0.19852951181904635  0.884004203275566  1.0000
  H   H34       1.0  0.41796527593941596  0.3014689388301832  0.38400684444577127  1.0000
  H   H35       1.0  0.4179643575501474  0.8014721933993485  0.1159923394751772  1.0000
  H   H36       1.0  0.582052907687398  0.6985291900615423  0.6159955877274328  1.0000
  H   H37       1.0  0.2554461806815098  0.2401014089246658  0.8189579663046018  1.0000
  H   H38       1.0  0.7445621856622467  0.25989956042209167  0.31895942262348587  1.0000
  H   H39       1.0  0.7445681561693293  0.7599017219583288  0.18103726768976708  1.0000
  H   H40       1.0  0.2554567647959304  0.7401021529152059  0.6810390832680326  1.0000
  H   H41       1.0  0.20805469233022217  0.12764899050662848  0.8739179660424837  1.0000
  H   H42       1.0  0.7919532857883526  0.37234937988063155  0.3739204633340235  1.0000
  H   H43       1.0  0.7919644115447751  0.8723534397138976  0.12607726794301038  1.0000
  H   H44       1.0  0.2080633577663562  0.6276530422411424  0.6260813144701343  1.0000
  C   C1        1.0  0.7781635808553916  0.9978938071199295  0.7056174685059701  1.0000
  C   C2        1.0  0.22181883050411946  0.5021000179673791  0.20562583614989186  1.0000
  C   C3        1.0  0.2218476823936868  0.0021064480864509995  0.294378419867769  1.0000
  C   C4        1.0  0.7781599899938667  0.4978979811117696  0.7943831398975547  1.0000
  C   C5        1.0  0.9244331323485397  0.9049940405255654  0.7244547082148571  1.0000
  C   C6        1.0  0.07554051897290753  0.5949969819409943  0.22446526542720585  1.0000
  C   C7        1.0  0.0755876649621783  0.09500481335432912  0.27554052575964505  1.0000
  C   C8        1.0  0.9244244670858633  0.4049938076571208  0.7755437106241914  1.0000
  C   C9        1.0  0.7653178598992695  0.03401942999585119  0.6206477052587118  1.0000
  C   C10       1.0  0.23466074785343946  0.4659761763962322  0.12065494876914329  1.0000
  C   C11       1.0  0.23468340929047568  0.9659800758578853  0.3793462199839083  1.0000
  C   C12       1.0  0.7653091520373536  0.5340260915671067  0.8793520641573878  1.0000
  C   C13       1.0  0.6243939172631486  0.1202808986362882  0.6042074412285743  1.0000
  C   C14       1.0  0.37560550061109416  0.37971684542072387  0.10421385139160577  1.0000
  C   C15       1.0  0.3756018182307415  0.8797157234157211  0.3957825577266476  1.0000
  C   C16       1.0  0.6243859275636013  0.6202826280070042  0.8957931614957458  1.0000
  C   C17       1.0  0.6095290292351264  0.1614001591474619  0.5140985743497737  1.0000
  C   C18       1.0  0.39046282543873184  0.33860213550349993  0.014108017602012498  1.0000
  C   C19       1.0  0.3904602457722675  0.8386007399107456  0.48589273338830447  1.0000
  C   C20       1.0  0.6095333698133559  0.6613966372555565  0.9858963777504852  1.0000
  C   C21       1.0  0.49799055149961907  0.16769792232643965  0.6759966663053233  1.0000
  C   C22       1.0  0.5020087139647983  0.33230160387041263  0.17599985270052795  1.0000
  C   C23       1.0  0.5020171781367038  0.8322973065257526  0.32399791329892474  1.0000
  C   C24       1.0  0.49800100901259003  0.6677029445892797  0.8240051970265937  1.0000
  C   C25       1.0  0.5155822128088587  0.1287518394474176  0.7597240058348971  1.0000
  C   C26       1.0  0.4844179547883058  0.3712452322475955  0.2597274290754328  1.0000
  C   C27       1.0  0.48443427750198953  0.8712498657709773  0.2402725369158389  1.0000
  C   C28       1.0  0.5155756268996257  0.6287528155093299  0.7402782750423  1.0000
  C   C29       1.0  0.3826981098884518  0.17697277952566984  0.8379091673538069  1.0000
  C   C30       1.0  0.6173185597206724  0.32302472765191226  0.3379139240564938  1.0000
  C   C31       1.0  0.6173231475397073  0.8230282250194063  0.1620827947175982  1.0000
  C   C32       1.0  0.3826977770935187  0.6769762606925696  0.6620898168892352  1.0000
  N   N1        1.0  0.6549754613628167  0.04496544248637239  0.7739969665032047  1.0000
  N   N2        1.0  0.34502673924137645  0.4550324218745985  0.2740057874320172  1.0000
  N   N3        1.0  0.34504333579827323  0.955035553953749  0.22599892186087794  1.0000
  N   N4        1.0  0.6549640755720179  0.5449641839845684  0.7259992623050167  1.0000
  Cl  Cl1       1.0  0.15420095993908944  0.8814369096997369  0.9617280051748407  1.0000
  Cl  Cl2       1.0  0.8457965585194885  0.6185625117278308  0.46173372376406246  1.0000
  Cl  Cl3       1.0  0.8458302914685661  0.11856484420728458  0.03826984631665199  1.0000
  Cl  Cl4       1.0  0.15418226204503327  0.3814354873435661  0.5382719803759031  1.0000
