data_image0
_chemical_formula_structural       Zn8H24C116Cl48O26
_chemical_formula_sum              "Zn8 H24 C116 Cl48 O26"
_cell_length_a       21.53467171015278
_cell_length_b       21.534650475138957
_cell_length_c       34.54927615636675
_cell_angle_alpha    90.00036186939033
_cell_angle_beta     89.99961572422244
_cell_angle_gamma    89.99980336669758

_space_group_name_H-M_alt    "P 1"
_space_group_IT_number       1

loop_
  _space_group_symop_operation_xyz
  'x, y, z'

loop_
  _atom_site_type_symbol
  _atom_site_label
  _atom_site_symmetry_multiplicity
  _atom_site_fract_x
  _atom_site_fract_y
  _atom_site_fract_z
  _atom_site_occupancy
  Zn  Zn1       1.0  0.5524628325922974  0.5513938230392837  0.03357718910200451  1.0000
  Zn  Zn2       1.0  0.44753213707237194  0.5513931597205044  0.9664221329988435  1.0000
  Zn  Zn3       1.0  0.44753222432741785  0.44860895891275027  0.0335766273504774  1.0000
  Zn  Zn4       1.0  0.5524635625047908  0.44860793552170725  0.9664211325984269  1.0000
  Zn  Zn5       1.0  0.4486090872673786  0.4475291742200157  0.4664230285695865  1.0000
  Zn  Zn6       1.0  0.4486099389599048  0.552465510855214  0.5335806477697744  1.0000
  Zn  Zn7       1.0  0.551390135048962  0.5524677802530605  0.46642128351745527  1.0000
  Zn  Zn8       1.0  0.5513955262233595  0.4475339819867799  0.5335782004241523  1.0000
  H   H1        1.0  0.4215349239253213  0.4383201398905572  0.1519059133144012  1.0000
  H   H2        1.0  0.5784607171966486  0.5616782693901142  0.1519069857406095  1.0000
  H   H3        1.0  0.561678322950769  0.5784615479553566  0.34809321904867824  1.0000
  H   H4        1.0  0.4383203151760426  0.42153327803729473  0.3480917209813796  1.0000
  H   H5        1.0  0.36754984488700165  0.46461224996907907  0.23806649369611682  1.0000
  H   H6        1.0  0.3847112600843444  0.3947391247604415  0.2133812880139274  1.0000
  H   H7        1.0  0.6324513702674112  0.5353828535678745  0.2380663686626363  1.0000
  H   H8        1.0  0.6152883632251828  0.6052538710259655  0.213381509619694  1.0000
  H   H9        1.0  0.5353811023471239  0.6324485660806046  0.2619329643906099  1.0000
  H   H10       1.0  0.6052525076058118  0.6152887850480654  0.28661781695381444  1.0000
  H   H11       1.0  0.4646175341627909  0.36754306450028196  0.26193288063625886  1.0000
  H   H12       1.0  0.3947416839646322  0.38470681076964314  0.2866189611394603  1.0000
  H   H13       1.0  0.5784618269391474  0.43832107813485527  0.8480944111323865  1.0000
  H   H14       1.0  0.4215370033573294  0.561682067953491  0.8480938240333202  1.0000
  H   H15       1.0  0.4383235193114103  0.5784628354186622  0.6519070778582332  1.0000
  H   H16       1.0  0.5616839231981032  0.42153414219761504  0.6519062218723377  1.0000
  H   H17       1.0  0.6324547099628147  0.464620487994516  0.761934802513835  1.0000
  H   H18       1.0  0.6152921414930148  0.3947476719577736  0.7866194438580009  1.0000
  H   H19       1.0  0.3675506198684744  0.5353794626635705  0.7619328904267774  1.0000
  H   H20       1.0  0.3847087434105775  0.605253922090391  0.7866177349361152  1.0000
  H   H21       1.0  0.46461544657218923  0.6324520299941199  0.7380666766058752  1.0000
  H   H22       1.0  0.39474410022374673  0.6152862016605242  0.7133814670778662  1.0000
  H   H23       1.0  0.5353873538635056  0.3675513936273305  0.7380677442356358  1.0000
  H   H24       1.0  0.6052585014717948  0.3847118636357648  0.7133834679125286  1.0000
  C   C1        1.0  0.49999765926262546  0.6643372987542407  8.406406167000006e-07  1.0000
  C   C2        1.0  0.3345356621916978  0.5000000729983113  0.9999992378232959  1.0000
  C   C3        1.0  0.4999992345199544  0.5000017524135673  0.1048739156882519  1.0000
  C   C4        1.0  0.4999956293372633  0.3356599961705983  0.9999982792628187  1.0000
  C   C5        1.0  0.6654631988102083  0.49999861502500664  7.503962252000003e-07  1.0000
  C   C6        1.0  0.4999991621205737  0.5000015792761517  0.8951234675663996  1.0000
  C   C7        1.0  0.33566119269978867  0.5000040374812897  0.5000023637061657  1.0000
  C   C8        1.0  0.49999636031995465  0.6654691761929286  0.5000006090589082  1.0000
  C   C9        1.0  0.4999981372997838  0.49999579394598476  0.3951225436014808  1.0000
  C   C10       1.0  0.6643381326573986  0.5000062597309167  0.49999617732690643  1.0000
  C   C11       1.0  0.500002036290219  0.3345336911582494  0.5000025630281186  1.0000
  C   C12       1.0  0.500005831744673  0.49999964349780857  0.6048783129259688  1.0000
  C   C13       1.0  0.2646924799833458  0.5000006572001253  0.9999993838088557  1.0000
  C   C14       1.0  0.2323020358194654  0.44376667628873884  0.9970635340871823  1.0000
  C   C15       1.0  0.1671090281001639  0.44385176816028593  0.9972005764266427  1.0000
  C   C16       1.0  0.2323044052066834  0.5562366452765418  0.0029367048798007995  1.0000
  C   C17       1.0  0.16711047049876981  0.5561499196663249  0.0028039872518306  1.0000
  C   C18       1.0  0.13432020510386172  0.5000013838220668  4.4655579501e-06  1.0000
  C   C19       1.0  0.0653885761563657  0.5000015020831939  2.8729872952000006e-06  1.0000
  C   C20       1.0  0.03259811576427302  0.5001847671176308  0.9648917531439379  1.0000
  C   C21       1.0  0.032598939481559314  0.49981506045700286  0.035115398926251394  1.0000
  C   C22       1.0  0.7353059166432346  0.500000817034213  1.1833004478000004e-06  1.0000
  C   C23       1.0  0.7676975133562539  0.5562342652470634  0.9970614784894349  1.0000
  C   C24       1.0  0.8328900552396732  0.5561482460256998  0.9971976690804709  1.0000
  C   C25       1.0  0.767693767614226  0.4437639685452269  0.0029382589908521994  1.0000
  C   C26       1.0  0.8328853819223738  0.44385069280508554  0.0028038219672766  1.0000
  C   C27       1.0  0.8656770705462835  0.499999200260021  3.8052155133999997e-06  1.0000
  C   C28       1.0  0.9346096282497031  0.4999976888760501  1.924481509300001e-06  1.0000
  C   C29       1.0  0.9673979583534589  0.500186343988844  0.0351157612972912  1.0000
  C   C30       1.0  0.9673989933895443  0.4998125976621423  0.9648906668403042  1.0000
  C   C31       1.0  0.4053378376202019  0.43172050867162437  0.23114001097726333  1.0000
  C   C32       1.0  0.5946592727570846  0.5682731315454604  0.2311407522045954  1.0000
  C   C33       1.0  0.5682727388559029  0.5946606084701427  0.2688577131320926  1.0000
  C   C34       1.0  0.43172396566623666  0.4053348072657031  0.26885733667221245  1.0000
  C   C35       1.0  0.455634218972044  0.4651884893304513  0.1681551499430469  1.0000
  C   C36       1.0  0.45459660472622704  0.4656200930413733  0.20842922393465804  1.0000
  C   C37       1.0  0.5443617116737729  0.5348105490630602  0.1681551014429488  1.0000
  C   C38       1.0  0.5454021431362577  0.5343737812704105  0.20842887994121637  1.0000
  C   C39       1.0  0.5348073836216755  0.5443583345339249  0.3318439530795771  1.0000
  C   C40       1.0  0.5343743437245294  0.5453978507831607  0.2915681484057941  1.0000
  C   C41       1.0  0.4651867856878482  0.4556326117705538  0.331842187413514  1.0000
  C   C42       1.0  0.465620723324328  0.45459129407406357  0.2915692712509639  1.0000
  C   C43       1.0  0.49999946756909014  0.5000010416383701  0.1478684488653741  1.0000
  C   C44       1.0  0.5000004253150295  0.49999495071105576  0.228788523337947  1.0000
  C   C45       1.0  0.49999929733890264  0.499996504731996  0.352130615396419  1.0000
  C   C46       1.0  0.5000001970776893  0.4999965588692775  0.27120967258309747  1.0000
  C   C47       1.0  0.5946649726585492  0.4317289465933528  0.7688605769485832  1.0000
  C   C48       1.0  0.4053370320703068  0.5682729317652361  0.7688592151853726  1.0000
  C   C49       1.0  0.4317248685058813  0.594661328829673  0.7311414897472871  1.0000
  C   C50       1.0  0.5682789351858233  0.40533923836976987  0.7311428579955574  1.0000
  C   C51       1.0  0.5443624396757301  0.4651884510970988  0.8318447013258918  1.0000
  C   C52       1.0  0.5454056248388285  0.4656242865804714  0.7915712079123338  1.0000
  C   C53       1.0  0.45563749421778243  0.5348159233269884  0.8318421293262758  1.0000
  C   C54       1.0  0.4545961355140592  0.5343787507758505  0.7915695068774511  1.0000
  C   C55       1.0  0.46519086073852384  0.5443638738664518  0.6681579463221325  1.0000
  C   C56       1.0  0.46562436145067926  0.5454061188059924  0.7084299923484139  1.0000
  C   C57       1.0  0.5348173356317929  0.45563605472622015  0.6681576262513147  1.0000
  C   C58       1.0  0.534380615349349  0.45459746870064077  0.7084325644198871  1.0000
  C   C59       1.0  0.49999939344117195  0.5000027544154974  0.8521283555058828  1.0000
  C   C60       1.0  0.5000021506302019  0.5000023442007873  0.7712111754294071  1.0000
  C   C61       1.0  0.5000079222658513  0.49999846835007855  0.6478725566566367  1.0000
  C   C62       1.0  0.5000033076000322  0.500001200410317  0.7287903156248916  1.0000
  C   C63       1.0  0.49999482086259656  0.2655808462174036  0.9999995886178681  1.0000
  C   C64       1.0  0.5035826631927094  0.23293320807434273  0.0350487651218359  1.0000
  C   C65       1.0  0.5034782928077418  0.16766165870676283  0.03499885297591019  1.0000
  C   C66       1.0  0.49641804320988575  0.23293004025502742  0.9649507512620374  1.0000
  C   C67       1.0  0.4965286743981708  0.1676575622963554  0.9650021432474815  1.0000
  C   C68       1.0  0.5000032119155337  0.1346792941614154  9.564882575000005e-07  1.0000
  C   C69       1.0  0.5000028661076996  0.065589247795991  2.8466713644000004e-06  1.0000
  C   C70       1.0  0.5562514769277129  0.03262085022589641  0.9999101541774919  1.0000
  C   C71       1.0  0.4437540962673765  0.032622940205449404  9.72573746409e-05  1.0000
  C   C72       1.0  0.49999614588927715  0.7344164487216959  1.5573820775000002e-06  1.0000
  C   C73       1.0  0.5035762790884207  0.7670682538771701  0.9649523659039827  1.0000
  C   C74       1.0  0.5034712197650322  0.8323384105033755  0.9650028573682476  1.0000
  C   C75       1.0  0.4964128422580175  0.7670663382288653  0.0350495413769281  1.0000
  C   C76       1.0  0.49652185685757644  0.8323378870793191  0.0349990172555437  1.0000
  C   C77       1.0  0.4999996361811299  0.8653194324073114  9.465532855000007e-07  1.0000
  C   C78       1.0  0.5000023038057577  0.93441133625641  2.2402272890000004e-06  1.0000
  C   C79       1.0  0.44375175654836607  0.9673791914389229  0.9999099125815717  1.0000
  C   C80       1.0  0.5562506082633262  0.9673776448044434  9.65454902868e-05  1.0000
  C   C81       1.0  0.4999999554034248  0.7353073192201266  0.500001035873936  1.0000
  C   C82       1.0  0.5562352432636432  0.7676973616657037  0.5029388149431993  1.0000
  C   C83       1.0  0.5561473666677089  0.8328908966186503  0.5028031952305128  1.0000
  C   C84       1.0  0.4437636276249606  0.7676956673931769  0.4970656997678304  1.0000
  C   C85       1.0  0.44384663678381026  0.8328878103241595  0.4972012865349171  1.0000
  C   C86       1.0  0.4999978741987336  0.8656776729577447  0.5000007134506957  1.0000
  C   C87       1.0  0.49999496970248464  0.9346089055179904  0.4999996912869733  1.0000
  C   C88       1.0  0.4998122281141804  0.9673967067871698  0.5351139505865276  1.0000
  C   C89       1.0  0.5001827067704526  0.9674000650875955  0.4648887448377792  1.0000
  C   C90       1.0  0.5000016917780244  0.2646932262904755  0.500003004526725  1.0000
  C   C91       1.0  0.4437649792085807  0.2323046067303594  0.5029394440455235  1.0000
  C   C92       1.0  0.44385099978774184  0.1671110704115932  0.5028050146890521  1.0000
  C   C93       1.0  0.5562310856420751  0.23230113342010839  0.49706672703265303  1.0000
  C   C94       1.0  0.5561476106497311  0.16710667003567892  0.4972043731933269  1.0000
  C   C95       1.0  0.49999820057455224  0.13431962199165784  0.500004195280205  1.0000
  C   C96       1.0  0.4999969257873857  0.0653874606822811  0.5000011652675411  1.0000
  C   C97       1.0  0.4998100308940608  0.032598266958338215  0.46488980115449147  1.0000
  C   C98       1.0  0.5001867194239152  0.03259676484160681  0.5351138475785291  1.0000
  C   C99       1.0  0.7344176778791437  0.5000075325965555  0.49999632029262386  1.0000
  C   C100      1.0  0.7670638311651247  0.4964256294217577  0.46494370166530524  1.0000
  C   C101      1.0  0.8323362443701754  0.4965281430002833  0.464996533260873  1.0000
  C   C102      1.0  0.767065763557312  0.5035814294736481  0.5350459080112272  1.0000
  C   C103      1.0  0.8323391064314051  0.5034707976578262  0.5349930929780058  1.0000
  C   C104      1.0  0.8653186750460549  0.4999975562723477  0.49999517834213947  1.0000
  C   C105      1.0  0.9344114395049348  0.4999937227829108  0.499995033918701  1.0000
  C   C106      1.0  0.9673779076046075  0.44374432095337824  0.5000886334623401  1.0000
  C   C107      1.0  0.9673772511759253  0.5562430114916025  0.4999018754482236  1.0000
  C   C108      1.0  0.2655825762198348  0.5000041577088937  0.5000004840912524  1.0000
  C   C109      1.0  0.2329313272018538  0.4964287587241146  0.5350481681415644  1.0000
  C   C110      1.0  0.1676603067383553  0.496529173918745  0.5349976524755888  1.0000
  C   C111      1.0  0.23293494263548808  0.5035819905598303  0.4649509104401091  1.0000
  C   C112      1.0  0.16766345762038531  0.5034757625560999  0.46500054118454415  1.0000
  C   C113      1.0  0.13468297220496342  0.49999602366575846  0.4999981527032276  1.0000
  C   C114      1.0  0.06559160086570161  0.499994284730903  0.49999684990446985  1.0000
  C   C115      1.0  0.032621416833983105  0.5562413656664946  0.5000884930293523  1.0000
  C   C116      1.0  0.03262114651857222  0.44374778129250103  0.4999036079581529  1.0000
  Cl  Cl1       1.0  0.2724943345900074  0.6247443286887632  0.0075356942477569  1.0000
  Cl  Cl2       1.0  0.12664721622064687  0.624675844448518  0.0059515952870868  1.0000
  Cl  Cl3       1.0  0.27249503604083  0.375258854954538  0.992463508379643  1.0000
  Cl  Cl4       1.0  0.12664604286414516  0.37532598225573827  0.9940586369332108  1.0000
  Cl  Cl5       1.0  0.07298623723226431  0.5009288623213736  0.9220447522593884  1.0000
  Cl  Cl6       1.0  0.9270141191788851  0.4990708542289967  0.92204267409587  1.0000
  Cl  Cl7       1.0  0.072981958763954  0.4990759347221642  0.07796338876149629  1.0000
  Cl  Cl8       1.0  0.9270098343409288  0.5009231179592178  0.07796334397824718  1.0000
  Cl  Cl9       1.0  0.8733499954370956  0.3753238711962013  0.0059509912483051  1.0000
  Cl  Cl10      1.0  0.7275084324286994  0.37525586737712063  0.0075354101789316  1.0000
  Cl  Cl11      1.0  0.8733530742970005  0.6246744644292265  0.9940532250620678  1.0000
  Cl  Cl12      1.0  0.7275087419423089  0.6247411111978282  0.9924613114364504  1.0000
  Cl  Cl13      1.0  0.4900842335252804  0.27289751299834114  0.9220990046837301  1.0000
  Cl  Cl14      1.0  0.4923826372027662  0.12726431241176783  0.9222156478323598  1.0000
  Cl  Cl15      1.0  0.5099205150031809  0.27290991652490254  0.0778974850941765  1.0000
  Cl  Cl16      1.0  0.5076263260944175  0.12727672266478152  0.07778663669379428  1.0000
  Cl  Cl17      1.0  0.6250474434832967  0.07290975196377758  0.9995329471466263  1.0000
  Cl  Cl18      1.0  0.6250448515777194  0.9270871138930161  0.0004737543721234  1.0000
  Cl  Cl19      1.0  0.37496077762254754  0.07291486804719233  0.0004752017964549  1.0000
  Cl  Cl20      1.0  0.3749557940423359  0.9270926077209863  0.9995337029641361  1.0000
  Cl  Cl21      1.0  0.49237011257893226  0.8727265075279435  0.0777866877720257  1.0000
  Cl  Cl22      1.0  0.4900754581060768  0.7270909929605268  0.0778989988914347  1.0000
  Cl  Cl23      1.0  0.5076167886339108  0.8727284403666359  0.9222159246503026  1.0000
  Cl  Cl24      1.0  0.5099124073486153  0.7270994179189714  0.922100435597997  1.0000
  Cl  Cl25      1.0  0.3752583816593145  0.7275014710028104  0.4924717457884853  1.0000
  Cl  Cl26      1.0  0.3753184906029928  0.8733482853912875  0.49405614679298543  1.0000
  Cl  Cl27      1.0  0.6247429489981613  0.7275071561046573  0.5075366629739477  1.0000
  Cl  Cl28      1.0  0.6246730521465481  0.8733558120882208  0.5059453103102314  1.0000
  Cl  Cl29      1.0  0.49907697327178363  0.9270113150507842  0.5779599222850179  1.0000
  Cl  Cl30      1.0  0.500928943099801  0.07298630592260481  0.5779593962004839  1.0000
  Cl  Cl31      1.0  0.5009213508139184  0.9270137720277488  0.4220405881519582  1.0000
  Cl  Cl32      1.0  0.4990718479041619  0.0729873761599649  0.4220426747763995  1.0000
  Cl  Cl33      1.0  0.6246739332235977  0.1266424481275052  0.49405676170245977  1.0000
  Cl  Cl34      1.0  0.624743810930461  0.27248924643641464  0.4924726447845487  1.0000
  Cl  Cl35      1.0  0.3753252804914737  0.12664618680651782  0.5059484147970892  1.0000
  Cl  Cl36      1.0  0.37525675960297633  0.2724939302028204  0.5075429465305348  1.0000
  Cl  Cl37      1.0  0.7270988111675224  0.5099156931759127  0.5778978424478325  1.0000
  Cl  Cl38      1.0  0.8727332624792224  0.507613571125745  0.5777805990854218  1.0000
  Cl  Cl39      1.0  0.7270880742472485  0.49009661094312673  0.42209482874984156  1.0000
  Cl  Cl40      1.0  0.8727271601191121  0.49238198034671404  0.4222082794086005  1.0000
  Cl  Cl41      1.0  0.9270899704144852  0.3749482904846674  0.5004663037124927  1.0000
  Cl  Cl42      1.0  0.07291303475051339  0.3749525375008461  0.4995308769894535  1.0000
  Cl  Cl43      1.0  0.9270839738751706  0.6250345365480926  0.49952611026795773  1.0000
  Cl  Cl44      1.0  0.0729065637698625  0.6250387930572145  0.5004630816739706  1.0000
  Cl  Cl45      1.0  0.12728275401505584  0.5076200982531206  0.4222113147008599  1.0000
  Cl  Cl46      1.0  0.27291394682540476  0.5099156826308401  0.4221013164311742  1.0000
  Cl  Cl47      1.0  0.1272675477631395  0.49238126185164804  0.5777841533661885  1.0000
  Cl  Cl48      1.0  0.2728964253623333  0.4900991088257739  0.5779028050113268  1.0000
  O   O1        1.0  0.49999887002433513  0.5000007563931207  1.0962496830000005e-06  1.0000
  O   O2        1.0  0.5470566168537943  0.6383977050339666  0.015156146250717496  1.0000
  O   O3        1.0  0.3603643616112607  0.5234560290059136  0.9703986098263825  1.0000
  O   O4        1.0  0.47000637272244467  0.45635578125820336  0.0880043639854904  1.0000
  O   O5        1.0  0.4529394472759238  0.6383999961464398  0.9848443864749541  1.0000
  O   O6        1.0  0.5299918134687829  0.5436475525335281  0.08800527864494259  1.0000
  O   O7        1.0  0.3603699681994287  0.47654499560820096  0.029595883834254298  1.0000
  O   O8        1.0  0.4529372451771536  0.3616007108494443  0.015157824571900798  1.0000
  O   O9        1.0  0.6396331526155735  0.4765469640488291  0.970402854337962  1.0000
  O   O10       1.0  0.5470509460464116  0.36159710656690447  0.984841329724304  1.0000
  O   O11       1.0  0.6396251315424736  0.5234600678302428  0.029597997405502997  1.0000
  O   O12       1.0  0.4700133988623493  0.5436550832219497  0.911992276324753  1.0000
  O   O13       1.0  0.5299828863988695  0.456349639463106  0.9119908214700628  1.0000
  O   O14       1.0  0.5000008236091205  0.49999771871875237  0.49999941522032293  1.0000
  O   O15       1.0  0.36160416981288535  0.4529439463777579  0.48484531470095493  1.0000
  O   O16       1.0  0.4765466192832691  0.6396333307229796  0.5296026746101532  1.0000
  O   O17       1.0  0.5436401741747404  0.5299935053045671  0.4119920399271564  1.0000
  O   O18       1.0  0.36160013025502746  0.5470607889958288  0.5151598831459054  1.0000
  O   O19       1.0  0.45635499017207337  0.4699968605230255  0.411991525463705  1.0000
  O   O20       1.0  0.5234545486329767  0.6396310926508518  0.47040191514052043  1.0000
  O   O21       1.0  0.6383967117391051  0.547064804056582  0.4848402902379192  1.0000
  O   O22       1.0  0.5234561024818305  0.3603684436439424  0.529602895535163  1.0000
  O   O23       1.0  0.6384027469328543  0.4529459469622736  0.5151562250272619  1.0000
  O   O24       1.0  0.47654091590447933  0.3603682240298056  0.47040406882612734  1.0000
  O   O25       1.0  0.45635486893744576  0.5299880462364683  0.5880098029445691  1.0000
  O   O26       1.0  0.5436569760667282  0.4700115340937714  0.5880092130445718  1.0000
