data_image0
_chemical_formula_structural       V4H16C20Se4N4O16
_chemical_formula_sum              "V4 H16 C20 Se4 N4 O16"
_cell_length_a       7.183508100899267
_cell_length_b       10.806595234423922
_cell_length_c       11.049634656613316
_cell_angle_alpha    115.12405690888484
_cell_angle_beta     107.52867727156242
_cell_angle_gamma    92.7191957546587

_space_group_name_H-M_alt    "P 1"
_space_group_IT_number       1

loop_
  _space_group_symop_operation_xyz
  'x, y, z'

loop_
  _atom_site_type_symbol
  _atom_site_label
  _atom_site_symmetry_multiplicity
  _atom_site_fract_x
  _atom_site_fract_y
  _atom_site_fract_z
  _atom_site_occupancy
  V   V1        1.0  0.24341247045028785  0.3249337179802155  0.9665421514642316  1.0000
  V   V2        1.0  0.7565865236250957  0.6750677639132691  0.033458576273695084  1.0000
  V   V3        1.0  0.23595643650563866  0.8210612968428066  0.4898943346187963  1.0000
  V   V4        1.0  0.7640419690535227  0.1789380974798078  0.5101054078613529  1.0000
  H   H1        1.0  0.463608458247407  0.09223988423522661  0.9202102738213397  1.0000
  H   H2        1.0  0.5363896546717087  0.9077584644771124  0.07978988059392851  1.0000
  H   H3        1.0  0.7899840032733181  0.04229011051943131  0.02792734668408059  1.0000
  H   H4        1.0  0.2100141080277354  0.9577082400177449  0.9720719031671762  1.0000
  H   H5        1.0  0.967594460608126  0.479451412509583  0.3405713301550363  1.0000
  H   H6        1.0  0.03240657551160809  0.5205469483539104  0.6594293990333142  1.0000
  H   H7        1.0  0.6312381019548282  0.508395604227644  0.22442593929434188  1.0000
  H   H8        1.0  0.36876352106306604  0.4916048460315566  0.7755748705877821  1.0000
  H   H9        1.0  0.34612670863488404  0.9945464656980433  0.32951974697172665  1.0000
  H   H10       1.0  0.6538743258667877  0.005451896990280098  0.6704800776526126  1.0000
  H   H11       1.0  0.008284163493669902  0.0203485859669073  0.21521711980532388  1.0000
  H   H12       1.0  0.9917171652661168  0.979650820506855  0.7847831974479078  1.0000
  H   H13       1.0  0.2676270578028408  0.43903553912583254  0.31921474919186466  1.0000
  H   H14       1.0  0.732371055116275  0.5609628095865064  0.6807854052234036  1.0000
  H   H15       1.0  0.595920485196217  0.3969734197775026  0.43462621054678857  1.0000
  H   H16       1.0  0.4040808419455147  0.6030259885210897  0.5653732021424317  1.0000
  C   C1        1.0  0.5777221523653965  0.1734818418280994  0.01644923685643816  1.0000
  C   C2        1.0  0.4222780106702474  0.8265186005306902  0.9835521902031488  1.0000
  C   C3        1.0  0.7605202036552825  0.1469495053107082  0.07655375481109414  1.0000
  C   C4        1.0  0.2394767403035659  0.8530498829363254  0.9234457002825137  1.0000
  C   C5        1.0  0.9083945037775296  0.25670418199740647  0.19524609259306655  1.0000
  C   C6        1.0  0.09160828496450799  0.7432952323767595  0.8047536074826951  1.0000
  C   C7        1.0  0.8614474319566201  0.3892752002413502  0.24857717613633673  1.0000
  C   C8        1.0  0.13854951200222843  0.6107241880056833  0.7514222789572713  1.0000
  C   C9        1.0  0.6736428023027585  0.4072836817990294  0.1849260383039777  1.0000
  C   C10       1.0  0.3263599864392789  0.5927157325751369  0.8150736617717768  1.0000
  C   C11       1.0  0.3216491771391646  0.09228674186529423  0.326952991330323  1.0000
  C   C12       1.0  0.6783503957622017  0.9077116147474485  0.673046545907475  1.0000
  C   C13       1.0  0.1326129185971681  0.1076710664935661  0.2620272216827502  1.0000
  C   C14       1.0  0.867388114286449  0.8923272980195875  0.7379716983775779  1.0000
  C   C15       1.0  0.10604874470597281  0.23467570650441158  0.26054952063191905  1.0000
  C   C16       1.0  0.8939508281953934  0.7653226501083381  0.739450016605879  1.0000
  C   C17       1.0  0.2765249641784777  0.3407795554108547  0.3238606821543684  1.0000
  C   C18       1.0  0.7234763629632468  0.6592198528877375  0.676138730534852  1.0000
  C   C19       1.0  0.4605325402558621  0.3177235031937258  0.3864008628126783  1.0000
  C   C20       1.0  0.539465863685237  0.6822758929537116  0.6135979751034525  1.0000
  Se  Se1       1.0  0.2114812379991946  0.6507491165812596  0.1491354468703605  1.0000
  Se  Se2       1.0  0.7885177560761889  0.3492523653122248  0.8508652808675661  1.0000
  Se  Se3       1.0  0.20986722033422475  0.149464345643068  0.6293285478393855  1.0000
  Se  Se4       1.0  0.7901326468252492  0.8505350547551133  0.370671482027298  1.0000
  N   N1        1.0  0.5326563693696971  0.3016826551684417  0.07053634259238352  1.0000
  N   N2        1.0  0.4673420361894643  0.6983167391541656  0.9294633998877656  1.0000
  N   N3        1.0  0.48454936000962334  0.19570220662700424  0.3899462570010996  1.0000
  N   N4        1.0  0.5154505039137335  0.8042971974208443  0.6100519637375683  1.0000
  O   O1        1.0  0.30521469452151717  0.50045811915939  0.13519498440398786  1.0000
  O   O2        1.0  0.6947854652780096  0.4995423268490669  0.8648046335275763  1.0000
  O   O3        1.0  0.33426019036318877  0.2703886842808885  0.8061670832929977  1.0000
  O   O4        1.0  0.6657408473746003  0.7296096747577678  0.19383455045936418  1.0000
  O   O5        1.0  0.11788171618784561  0.1980176352183278  0.9670783002199383  1.0000
  O   O6        1.0  0.8821105567841415  0.8019859056929948  0.03292107127905564  1.0000
  O   O7        1.0  0.0995728806421567  0.7066900361100109  0.5012973277142547  1.0000
  O   O8        1.0  0.9004258191751121  0.2933104019980349  0.4987029073947795  1.0000
  O   O9        1.0  0.3346302884317183  0.7476758883428616  0.3337102225157196  1.0000
  O   O10       1.0  0.6653687056436723  0.2523255935506228  0.6662905052222142  1.0000
  O   O11       1.0  0.9701310728061189  0.6022446558300203  0.13411273228238943  1.0000
  O   O12       1.0  0.029869381251515437  0.3977568339638752  0.8658873782780743  1.0000
  O   O13       1.0  0.9692423266382589  0.11270219701595609  0.6244726644540534  1.0000
  O   O14       1.0  0.030756080538964246  0.8872971954818211  0.375527982590107  1.0000
  O   O15       1.0  0.30430006677657667  0.0075544320983028015  0.6441896081331533  1.0000
  O   O16       1.0  0.6956998020009524  0.9924449664750484  0.35581132629754836  1.0000
