data_image0
_chemical_formula_structural       H32Pb2C28S4O34
_chemical_formula_sum              "H32 Pb2 C28 S4 O34"
_cell_length_a       6.81212436901772
_cell_length_b       11.79297699886683
_cell_length_c       14.238458738670683
_cell_angle_alpha    109.84642566595244
_cell_angle_beta     101.5161281808609
_cell_angle_gamma    97.70847183050809

_space_group_name_H-M_alt    "P 1"
_space_group_IT_number       1

loop_
  _space_group_symop_operation_xyz
  'x, y, z'

loop_
  _atom_site_type_symbol
  _atom_site_label
  _atom_site_symmetry_multiplicity
  _atom_site_fract_x
  _atom_site_fract_y
  _atom_site_fract_z
  _atom_site_occupancy
  H   H1        1.0  0.34318137948682886  0.42534297437430263  0.5642672056397728  1.0000
  H   H2        1.0  0.6568440721642261  0.5746517388420358  0.43572643821132573  1.0000
  H   H3        1.0  0.5778046111744713  0.4380626945280924  0.5608203731735274  1.0000
  H   H4        1.0  0.42221416112356985  0.5619422309337523  0.43918040398201447  1.0000
  H   H5        1.0  0.747072804970088  0.9851256624413621  0.8922422296375672  1.0000
  H   H6        1.0  0.2529188279248941  0.014870823927331904  0.1077488972688556  1.0000
  H   H7        1.0  0.9224496095196886  0.9021358555897765  0.8804663211050396  1.0000
  H   H8        1.0  0.0775516752049086  0.09785794371402552  0.1195291387001518  1.0000
  H   H9        1.0  0.9768072310243451  0.7105547367003949  0.7658749779145636  1.0000
  H   H10       1.0  0.02318407102318793  0.28944082578128427  0.2341158654067712  1.0000
  H   H11       1.0  0.907217323274736  0.6735313008476284  0.6417748482509326  1.0000
  H   H12       1.0  0.09278109318339028  0.3264670978437394  0.3582209197021271  1.0000
  H   H13       1.0  0.28437192078772705  0.9341239325550674  0.7661501411287759  1.0000
  H   H14       1.0  0.7156303819177837  0.0658688842209614  0.2338409241728883  1.0000
  H   H15       1.0  0.16469250583309503  0.0146288105062027  0.2328669017027423  1.0000
  H   H16       1.0  0.8353056294998635  0.9853724494295406  0.767135950429207  1.0000
  H   H17       1.0  0.3750029119206957  0.2177465196974779  0.5251574476859702  1.0000
  H   H18       1.0  0.6250190885405615  0.7822668238893942  0.4748529567526845  1.0000
  H   H19       1.0  0.2291128699814635  0.2974552007213235  0.017388154439572596  1.0000
  H   H20       1.0  0.7708610435522587  0.7025405703680647  0.982618059819899  1.0000
  H   H21       1.0  0.42886350200161166  0.5742048980490255  0.2925690202982524  1.0000
  H   H22       1.0  0.5711548344689773  0.42579450796360147  0.7074316044421707  1.0000
  H   H23       1.0  0.11072896756336803  0.4983169505532814  0.7114630648240025  1.0000
  H   H24       1.0  0.8892661106010634  0.5016676446484211  0.28853212095332037  1.0000
  H   H25       1.0  0.12568564362977955  0.8149828434086999  0.35923978450052374  1.0000
  H   H26       1.0  0.8743196363178781  0.18502205285336262  0.6407597858274698  1.0000
  H   H27       1.0  0.35853313992508606  0.10603477923424258  0.7274382374364307  1.0000
  H   H28       1.0  0.6414781616763533  0.8939701403197019  0.2725625767610893  1.0000
  H   H29       1.0  0.15021214259367352  0.35306967673472656  0.7850004608515064  1.0000
  H   H30       1.0  0.8497529020777391  0.6469185974531655  0.21499658084387357  1.0000
  H   H31       1.0  0.3362836960669142  0.7121344531544551  0.12013378207497274  1.0000
  H   H32       1.0  0.6636940834261295  0.2878602800108112  0.8798640608544873  1.0000
  Pb  Pb1       1.0  0.5348431514440152  0.7067485310096088  0.7247451912249616  1.0000
  Pb  Pb2       1.0  0.4651628228585736  0.2932861544664291  0.2752794952237565  1.0000
  C   C1        1.0  0.24077768969954869  0.9159021781222451  0.6221951561063365  1.0000
  C   C2        1.0  0.7592373979348251  0.0840971182595638  0.37779812543287505  1.0000
  C   C3        1.0  0.17408168239242638  0.8329496584959062  0.5173668180694193  1.0000
  C   C4        1.0  0.8259376168013616  0.16704795455811453  0.48263691110142304  1.0000
  C   C5        1.0  0.17431369389328918  0.8787358248088707  0.4396082231500528  1.0000
  C   C6        1.0  0.8256990324672272  0.1212615380409261  0.5603786971131868  1.0000
  C   C7        1.0  0.2409476890256385  0.004671525977833802  0.462494784350298  1.0000
  C   C8        1.0  0.759077004326798  0.9953371460220808  0.5375103594283743  1.0000
  C   C9        1.0  0.30948366947706774  0.0868732449261458  0.5678110788662921  1.0000
  C   C10       1.0  0.6905351529281986  0.9131317011640903  0.43219111329270987  1.0000
  C   C11       1.0  0.30680755996647247  0.0417303524453345  0.646890824879833  1.0000
  C   C12       1.0  0.6932069411338376  0.9582671271050599  0.3531040119943896  1.0000
  C   C13       1.0  0.2454876781375361  0.05198917179707511  0.3801575270305407  1.0000
  C   C14       1.0  0.7545271120792805  0.9480296131317162  0.6198481143530971  1.0000
  C   C15       1.0  0.2685046265944919  0.6542525513265431  0.9554137558950161  1.0000
  C   C16       1.0  0.7314758490155383  0.3457571225691325  0.044599676239663155  1.0000
  C   C17       1.0  0.2176245231587686  0.5515334700161034  0.8599723560710046  1.0000
  C   C18       1.0  0.7823700818278707  0.4484743060361893  0.1400361897991473  1.0000
  C   C19       1.0  0.18798623887770566  0.4315802480383227  0.8582386954068114  1.0000
  C   C20       1.0  0.8119919716772442  0.5684154502707414  0.14176226111466408  1.0000
  C   C21       1.0  0.21588513728763561  0.41079705025351393  0.9505485465194498  1.0000
  C   C22       1.0  0.7840792795037075  0.5892060240913679  0.04945461867474418  1.0000
  C   C23       1.0  0.27309272868244955  0.5133975872031514  0.046808401958436684  1.0000
  C   C24       1.0  0.7269205234190039  0.4866037567477833  0.953199328601663  1.0000
  C   C25       1.0  0.29534852373703296  0.6336486444625962  0.04676268924817603  1.0000
  C   C26       1.0  0.70462320389813  0.36634526529416434  0.953242116247438  1.0000
  C   C27       1.0  0.32225068173011806  0.4933151493292911  0.1434273487790989  1.0000
  C   C28       1.0  0.6777356815044087  0.5066778586704644  0.856577806549197  1.0000
  S   S1        1.0  0.09857749280504183  0.67130670254069  0.4805734376457949  1.0000
  S   S2        1.0  0.9014286452707478  0.3286880406975712  0.5194234155220698  1.0000
  S   S3        1.0  0.3013477221093409  0.8072597465236694  0.957444493471506  1.0000
  S   S4        1.0  0.6986305981911586  0.19274510165303127  0.04255337070311069  1.0000
  O   O1        1.0  0.9167622330591169  0.6461928311810536  0.5179191631438158  1.0000
  O   O2        1.0  0.0832386249841903  0.35380832178736193  0.48207617465299535  1.0000
  O   O3        1.0  0.486554150190443  0.46317059728104215  0.6069840105318391  1.0000
  O   O4        1.0  0.5134608070253747  0.5368278577273458  0.393014647436125  1.0000
  O   O5        1.0  0.27556183356058034  0.6309982073503948  0.5283141955554669  1.0000
  O   O6        1.0  0.7244508876494534  0.36899836569696737  0.47168163864517254  1.0000
  O   O7        1.0  0.8025764102111025  0.9232342622769707  0.8428362273499275  1.0000
  O   O8        1.0  0.19741013393413448  0.07675584322161909  0.1571590137925511  1.0000
  O   O9        1.0  0.05215173262023855  0.6208289181565193  0.3673844144790052  1.0000
  O   O10       1.0  0.9478434047975808  0.3791685707874066  0.6326122167085161  1.0000
  O   O11       1.0  0.8636742235092215  0.6666900219857723  0.7024161352451443  1.0000
  O   O12       1.0  0.13631639178979066  0.3333036824077098  0.2975734334042813  1.0000
  O   O13       1.0  0.24075425638461215  0.8680779505238476  0.6973154758073363  1.0000
  O   O14       1.0  0.7592584902639742  0.13191486833472507  0.30267511313451934  1.0000
  O   O15       1.0  0.155172515085937  0.9723775311321959  0.2851655598726239  1.0000
  O   O16       1.0  0.8448218139260246  0.02763389596690051  0.714841156239011  1.0000
  O   O17       1.0  0.3300755395935512  0.16238064053906953  0.3998597727656801  1.0000
  O   O18       1.0  0.6699478804763004  0.8376243565412197  0.6001456516760938  1.0000
  O   O19       1.0  0.3770711470240897  0.2078436547839856  0.5931610723139046  1.0000
  O   O20       1.0  0.6229395426047261  0.7921632021273198  0.4068465424774176  1.0000
  O   O21       1.0  0.10135149210144334  0.8158866724000619  0.898736757079476  1.0000
  O   O22       1.0  0.8986410876092846  0.1841208838096549  0.1012567971623852  1.0000
  O   O23       1.0  0.4639861899239364  0.8236010701044166  0.9059834313849962  1.0000
  O   O24       1.0  0.5360143078376893  0.1763908298543839  0.0940079237413656  1.0000
  O   O25       1.0  0.35690078006835074  0.8901059570046712  0.06673834069827922  1.0000
  O   O26       1.0  0.6430918358379004  0.1098841924141922  0.933259559317186  1.0000
  O   O27       1.0  0.19243170383309402  0.29332589558698885  0.9443041682782791  1.0000
  O   O28       1.0  0.8075447562658126  0.7066772253416503  0.05570148465498189  1.0000
  O   O29       1.0  0.3823478404548268  0.5935289805440506  0.22854754051581955  1.0000
  O   O30       1.0  0.6176644739770366  0.4064741666796792  0.7714577931155875  1.0000
  O   O31       1.0  0.3124523763037956  0.38547878109014283  0.14367697678586916  1.0000
  O   O32       1.0  0.6875633428213918  0.6145215629490438  0.8563250783591984  1.0000
  O   O33       1.0  0.20249709657445444  0.5730571783007079  0.7713520455688894  1.0000
  O   O34       1.0  0.7974952131530201  0.4269358220483356  0.2286522311237391  1.0000
