data_image0
_chemical_formula_structural       Zn16H40C112S8Br8Cl8O52
_chemical_formula_sum              "Zn16 H40 C112 S8 Br8 Cl8 O52"
_cell_length_a       18.547970917997507
_cell_length_b       19.718064994904797
_cell_length_c       32.75193039386725
_cell_angle_alpha    85.96397209312538
_cell_angle_beta     73.62808701650641
_cell_angle_gamma    62.07600672223241

_space_group_name_H-M_alt    "P 1"
_space_group_IT_number       1

loop_
  _space_group_symop_operation_xyz
  'x, y, z'

loop_
  _atom_site_type_symbol
  _atom_site_label
  _atom_site_symmetry_multiplicity
  _atom_site_fract_x
  _atom_site_fract_y
  _atom_site_fract_z
  _atom_site_occupancy
  Zn  Zn1       1.0  0.8728191781007126  0.5547058060025094  0.5184903183973546  1.0000
  Zn  Zn2       1.0  0.03864007321764969  0.4837167330765978  0.43874200723446677  1.0000
  Zn  Zn3       1.0  0.043754509690167316  0.398678412368298  0.5236951669351413  1.0000
  Zn  Zn4       1.0  0.04469464730202327  0.5622826056521147  0.5178206710555672  1.0000
  Zn  Zn5       1.0  0.6256752128690907  0.19229007611595247  0.733143998068627  1.0000
  Zn  Zn6       1.0  0.46436552034327144  0.3499137400322709  0.7251601573933044  1.0000
  Zn  Zn7       1.0  0.4559515988786842  0.26605513714772405  0.8125384731834089  1.0000
  Zn  Zn8       1.0  0.45585300347724467  0.19157762332506678  0.7281796707203796  1.0000
  Zn  Zn9       1.0  0.4630922590249469  0.7620814076288623  0.3127159607986201  1.0000
  Zn  Zn10      1.0  0.4537008944967767  0.6909961140236687  0.23166703761978613  1.0000
  Zn  Zn11      1.0  0.6256025052986726  0.6939036280296805  0.22911395215769664  1.0000
  Zn  Zn12      1.0  0.4557206425524285  0.8521221011767609  0.2270256103905979  1.0000
  Zn  Zn13      1.0  0.0361221966787468  0.900020374923599  0.024991615175586915  1.0000
  Zn  Zn14      1.0  0.0515539716091382  0.05603249438048859  0.018226065353175603  1.0000
  Zn  Zn15      1.0  0.876157984739912  0.05951950557354729  0.0200240709651496  1.0000
  Zn  Zn16      1.0  0.038250274025500804  0.9838299168874793  0.9372383628805208  1.0000
  H   H1        1.0  0.810918340595137  0.24319462140677217  0.6542088931630232  1.0000
  H   H2        1.0  0.5453335554389794  0.48554702832589647  0.6199143666629325  1.0000
  H   H3        1.0  0.5509021099657829  0.525897608706998  0.6652109804711728  1.0000
  H   H4        1.0  0.6520573905946421  0.5690176451573663  0.6168413379841909  1.0000
  H   H5        1.0  0.6462551991658927  0.5288857251450236  0.571584392425997  1.0000
  H   H6        1.0  0.2935003169886554  0.6025954776156509  0.2959819596700655  1.0000
  H   H7        1.0  0.3496950706513644  0.6731184192091318  0.4349763302681851  1.0000
  H   H8        1.0  0.2596116321359147  0.7614764610402602  0.43202924814126936  1.0000
  H   H9        1.0  0.16214480264358136  0.7119730354268652  0.47759579716731787  1.0000
  H   H10       1.0  0.25208471338219607  0.6236263166420953  0.4805405407716491  1.0000
  H   H11       1.0  0.8098978266841003  0.6017575047832295  0.2949664228113349  1.0000
  H   H12       1.0  0.5485426718334737  0.7615826695720356  0.430221203481338  1.0000
  H   H13       1.0  0.5430262191966477  0.6735213513345072  0.4329442809956987  1.0000
  H   H14       1.0  0.6431073858407997  0.6236719672755056  0.47920882877634347  1.0000
  H   H15       1.0  0.6488452686337992  0.7116313952672754  0.47642128266030426  1.0000
  H   H16       1.0  0.3083824896130737  0.456390653829743  0.6464042848121281  1.0000
  H   H17       1.0  0.3282826368607558  0.1799116026739185  0.6295355001191822  1.0000
  H   H18       1.0  0.23769215313528497  0.22057056013147755  0.6749642209004492  1.0000
  H   H19       1.0  0.14208306238686663  0.27397051723303173  0.6263339802018209  1.0000
  H   H20       1.0  0.23282765602497338  0.2334270084096274  0.5810723067851312  1.0000
  H   H21       1.0  0.6907121735931128  0.1471116023598285  0.9558960056474248  1.0000
  H   H22       1.0  0.9541289638683991  0.0778081659103549  0.8164499377460217  1.0000
  H   H23       1.0  0.9490852902223633  0.9894855063275827  0.8189725247002356  1.0000
  H   H24       1.0  0.8468420548714021  0.040296830549955594  0.7738435455131594  1.0000
  H   H25       1.0  0.8519453233766112  0.12852401108573014  0.7714044784064384  1.0000
  H   H26       1.0  0.19269793738910582  0.051867105094558504  0.8440664439195444  1.0000
  H   H27       1.0  0.17078158759835563  0.21500790431637276  0.9748952292442822  1.0000
  H   H28       1.0  0.261895822239488  0.12702075222659204  0.9771034186788369  1.0000
  H   H29       1.0  0.35672994223745036  0.1741458607603406  0.9264107207907344  1.0000
  H   H30       1.0  0.26564922438886635  0.26204985801869185  0.9242752963367452  1.0000
  H   H31       1.0  0.19300533594141445  0.7943665915157821  0.10325528475313923  1.0000
  H   H32       1.0  0.2615355587480294  0.03168466924518039  0.0748211346176078  1.0000
  H   H33       1.0  0.1704421873243263  0.07190173992425027  0.12005885197449828  1.0000
  H   H34       1.0  0.2653944351130945  0.019438997426874494  0.1688560358665967  1.0000
  H   H35       1.0  0.356505863297585  0.979291085309725  0.12370558967969462  1.0000
  H   H36       1.0  0.688980722922757  0.007426238015575801  0.09648633878807546  1.0000
  H   H37       1.0  0.9493026488218774  0.7244746625621161  0.08492757912600983  1.0000
  H   H38       1.0  0.954065838281288  0.76452173842938  0.13060851020411954  1.0000
  H   H39       1.0  0.8528637548610619  0.7210312419957815  0.17821822792764414  1.0000
  H   H40       1.0  0.8483320655749368  0.680554855748653  0.1326640503217931  1.0000
  C   C1        1.0  0.8627409303829481  0.5674828554782892  0.43043927119286  1.0000
  C   C2        1.0  0.12486669489276646  0.3153217478164122  0.4386148100211287  1.0000
  C   C3        1.0  0.8656362656494637  0.42754329348255726  0.568287643700188  1.0000
  C   C4        1.0  0.13882347576425494  0.4351071665463877  0.5681595132266608  1.0000
  C   C5        1.0  0.8715962510650712  0.6841784329594984  0.5605647815627464  1.0000
  C   C6        1.0  0.1373682068535517  0.569064178564261  0.4308318679171563  1.0000
  C   C7        1.0  0.63937868078591  0.31836019594886966  0.6815260868658441  1.0000
  C   C8        1.0  0.376713978260824  0.43544649039768757  0.8097839037635451  1.0000
  C   C9        1.0  0.6333796939232527  0.1826661899282271  0.8212690352552343  1.0000
  C   C10       1.0  0.3615015214604399  0.18041097805347303  0.816742308892799  1.0000
  C   C11       1.0  0.6275105653472437  0.0656771592899332  0.6885184276819416  1.0000
  C   C12       1.0  0.36335842717954137  0.31866159737451477  0.6803572026356051  1.0000
  C   C13       1.0  0.36293133691977886  0.6806110741439396  0.3200148468825077  1.0000
  C   C14       1.0  0.6228906837855419  0.565671865610291  0.18873384620157196  1.0000
  C   C15       1.0  0.6383479223524516  0.6806732279605326  0.3184182552904744  1.0000
  C   C16       1.0  0.6338570017690517  0.8215596745355426  0.18057556461823043  1.0000
  C   C17       1.0  0.3756439635279346  0.9317983518105991  0.31321932924376483  1.0000
  C   C18       1.0  0.36135337981345117  0.8174266514349068  0.18137725799956436  1.0000
  C   C19       1.0  0.13865113623253933  0.9312527052412917  0.0686764971137563  1.0000
  C   C20       1.0  0.8828523290919391  0.18395418758865387  0.06120752441972853  1.0000
  C   C21       1.0  0.8607906014161911  0.9327110619140841  0.0696237612384323  1.0000
  C   C22       1.0  0.8623234805079392  0.0688958486799791  0.9313719978805252  1.0000
  C   C23       1.0  0.1217137298934717  0.8145120367731236  0.9401693535205949  1.0000
  C   C24       1.0  0.1393509509467847  0.06718603483662379  0.9301562835788175  1.0000
  C   C25       1.0  0.7339821532796473  0.8041440134053274  0.6012418809597477  1.0000
  C   C26       1.0  0.7648372784378736  0.9448256465664426  0.6487796288075742  1.0000
  C   C27       1.0  0.8216594541129892  0.7586195190964771  0.5858639658117184  1.0000
  C   C28       1.0  0.6771427235349489  0.990691539838295  0.6638648816070543  1.0000
  C   C29       1.0  0.7855236063834565  0.8768263598324068  0.6258753938995198  1.0000
  C   C30       1.0  0.7131975856759705  0.8721777885674128  0.6241627250381825  1.0000
  C   C31       1.0  0.2026891625651928  0.2254838533065708  0.36933700167462996  1.0000
  C   C32       1.0  0.29786988367101935  0.02145911891759769  0.3827456188307536  1.0000
  C   C33       1.0  0.17414124867814706  0.24097544560144973  0.4134714492029659  1.0000
  C   C34       1.0  0.3264839223477694  0.0059244974236634  0.3386287539780072  1.0000
  C   C35       1.0  0.2527062339646733  0.1015859043983411  0.39397603184346497  1.0000
  C   C36       1.0  0.24789365304457792  0.14530853365432958  0.358195308065099  1.0000
  C   C37       1.0  0.6966222187067073  0.34612716032826535  0.6529768302663257  1.0000
  C   C38       1.0  0.811683225353178  0.3966836288714858  0.5973337742032713  1.0000
  C   C39       1.0  0.6670205265582752  0.4179016646323106  0.6361559678272855  1.0000
  C   C40       1.0  0.8411369157811206  0.32374369079475673  0.6149106139972461  1.0000
  C   C41       1.0  0.7230222794067488  0.44155395085347476  0.6094158942693895  1.0000
  C   C42       1.0  0.7853666826705564  0.2996546363796496  0.6416406701439072  1.0000
  C   C43       1.0  0.5885595747343401  0.4919076033730079  0.6345349216203644  1.0000
  C   C44       1.0  0.651779273915551  0.5189796751096125  0.6042462272531921  1.0000
  C   C45       1.0  0.3057987999802946  0.6525545390172951  0.34825425862187137  1.0000
  C   C46       1.0  0.19388014884816582  0.5964230127307459  0.4011055975277245  1.0000
  C   C47       1.0  0.27975598117904343  0.6640465914737702  0.3925683633618604  1.0000
  C   C48       1.0  0.22076664620619355  0.5850876009532158  0.3558111393101129  1.0000
  C   C49       1.0  0.2257294016481525  0.6368122004257086  0.41764343023778133  1.0000
  C   C50       1.0  0.274750409469938  0.6123527989338767  0.3305348561122372  1.0000
  C   C51       1.0  0.285797991528902  0.6985978791326416  0.4305469771374676  1.0000
  C   C52       1.0  0.22471009018646973  0.6676568769673352  0.4591001300787169  1.0000
  C   C53       1.0  0.69518214257495  0.6522780696429037  0.3468070891743622  1.0000
  C   C54       1.0  0.8091373966091099  0.5953003662896845  0.40041390266573973  1.0000
  C   C55       1.0  0.664995165926321  0.6637545351344868  0.3911389964092819  1.0000
  C   C56       1.0  0.8393169251284007  0.5841493699996005  0.3551161326984129  1.0000
  C   C57       1.0  0.7205055534145901  0.6360241256913637  0.41657496170841307  1.0000
  C   C58       1.0  0.783941540420301  0.6117594246702465  0.3294898303667537  1.0000
  C   C59       1.0  0.5862057483634544  0.6986770258428475  0.42881608044752545  1.0000
  C   C60       1.0  0.6489022148286591  0.6674035152991564  0.457782563477096  1.0000
  C   C61       1.0  0.3056876133702957  0.34823308055784696  0.6523755652535855  1.0000
  C   C62       1.0  0.1955088017658895  0.40907633211563166  0.596772956845939  1.0000
  C   C63       1.0  0.27157855661936736  0.3064380200639079  0.639624368809649  1.0000
  C   C64       1.0  0.2304395397382848  0.4513090926757639  0.610149062017136  1.0000
  C   C65       1.0  0.21869007526456122  0.3362979902349181  0.6128517137413922  1.0000
  C   C66       1.0  0.2833354177764065  0.4217804726012061  0.6369870667896933  1.0000
  C   C67       1.0  0.26731666663211934  0.23135560151405335  0.6428197162991579  1.0000
  C   C68       1.0  0.20749071449036904  0.26484168042158973  0.612460783506414  1.0000
  C   C69       1.0  0.29811291255252576  0.5844635529775388  0.8204694945112079  1.0000
  C   C70       1.0  0.2016107045074306  0.6654445713287487  0.9295681665815677  1.0000
  C   C71       1.0  0.32736503939253214  0.5103995296924992  0.8344841109879795  1.0000
  C   C72       1.0  0.17189997738798715  0.7395218198563001  0.9155515966928219  1.0000
  C   C73       1.0  0.24763279816432526  0.6088959707163183  0.8948504795607943  1.0000
  C   C74       1.0  0.25213305833960914  0.6410260448080153  0.8551917515504854  1.0000
  C   C75       1.0  0.8045279367635486  0.09728393529584167  0.903392609851302  1.0000
  C   C76       1.0  0.6878800569147713  0.15489982797456744  0.8509846203925022  1.0000
  C   C77       1.0  0.8332344145700574  0.08644573503682547  0.8590305926258779  1.0000
  C   C78       1.0  0.6592825706268003  0.16513330585666353  0.8962812571266879  1.0000
  C   C79       1.0  0.7765219789580868  0.11457137535617079  0.8341810144134599  1.0000
  C   C80       1.0  0.7157638073373748  0.1374912650309099  0.9213323456866717  1.0000
  C   C81       1.0  0.9111317879631284  0.0524055911607491  0.8208354898861928  1.0000
  C   C82       1.0  0.847169352820984  0.08416170181116907  0.7925817864808096  1.0000
  C   C83       1.0  0.19534260466771514  0.09615072519967778  0.9014526746671123  1.0000
  C   C84       1.0  0.30415945222232216  0.15097843775597397  0.8437885156747313  1.0000
  C   C85       1.0  0.228290990677813  0.1369567472163311  0.9163386229212236  1.0000
  C   C86       1.0  0.2696736228846746  0.10975436595575161  0.8289548659761152  1.0000
  C   C87       1.0  0.28055511274669  0.1630609826918388  0.8882643439129225  1.0000
  C   C88       1.0  0.21742599363048495  0.08335080531534798  0.8569015002259022  1.0000
  C   C89       1.0  0.23198294483010073  0.16977521228212566  0.9557157973326937  1.0000
  C   C90       1.0  0.29136529895762914  0.1992705765698588  0.9240141676009442  1.0000
  C   C91       1.0  0.6445494502770827  0.4460356890869264  0.1485392734548512  1.0000
  C   C92       1.0  0.8620746065420734  0.3037370011333564  0.10107419829255089  1.0000
  C   C93       1.0  0.6724950514775756  0.4911694863891682  0.16361947864881193  1.0000
  C   C94       1.0  0.8340133683404932  0.2586505825357861  0.08607174459209686  1.0000
  C   C95       1.0  0.792962789883802  0.37223180881510126  0.12383996151804413  1.0000
  C   C96       1.0  0.7138859042523578  0.37775036492778463  0.12567608472549097  1.0000
  C   C97       1.0  0.1953410787453293  0.9026373422529801  0.09704812486133114  1.0000
  C   C98       1.0  0.3046099263243675  0.8432703152386978  0.1529161607705802  1.0000
  C   C99       1.0  0.22847594615087252  0.9452285698135868  0.1099289446580443  1.0000
  C   C100      1.0  0.2704778024626791  0.8002612602453992  0.1395401533770126  1.0000
  C   C101      1.0  0.2808839952427958  0.9160782160052889  0.1369156344280213  1.0000
  C   C102      1.0  0.21777755210799632  0.829284805448779  0.11261288483132151  1.0000
  C   C103      1.0  0.23177260843817754  0.0207592518189088  0.10689518460387148  1.0000
  C   C104      1.0  0.2912454521061106  0.9879388508725384  0.13746016711251494  1.0000
  C   C105      1.0  0.8034053379174395  0.9043534468155484  0.09752724583362492  1.0000
  C   C106      1.0  0.6880229354129881  0.8526941996509193  0.15194460208405758  1.0000
  C   C107      1.0  0.8328627743680099  0.8321641465404709  0.11390639236700653  1.0000
  C   C108      1.0  0.6587125382536029  0.9259674390687067  0.1347328681624589  1.0000
  C   C109      1.0  0.7767333586355182  0.8080575817191401  0.1401174108651091  1.0000
  C   C110      1.0  0.714599816085574  0.9506437771346654  0.10867831274181579  1.0000
  C   C111      1.0  0.9112448067443211  0.7581943128019901  0.11565386782174862  1.0000
  C   C112      1.0  0.8479477369426434  0.730773562238994  0.14545494755565613  1.0000
  S   S1        1.0  0.878577958223495  0.7987906905108774  0.5994922721198749  1.0000
  S   S2        1.0  0.6201544326811971  0.9506311906969596  0.6501827426933886  1.0000
  S   S3        1.0  0.20249441652246963  0.15790342946448277  0.4411842284415073  1.0000
  S   S4        1.0  0.2981947788376544  0.08907343312959169  0.3109802860172053  1.0000
  S   S5        1.0  0.29895878629198336  0.5099948017042094  0.8899336001561622  1.0000
  S   S6        1.0  0.2002920767155984  0.7399040147379311  0.8600873280458217  1.0000
  S   S7        1.0  0.7830707107315291  0.4502631392455143  0.14978556593762704  1.0000
  S   S8        1.0  0.7234746917736175  0.2998812794328742  0.09979530559257917  1.0000
  Br  Br1       1.0  0.9585108317577067  0.2504707166205619  0.604560229468639  1.0000
  Br  Br2       1.0  0.1859669629446826  0.5338115209975597  0.3243038987901841  1.0000
  Br  Br3       1.0  0.9567009993401214  0.5314395325631123  0.32393591120150944  1.0000
  Br  Br4       1.0  0.21040611251935798  0.5518563908560452  0.5931630361692798  1.0000
  Br  Br5       1.0  0.5421031111508724  0.2169936951191431  0.9280745455723007  1.0000
  Br  Br6       1.0  0.28876064785339384  0.08675039001498418  0.770011018701382  1.0000
  Br  Br7       1.0  0.29054964941246914  0.6999300726134121  0.15670486059983793  1.0000
  Br  Br8       1.0  0.5413318626152447  0.9986472970031101  0.14449759054359393  1.0000
  Cl  Cl1       1.0  0.6574026258287513  0.7845219817116984  0.5945483746461875  1.0000
  Cl  Cl2       1.0  0.8414450018044303  0.9643066121202394  0.6554646867769733  1.0000
  Cl  Cl3       1.0  0.18831899463535956  0.29091003640870366  0.3315168823043066  1.0000
  Cl  Cl4       1.0  0.3123860952084882  0.9557297144248195  0.420507400147379  1.0000
  Cl  Cl5       1.0  0.3124826848872572  0.6088409046730233  0.768831062467541  1.0000
  Cl  Cl6       1.0  0.18733365904085286  0.6411202911262421  0.9812017235067573  1.0000
  Cl  Cl7       1.0  0.5417983243304365  0.46628631956327377  0.15503114165761633  1.0000
  Cl  Cl8       1.0  0.9651967253368878  0.28303019722699924  0.09428345130231723  1.0000
  O   O1        1.0  0.9979662699048502  0.500804169396396  0.5010853651646131  1.0000
  O   O2        1.0  0.8227149654733453  0.5824576326811908  0.4702494874538061  1.0000
  O   O3        1.0  0.10140184939786683  0.3754315391458007  0.4180202950120986  1.0000
  O   O4        1.0  0.9458412611269935  0.3860494344043701  0.557903662448858  1.0000
  O   O5        1.0  0.9429034931508441  0.531447044225672  0.41464772971082925  1.0000
  O   O6        1.0  0.8250082018473105  0.4947253169671768  0.5561318217843052  1.0000
  O   O7        1.0  0.10990103746355825  0.3125605249004266  0.47920690704217606  1.0000
  O   O8        1.0  0.11815992139382557  0.38570255369504025  0.5590412416332667  1.0000
  O   O9        1.0  0.9523948539650817  0.6579754000825275  0.550609862674925  1.0000
  O   O10       1.0  0.1154897919481641  0.5024245245798582  0.5552384179929746  1.0000
  O   O11       1.0  0.8313484087767405  0.653049043173361  0.5510013280407976  1.0000
  O   O12       1.0  0.11767083087102033  0.5249561259871882  0.41534372653192264  1.0000
  O   O13       1.0  0.11366174000899328  0.5921693388908904  0.47024213449107316  1.0000
  O   O14       1.0  0.5007834903291624  0.24978650558592347  0.7499287135808146  1.0000
  O   O15       1.0  0.6741280907391669  0.25227632156820323  0.6957284296360909  1.0000
  O   O16       1.0  0.3997432031463645  0.43569421428942684  0.7693061527028887  1.0000
  O   O17       1.0  0.5531545312510674  0.22009862947427183  0.8367345322660924  1.0000
  O   O18       1.0  0.5597302585210714  0.36398981970605593  0.6892596569349436  1.0000
  O   O19       1.0  0.673858923345712  0.16579406499207036  0.7815708837038784  1.0000
  O   O20       1.0  0.3918529717872161  0.37644475681229744  0.8317985705029542  1.0000
  O   O21       1.0  0.3794157104267981  0.22144965207441197  0.8367140225975193  1.0000
  O   O22       1.0  0.546673034544952  0.09492002526656051  0.6959614835572054  1.0000
  O   O23       1.0  0.3885253876856183  0.1626064970250596  0.7768411069229798  1.0000
  O   O24       1.0  0.6678333829105938  0.09464704911385267  0.7001394270422593  1.0000
  O   O25       1.0  0.38857562722793665  0.3635977115912751  0.6903720095837187  1.0000
  O   O26       1.0  0.3827547015265508  0.2503866312937361  0.6917865534764688  1.0000
  O   O27       1.0  0.5007405683774947  0.7502840877138509  0.2501747898553788  1.0000
  O   O28       1.0  0.3882725401001823  0.7166086479055946  0.3386083913490481  1.0000
  O   O29       1.0  0.5423036974751767  0.5935923920239786  0.200036271318929  1.0000
  O   O30       1.0  0.6732555657573867  0.6677345064736002  0.2782448089167104  1.0000
  O   O31       1.0  0.38159532529301293  0.6665083233241729  0.2799009271413766  1.0000
  O   O32       1.0  0.5587562704749087  0.7158305720779836  0.3373774807470227  1.0000
  O   O33       1.0  0.6660741455774398  0.5954518012352565  0.19697977159852095  1.0000
  O   O34       1.0  0.6741504782180099  0.75300261671633  0.19124572976361523  1.0000
  O   O35       1.0  0.39132477981424085  0.9358026913058449  0.2726836624612048  1.0000
  O   O36       1.0  0.5537991077727115  0.8641142198004558  0.19222585434495437  1.0000
  O   O37       1.0  0.39803611942817  0.8710855897564255  0.333407723835748  1.0000
  O   O38       1.0  0.38745760309483757  0.7489182747850194  0.1926259389160876  1.0000
  O   O39       1.0  0.3796687298657985  0.8674776913719808  0.1920595149515947  1.0000
  O   O40       1.0  0.0007289070701830723  0.9999966733155431  0.9998264158290268  1.0000
  O   O41       1.0  0.11078547275504036  0.8873482111665821  0.06017530791449131  1.0000
  O   O42       1.0  0.9636562211260794  0.15356170881554476  0.05081868000813478  1.0000
  O   O43       1.0  0.8263030428130592  0.000560006187186  0.057340468997367076  1.0000
  O   O44       1.0  0.12276402434440553  0.9978681143836781  0.0553777650562068  1.0000
  O   O45       1.0  0.9403377918484848  0.8858805453652959  0.060393354874847205  1.0000
  O   O46       1.0  0.8382820681486647  0.15635023473650017  0.05227365343917973  1.0000
  O   O47       1.0  0.8277749228857089  0.08538369107510849  0.9714205469480319  1.0000
  O   O48       1.0  0.10330909790768306  0.8735194320642137  0.9180223341240463  1.0000
  O   O49       1.0  0.9417876405544943  0.030351676955426392  0.9125877399450034  1.0000
  O   O50       1.0  0.10113805455171121  0.8144270933554836  0.9806851508745494  1.0000
  O   O51       1.0  0.12223894848471419  0.08236494427401908  0.9700651953878605  1.0000
  O   O52       1.0  0.11338260066860069  0.030219449162871104  0.912778014893803  1.0000
