data_image0
_chemical_formula_structural       Zn8H69C61NO26
_chemical_formula_sum              "Zn8 H69 C61 N1 O26"
_cell_length_a       18.229911856330066
_cell_length_b       18.23292596393378
_cell_length_c       18.26016401079432
_cell_angle_alpha    119.92298359182391
_cell_angle_beta     90.09213532560902
_cell_angle_gamma    119.92924554468776

_space_group_name_H-M_alt    "P 1"
_space_group_IT_number       1

loop_
  _space_group_symop_operation_xyz
  'x, y, z'

loop_
  _atom_site_type_symbol
  _atom_site_label
  _atom_site_symmetry_multiplicity
  _atom_site_fract_x
  _atom_site_fract_y
  _atom_site_fract_z
  _atom_site_occupancy
  Zn  Zn1       1.0  0.044671876894220634  0.9136229955079997  0.4555382107405849  1.0000
  Zn  Zn2       1.0  0.8676427828660208  0.9108370411750997  0.45460665908786524  1.0000
  Zn  Zn3       1.0  0.0436058490151439  0.0873475987533894  0.45801168157032635  1.0000
  Zn  Zn4       1.0  0.044126451894740674  0.08984826254911844  0.6338599267940098  1.0000
  Zn  Zn5       1.0  0.4583608372695521  0.08966159144187458  0.04539560220629821  1.0000
  Zn  Zn6       1.0  0.45519163882666186  0.9107137783616964  0.04475062593201072  1.0000
  Zn  Zn7       1.0  0.630956087778486  0.08607893211798498  0.04146834695902152  1.0000
  Zn  Zn8       1.0  0.45553991235531294  0.9135356275670999  0.8696000462340834  1.0000
  H   H1        1.0  0.3922102505622718  0.04635986378843171  0.720474005799204  1.0000
  H   H2        1.0  0.17699339953116316  0.870779559797846  0.08720925136464791  1.0000
  H   H3        1.0  0.14423725426983225  0.4110528480059018  0.8041649138198183  1.0000
  H   H4        1.0  0.32586246734874896  0.171992912587399  0.779638749576563  1.0000
  H   H5        1.0  0.1750271222253518  0.5871588046700539  0.8074432305070262  1.0000
  H   H6        1.0  0.2279171618064951  0.5916681415338445  0.8924273745490298  1.0000
  H   H7        1.0  0.27618304856154197  0.40905199162444456  0.7971005171585971  1.0000
  H   H8        1.0  0.36587971188419743  0.5904441381691045  0.8885938033416992  1.0000
  H   H9        1.0  0.25030426514727117  0.41053662942219665  0.5953632312583254  1.0000
  H   H10       1.0  0.1538256261012735  0.4091306960617518  0.5954985675878036  1.0000
  H   H11       1.0  0.24302034976992826  0.5908170589039443  0.6878870310971409  1.0000
  H   H12       1.0  0.36423359153754836  0.9736044448639305  0.2734831857587637  1.0000
  H   H13       1.0  0.3394633610530563  0.5913895200592806  0.6849226920993275  1.0000
  H   H14       1.0  0.32285672359653017  0.41078783010281245  0.7126990999491057  1.0000
  H   H15       1.0  0.28119786692298754  0.12725825820556513  0.9084088549371077  1.0000
  H   H16       1.0  0.41314609665388247  0.5908018402836889  0.8042553661268813  1.0000
  H   H17       1.0  0.8903291877131849  0.02584687138126901  0.7993053667174339  1.0000
  H   H18       1.0  0.806299878862852  0.8933481226581604  0.7162062419011123  1.0000
  H   H19       1.0  0.7164245788857785  0.893444343847314  0.8062666866034364  1.0000
  H   H20       1.0  0.7996771884789808  0.02593850732070296  0.8900111526879259  1.0000
  H   H21       1.0  0.8906327686071054  0.16381439336028353  0.7995739375150636  1.0000
  H   H22       1.0  0.7998758324090859  0.16386311622746771  0.8902244129495145  1.0000
  H   H23       1.0  0.1357103560925665  0.8361959285632423  0.2265390942020886  1.0000
  H   H24       1.0  0.6859544056174796  0.9395686023884194  0.5956121856227838  1.0000
  H   H25       1.0  0.6857118362187934  0.8430303104808203  0.5952895754182422  1.0000
  H   H26       1.0  0.5952320279348413  0.8429317930231548  0.6856571695557676  1.0000
  H   H27       1.0  0.1076358699380437  0.9538508823335408  0.7796746553684814  1.0000
  H   H28       1.0  0.5954025690331476  0.9393955141061882  0.685917082006263  1.0000
  H   H29       1.0  0.8069151565954585  0.130044548794473  0.7166664392501405  1.0000
  H   H30       1.0  0.7167775787449316  0.1299569064377481  0.8065747124012361  1.0000
  H   H31       1.0  0.7005189686383205  0.8361988584086435  0.226602526641429  1.0000
  H   H32       1.0  0.7837945442847455  0.8707404801463099  0.17733066419150137  1.0000
  H   H33       1.0  0.6937537554640302  0.8708888349942897  0.0872667467781981  1.0000
  H   H34       1.0  0.226414835986624  0.8360901817228097  0.1358315463439581  1.0000
  H   H35       1.0  0.609728664739606  0.8362877943401587  0.1357626565322434  1.0000
  H   H36       1.0  0.7003891772191648  0.9738483048899838  0.3641648169653919  1.0000
  H   H37       1.0  0.6095461048807352  0.9738955562563517  0.27331633906749897  1.0000
  H   H38       1.0  0.9046330692786951  0.1574529448513999  0.343386914206988  1.0000
  H   H39       1.0  0.17402488832285462  0.8282589270115608  0.7204806752174164  1.0000
  H   H40       1.0  0.9048242947786702  0.0614749167242151  0.24743122404697002  1.0000
  H   H41       1.0  0.8142424059085157  0.061443001850655286  0.15684599032137922  1.0000
  H   H42       1.0  0.8141049130073978  0.15752285750604494  0.25276404799117097  1.0000
  H   H43       1.0  0.7835456836801384  0.10637916358254518  0.4127953521514271  1.0000
  H   H44       1.0  0.6934160668325972  0.10646987757169062  0.32268756888074546  1.0000
  H   H45       1.0  0.1566267901142879  0.0614344788450083  0.24702599955616483  1.0000
  H   H46       1.0  0.7003407911759182  0.5906080642894124  0.3640812724918304  1.0000
  H   H47       1.0  0.7836409760853088  0.5898375189520308  0.41276878242913995  1.0000
  H   H48       1.0  0.693683746855882  0.40986115940854967  0.32283952622741907  1.0000
  H   H49       1.0  0.6097194222085988  0.40919357430136927  0.27334246707717824  1.0000
  H   H50       1.0  0.7002495889627766  0.5907744656894209  0.2264940996797691  1.0000
  H   H51       1.0  0.21865560744088705  0.8730777766561316  0.5917789344906198  1.0000
  H   H52       1.0  0.6096685617448471  0.40941921058573877  0.1359055482748843  1.0000
  H   H53       1.0  0.9048756312137197  0.5906865168902724  0.24736559769295483  1.0000
  H   H54       1.0  0.9048001641217596  0.5905062565537661  0.3433939649544583  1.0000
  H   H55       1.0  0.8145043928942143  0.4096253483272533  0.25296050929566155  1.0000
  H   H56       1.0  0.2528530331947536  0.15749971654037154  0.3430658246948042  1.0000
  H   H57       1.0  0.8145634757981453  0.4098362051159582  0.15693513638976234  1.0000
  H   H58       1.0  0.7835143965294121  0.590203131540953  0.17713886799411674  1.0000
  H   H59       1.0  0.6935860986130749  0.4102514361291155  0.08719052768194034  1.0000
  H   H60       1.0  0.2734718380788833  0.9736454717817863  0.364079300137746  1.0000
  H   H61       1.0  0.3230154551991902  0.10625850589999451  0.41276727366612687  1.0000
  H   H62       1.0  0.4130180039578518  0.10623208730145713  0.3228417270758044  1.0000
  H   H63       1.0  0.06051685006445964  0.4217311625023755  0.6769830667076421  1.0000
  H   H64       1.0  0.9330360735486919  0.3547703124801628  0.7184452468639365  1.0000
  H   H65       1.0  0.02228604033042096  0.47075235260447107  0.8196157079980964  1.0000
  H   H66       1.0  0.9918322937678565  0.3471820472787853  0.78888561912904  1.0000
  H   H67       1.0  0.3433177818924022  0.157386524610466  0.2526869862726002  1.0000
  H   H68       1.0  0.247095261607754  0.061319111327058806  0.15665552476075106  1.0000
  H   H69       1.0  0.08693709688092352  0.870738566536595  0.17709113458819561  1.0000
  C   C1        1.0  0.8600896668016916  0.000487101503352937  0.6406308605723723  1.0000
  C   C2        1.0  0.22002663723341698  0.08039259641599018  0.27982910287574464  1.0000
  C   C3        1.0  0.19932908301782962  0.0014592039309846345  0.3005369086928554  1.0000
  C   C4        1.0  0.1402881776390076  0.9997064269430708  0.35955433964662836  1.0000
  C   C5        1.0  0.3006166216803122  0.0013555927099701962  0.19939396271613669  1.0000
  C   C6        1.0  0.21138427718569366  0.8925823937217101  0.151459161345997  1.0000
  C   C7        1.0  0.27993569575033916  0.08032215333751215  0.21998408877019668  1.0000
  C   C8        1.0  0.15125689848828475  0.4386282327442715  0.7612893371426283  1.0000
  C   C9        1.0  0.21174525903317234  0.5595771999856325  0.8207026973657108  1.0000
  C   C10       1.0  0.2893059908666516  0.4403231757136867  0.7568108357196125  1.0000
  C   C11       1.0  0.2175433693915707  0.4406285560370408  0.6400490582344177  1.0000
  C   C12       1.0  0.26680116359911216  0.07101700225280892  0.837786449400909  1.0000
  C   C13       1.0  0.19878061552444162  0.3990013976511337  0.698055992976471  1.0000
  C   C14       1.0  0.29990795807172094  0.6013745257894456  0.7994382394310763  1.0000
  C   C15       1.0  0.3492525397587373  0.5603598137831228  0.8173531930397716  1.0000
  C   C16       1.0  0.8593240118953887  0.7193779596637526  0.3592509442396051  1.0000
  C   C17       1.0  0.2770038584672535  0.5603395205990723  0.7000127904990593  1.0000
  C   C18       1.0  0.8188220202169417  0.9701421951794063  0.7585763348028038  1.0000
  C   C19       1.0  0.7587934469042777  0.970184609476739  0.818647978228789  1.0000
  C   C20       1.0  0.8191112898965262  0.10770108676010914  0.7588387315050441  1.0000
  C   C21       1.0  0.6996023354202875  0.9201866082448049  0.6397251920937067  1.0000
  C   C22       1.0  0.7992203580113255  0.9987508553970414  0.6978525111157056  1.0000
  C   C23       1.0  0.17152198129964102  0.9744103525549338  0.7673325752560559  1.0000
  C   C24       1.0  0.6979079536690236  0.998720974330283  0.799028631623898  1.0000
  C   C25       1.0  0.7590359964408933  0.10769305080651044  0.8188497458243517  1.0000
  C   C26       1.0  0.639668859280306  0.9201169716762294  0.69955582889925  1.0000
  C   C27       1.0  0.7413181627925665  0.8926267115371757  0.21157243599422051  1.0000
  C   C28       1.0  0.1398761439209154  0.28087216122011693  0.6409513897810514  1.0000
  C   C29       1.0  0.6812342043661415  0.8926975717191185  0.15147542308710638  1.0000
  C   C30       1.0  0.7411696388447452  0.029690545246737303  0.3485419159518984  1.0000
  C   C31       1.0  0.8603757898071364  0.08040368509221453  0.2800794746008323  1.0000
  C   C32       1.0  0.8021498026221534  0.0014194069775683327  0.30068342809445875  1.0000
  C   C33       1.0  0.7008158694349971  0.0015429563717574357  0.19937758923806828  1.0000
  C   C34       1.0  0.20693530099588023  0.9045164953845201  0.7328743401489319  1.0000
  C   C35       1.0  0.6810370383155514  0.029736127453567508  0.288415650399159  1.0000
  C   C36       1.0  0.800421595253418  0.08043659740187072  0.2201066769198263  1.0000
  C   C37       1.0  0.7412406443606016  0.559992280140463  0.34849784478815593  1.0000
  C   C38       1.0  0.6812409548320488  0.4398770321018192  0.28846053174809333  1.0000
  C   C39       1.0  0.7411575600283412  0.5601682830567468  0.21145836859799516  1.0000
  C   C40       1.0  0.8594699174276457  0.9993785329431261  0.359579397088062  1.0000
  C   C41       1.0  0.8604985962780346  0.5600213751636288  0.2800466270361781  1.0000
  C   C42       1.0  0.8021245282464804  0.6012980048404941  0.30059372770119097  1.0000
  C   C43       1.0  0.7010744467188345  0.39885842770561186  0.19943419110848723  1.0000
  C   C44       1.0  0.6811903292251245  0.4401061784328988  0.15145969550206934  1.0000
  C   C45       1.0  0.23307314350023506  0.9293026772088738  0.6624190520072163  1.0000
  C   C46       1.0  0.8007204198692434  0.44026493893924346  0.22017810182170175  1.0000
  C   C47       1.0  0.35918092128400053  0.7195398722710918  0.8603087599759222  1.0000
  C   C48       1.0  0.6403178337086783  0.280834656837385  0.14021052369054834  1.0000
  C   C49       1.0  0.35983696433719087  0.9997101121733533  0.14056992374626273  1.0000
  C   C50       1.0  0.6406270639595634  0.0005520653076588494  0.8598020444441588  1.0000
  C   C51       1.0  0.6398891323304311  0.9995154341444633  0.1400522365910816  1.0000
  C   C52       1.0  0.14006760577071034  0.9995019188271641  0.6390399176041514  1.0000
  C   C53       1.0  0.3602987796610861  0.0013422445026094938  0.8611812861226866  1.0000
  C   C54       1.0  0.2929625366375249  0.09579393649770672  0.7673329913061623  1.0000
  C   C55       1.0  0.32834472075185783  0.025890706344995473  0.7328575803946223  1.0000
  C   C56       1.0  0.1973249863357439  0.9983496135907899  0.6956893619381576  1.0000
  C   C57       1.0  0.3025626602279559  0.002024831736264383  0.804596835847086  1.0000
  C   C58       1.0  0.9996961550740976  0.3921816700511728  0.7622647765177604  1.0000
  C   C59       1.0  0.2885759707725413  0.029575162102652566  0.34850586482746604  1.0000
  C   C60       1.0  0.3486570276147205  0.029535085612607793  0.288509108651759  1.0000
  C   C61       1.0  0.1513088912588287  0.8926175629564882  0.21146235586444823  1.0000
  N   N1        1.0  0.059533336161457825  0.38937346325423766  0.7095655709631785  1.0000
  O   O1        1.0  0.9994126602731869  0.9998765086008061  0.5019560087702503  1.0000
  O   O2        1.0  0.68240589120623  0.06375549032900117  0.9442488622373945  1.0000
  O   O3        1.0  0.5553644501446868  0.9365139600430085  0.11875017068732775  1.0000
  O   O4        1.0  0.9445822917497183  0.06390291185690003  0.6825120179182562  1.0000
  O   O5        1.0  0.3816796345607757  0.9380238726833029  0.8195344467201979  1.0000
  O   O6        1.0  0.6778733757269321  0.06050468384101743  0.11614936864791049  1.0000
  O   O7        1.0  0.3836368940178972  0.0636678659053872  0.945970720037785  1.0000
  O   O8        1.0  0.3841235265549016  0.062089417070659195  0.11807271798061687  1.0000
  O   O9        1.0  0.5556680573904628  0.9392690008606337  0.8221797473184081  1.0000
  O   O10       1.0  0.38072216334968095  0.7622914269141107  0.9446954501887959  1.0000
  O   O11       1.0  0.6780178305468212  0.23356083270084582  0.11563792115236265  1.0000
  O   O12       1.0  0.9442337594166047  0.7663436623774516  0.3818769608609146  1.0000
  O   O13       1.0  0.11848068026313296  0.9361167519139358  0.3805245853974882  1.0000
  O   O14       1.0  0.8175020038901052  0.7621412103526026  0.38091765584358234  1.0000
  O   O15       1.0  0.11840208352830228  0.23429792503713298  0.5562721419806566  1.0000
  O   O16       1.0  0.8178483155345332  0.9361984398179076  0.3809287076973362  1.0000
  O   O17       1.0  0.1183432346924321  0.06242177220273968  0.6803875477193843  1.0000
  O   O18       1.0  0.9443711563982831  0.06048219777767382  0.38278110489442707  1.0000
  O   O19       1.0  0.1179419144194824  0.9377652143703512  0.5542883913572183  1.0000
  O   O20       1.0  0.11895363540196516  0.2380953393722579  0.6826339646300853  1.0000
  O   O21       1.0  0.8220989057055873  0.9387584737818531  0.555878040689791  1.0000
  O   O22       1.0  0.1171113875289578  0.061485797193689996  0.38358582321681206  1.0000
  O   O23       1.0  0.4993288219954123  0.9989631493577776  0.0009123190505775338  1.0000
  O   O24       1.0  0.38275751336022534  0.7663590772155545  0.8222391364893582  1.0000
  O   O25       1.0  0.5557585458987475  0.23818944601227088  0.11948436057613777  1.0000
  O   O26       1.0  0.3806102142164959  0.9359012943928133  0.118503134237578  1.0000
