data_image0
_chemical_formula_structural       FeAg2H4C8N6
_chemical_formula_sum              "Fe1 Ag2 H4 C8 N6"
_cell_length_a       6.686956129548482
_cell_length_b       7.1747859827278715
_cell_length_c       8.424436697383754
_cell_angle_alpha    80.46717395754341
_cell_angle_beta     69.18904908813695
_cell_angle_gamma    62.19975877037927

_space_group_name_H-M_alt    "P 1"
_space_group_IT_number       1

loop_
  _space_group_symop_operation_xyz
  'x, y, z'

loop_
  _atom_site_type_symbol
  _atom_site_label
  _atom_site_symmetry_multiplicity
  _atom_site_fract_x
  _atom_site_fract_y
  _atom_site_fract_z
  _atom_site_occupancy
  Fe  Fe1       1.0  0.2978175111875245  2.1781003539400002e-05  0.08399461932646093  1.0000
  Ag  Ag1       1.0  0.798480037973661  0.498876727682273  0.584703397517778  1.0000
  Ag  Ag2       1.0  0.29624365076132625  0.5013751522595981  0.5847815168325424  1.0000
  H   H1        1.0  0.82163373350798  0.32760883284404224  0.08266433442778261  1.0000
  H   H2        1.0  0.14990954759635136  0.6722535007819985  0.08209836675138855  1.0000
  H   H3        1.0  0.4457359228709806  0.3274543900679062  0.08528531646074804  1.0000
  H   H4        1.0  0.7738292097913018  0.6723038388325404  0.08482753061889534  1.0000
  C   C1        1.0  0.00041139978365120535  0.3210301308593486  0.3725726495537599  1.0000
  C   C2        1.0  0.3205935812025018  0.6793089408958366  0.3726726548475057  1.0000
  C   C3        1.0  0.5970733239012134  0.6771959049983849  0.7967239376897197  1.0000
  C   C4        1.0  0.2733933895127337  0.3228848861476905  0.7966834936274623  1.0000
  C   C5        1.0  0.8108050869634269  0.1812067823389044  0.08308407844270954  1.0000
  C   C6        1.0  0.9923477384645099  0.8186319682710561  0.08281945040110364  1.0000
  C   C7        1.0  0.6033442083319828  0.18118140168689223  0.08451961594809625  1.0000
  C   C8        1.0  0.7848974247507601  0.8185955561071621  0.08428220197922798  1.0000
  N   N1        1.0  0.11568330019458267  0.20651146742194731  0.255992314739558  1.0000
  N   N2        1.0  0.32211160034771774  0.793559081785837  0.2559604950029453  1.0000
  N   N3        1.0  0.48070253457586903  0.7929531556373065  0.9124399715833887  1.0000
  N   N4        1.0  0.27323184287777025  0.20719607683044222  0.9124451298683524  1.0000
  N   N5        1.0  0.00727609793753461  0.9999418418888412  0.08248809252233259  1.0000
  N   N6        1.0  0.5883877597081124  0.9998982608138222  0.08495978003821132  1.0000
