data_image0
_chemical_formula_structural       Zn12H96C156N60
_chemical_formula_sum              "Zn12 H96 C156 N60"
_cell_length_a       20.303102542999554
_cell_length_b       20.30235671054125
_cell_length_c       20.30362295770274
_cell_angle_alpha    109.46941988589641
_cell_angle_beta     109.47354631579469
_cell_angle_gamma    109.46960350216638

_space_group_name_H-M_alt    "P 1"
_space_group_IT_number       1

loop_
  _space_group_symop_operation_xyz
  'x, y, z'

loop_
  _atom_site_type_symbol
  _atom_site_label
  _atom_site_symmetry_multiplicity
  _atom_site_fract_x
  _atom_site_fract_y
  _atom_site_fract_z
  _atom_site_occupancy
  Zn  Zn1       1.0  0.3934438009253539  0.3908671141507228  0.7842681185103118  1.0000
  Zn  Zn2       1.0  0.6091615145875265  0.3932722570653624  0.0026603494554037193  1.0000
  Zn  Zn3       1.0  0.9974432630289628  0.6066863205323897  0.39074911955567865  1.0000
  Zn  Zn4       1.0  0.7842665878023353  0.39099835534987193  0.3935970617513647  1.0000
  Zn  Zn5       1.0  0.6092579761238355  0.002649646210415004  0.39342614899858563  1.0000
  Zn  Zn6       1.0  0.6067231799678935  0.21587682986153564  0.609380697156368  1.0000
  Zn  Zn7       1.0  0.6066066800772418  0.6092266715101002  0.2158414199625225  1.0000
  Zn  Zn8       1.0  0.39087087755414257  0.6068052494321847  0.9974377515937078  1.0000
  Zn  Zn9       1.0  0.002648339741867075  0.393344226497028  0.6092835410278354  1.0000
  Zn  Zn10      1.0  0.2157941519953539  0.609032697740453  0.6064157180318261  1.0000
  Zn  Zn11      1.0  0.39073837399175193  0.9974183613046108  0.6066465690483441  1.0000
  Zn  Zn12      1.0  0.3932589108855709  0.7842251778115212  0.3907180842616996  1.0000
  H   H1        1.0  0.2221246584607143  0.3474898994064901  0.739470501096328  1.0000
  H   H2        1.0  0.09210893453722943  0.22210505853104223  0.6793543397445347  1.0000
  H   H3        1.0  0.7782262608150746  0.5184886167929932  0.1255472752902518  1.0000
  H   H4        1.0  0.9078081132596765  0.5880235609937046  0.12961525101675145  1.0000
  H   H5        1.0  0.393133930333846  0.6530667032058092  0.8745596926823396  1.0000
  H   H6        1.0  0.4586811192463426  0.7785506020528741  0.8704836277298114  1.0000
  H   H7        1.0  0.6078327828783683  0.482652227476322  0.26043294719649157  1.0000
  H   H8        1.0  0.5424295953317254  0.4125509992555222  0.32031396184317623  1.0000
  H   H9        1.0  0.7779934398222466  0.260622230116269  0.6527911448962413  1.0000
  H   H10       1.0  0.9079991874458598  0.3206104088504418  0.7780992381201557  1.0000
  H   H11       1.0  0.22169397090072343  0.8745786964414676  0.4814898507475647  1.0000
  H   H12       1.0  0.09214383892530272  0.8705049989517948  0.4117919734346671  1.0000
  H   H13       1.0  0.6070098848850164  0.12555866759191767  0.3471565637510139  1.0000
  H   H14       1.0  0.5415527919029017  0.12963821186871638  0.2216449485041778  1.0000
  H   H15       1.0  0.3919201054007288  0.7395894931952398  0.5172459542643182  1.0000
  H   H16       1.0  0.45719832815687056  0.6795289662996423  0.5871809152640637  1.0000
  H   H17       1.0  0.12539494882977914  0.7779298706381751  0.5172616755289638  1.0000
  H   H18       1.0  0.13004930789511354  0.9079344897959771  0.5872435699862281  1.0000
  H   H19       1.0  0.7403798108788138  0.22190314865575544  0.34737069390823183  1.0000
  H   H20       1.0  0.6803346790182375  0.09229618511584192  0.22188498302703147  1.0000
  H   H21       1.0  0.2598030437905123  0.6068158721319961  0.4813056486976421  1.0000
  H   H22       1.0  0.31973112128829934  0.5412493619459511  0.411667611467216  1.0000
  H   H23       1.0  0.8748789974783049  0.3920510192004869  0.6526468970145912  1.0000
  H   H24       1.0  0.8701459081975499  0.4573637140261654  0.7779367287659013  1.0000
  H   H25       1.0  0.48269871052418983  0.22202305689943116  0.8747718185141835  1.0000
  H   H26       1.0  0.41263379929581817  0.09202335387731597  0.8700678546796041  1.0000
  H   H27       1.0  0.6528612614396891  0.7782785711900715  0.25968141531176037  1.0000
  H   H28       1.0  0.7783523379087286  0.9078641371941744  0.3196353618647549  1.0000
  H   H29       1.0  0.5185856514872071  0.3930455614462361  0.7402582529343036  1.0000
  H   H30       1.0  0.5880533835770053  0.45842382824893946  0.6800973973576987  1.0000
  H   H31       1.0  0.3475429958570401  0.60811136250215  0.12527618417778535  1.0000
  H   H32       1.0  0.22222940854516793  0.5427293505704895  0.1299474601550443  1.0000
  H   H33       1.0  0.6526143572581801  0.8747121836009839  0.3919073061685196  1.0000
  H   H34       1.0  0.7779687935293821  0.8700609878306196  0.4572305329955028  1.0000
  H   H35       1.0  0.4814423960782149  0.25963020078769006  0.6069835087356025  1.0000
  H   H36       1.0  0.41183500629213643  0.31957692606307125  0.5414468468307305  1.0000
  H   H37       1.0  0.34698559326580636  0.7401926861482266  0.2215646844551955  1.0000
  H   H38       1.0  0.22145925990556492  0.6800679973270789  0.0919435744038282  1.0000
  H   H39       1.0  0.5172458175380469  0.12521211270185265  0.7778293251970468  1.0000
  H   H40       1.0  0.5873571401145765  0.12990578969431238  0.9077997724104137  1.0000
  H   H41       1.0  0.7394000578101371  0.5174053513454526  0.3921407007535792  1.0000
  H   H42       1.0  0.6793591436291989  0.5873660127778207  0.4574268233619279  1.0000
  H   H43       1.0  0.12546242377253233  0.3471447249992394  0.6069095814965452  1.0000
  H   H44       1.0  0.12952166488572908  0.22165270814088703  0.5413070359967591  1.0000
  H   H45       1.0  0.8744590000811738  0.4814835845211576  0.22160322495751916  1.0000
  H   H46       1.0  0.8703754816283507  0.4119087827633336  0.09199785121686675  1.0000
  H   H47       1.0  0.260490579173414  0.6524093959958321  0.7776597892663588  1.0000
  H   H48       1.0  0.32049803668525106  0.777729280218651  0.9076590510623747  1.0000
  H   H49       1.0  0.7779308755078205  0.6525612837605904  0.26057168085875276  1.0000
  H   H50       1.0  0.9079262739804861  0.7779131330067061  0.3205697640244694  1.0000
  H   H51       1.0  0.22180095683396658  0.48154329763093523  0.8745306680040487  1.0000
  H   H52       1.0  0.09222646399346228  0.41193729063868983  0.8704480826552158  1.0000
  H   H53       1.0  0.6068878685191522  0.34697065124682075  0.1255004992405944  1.0000
  H   H54       1.0  0.5413558885473577  0.2214615442362558  0.1295496249442109  1.0000
  H   H55       1.0  0.3921122515171189  0.5173264599774895  0.7395720669797967  1.0000
  H   H56       1.0  0.4573867924702881  0.5873032654750433  0.6795363094532973  1.0000
  H   H57       1.0  0.22198783522730278  0.7394258757980481  0.3472943844999037  1.0000
  H   H58       1.0  0.09197477951852312  0.6793435211893382  0.22195331415778705  1.0000
  H   H59       1.0  0.7783370185800038  0.1254666425197542  0.5185590773919414  1.0000
  H   H60       1.0  0.9079055990203883  0.12952440580806987  0.5881406723693415  1.0000
  H   H61       1.0  0.39296256263755674  0.8744975025644949  0.652888358555508  1.0000
  H   H62       1.0  0.4584684332053898  0.8704009826964312  0.7783740843607064  1.0000
  H   H63       1.0  0.607984011754219  0.2603977427420433  0.4827736960103906  1.0000
  H   H64       1.0  0.5426207459398781  0.3203153156087594  0.41271063476185066  1.0000
  H   H65       1.0  0.8746900563858944  0.2221242420116528  0.48273924313809147  1.0000
  H   H66       1.0  0.8700187193270209  0.09212375996453664  0.4126830154373096  1.0000
  H   H67       1.0  0.2596767385920415  0.77813939857041  0.6526436476651228  1.0000
  H   H68       1.0  0.31971964964438365  0.907743538000318  0.7781299705492728  1.0000
  H   H69       1.0  0.740155454430699  0.3931666283352443  0.518651062248658  1.0000
  H   H70       1.0  0.6800696189227224  0.45860011400849743  0.5881572917985595  1.0000
  H   H71       1.0  0.12519942809147006  0.6079398069393562  0.3474031974098395  1.0000
  H   H72       1.0  0.1299059137276331  0.5425582803401598  0.22211423318472612  1.0000
  H   H73       1.0  0.5173512305663621  0.7780400274121534  0.1252803082478026  1.0000
  H   H74       1.0  0.5874305035383928  0.9080197073979479  0.12996629282064018  1.0000
  H   H75       1.0  0.34719339749841527  0.2217862155331716  0.7403347414743351  1.0000
  H   H76       1.0  0.2216814923808882  0.09217499687211729  0.6802677015553728  1.0000
  H   H77       1.0  0.48136871390190084  0.6069611573750038  0.2597758896772148  1.0000
  H   H78       1.0  0.411780284939823  0.5414453039407617  0.31977835112834896  1.0000
  H   H79       1.0  0.6524541820252522  0.39190679914988646  0.8748174755957692  1.0000
  H   H80       1.0  0.7777694265252678  0.45721807865437847  0.8701147989727576  1.0000
  H   H81       1.0  0.3474062615559317  0.12534269248287433  0.6081114277046565  1.0000
  H   H82       1.0  0.2220719956379682  0.12998631158638574  0.5426795700050846  1.0000
  H   H83       1.0  0.5184359459457467  0.7403813300104145  0.39301398146252325  1.0000
  H   H84       1.0  0.5879479300108413  0.680287923633422  0.4584233341767571  1.0000
  H   H85       1.0  0.6530355988512256  0.2598832712684853  0.7785771924353782  1.0000
  H   H86       1.0  0.7785620883122418  0.3199103901872746  0.9081553454929647  1.0000
  H   H87       1.0  0.48276527309381834  0.8748332343386237  0.222223239554033  1.0000
  H   H88       1.0  0.41270092206039527  0.8701256016352873  0.09223012167895922  1.0000
  H   H89       1.0  0.2605839898484347  0.4825954594175812  0.60784159680626  1.0000
  H   H90       1.0  0.32047461420365403  0.4125110513629764  0.5424320393951589  1.0000
  H   H91       1.0  0.8746405863757332  0.6528966274820007  0.3930683627207401  1.0000
  H   H92       1.0  0.8705576279655958  0.7783914714796722  0.45858837101548733  1.0000
  H   H93       1.0  0.12561207505149954  0.5185716776624788  0.7784680961742511  1.0000
  H   H94       1.0  0.12967532689483363  0.5880755391858942  0.9080774967528527  1.0000
  H   H95       1.0  0.7396073468520113  0.3476353170701287  0.2223538610881304  1.0000
  H   H96       1.0  0.6795999918251141  0.22231010595296408  0.0923598233104029  1.0000
  C   C1        1.0  0.21920212618368143  0.2893314323974679  0.7239808448953795  1.0000
  C   C2        1.0  0.14765109639419882  0.22022608891524695  0.6915213618326205  1.0000
  C   C3        1.0  0.7808712806506222  0.5052873920429164  0.0701008246162402  1.0000
  C   C4        1.0  0.8522702920327134  0.5442277239622229  0.07232373053513186  1.0000
  C   C5        1.0  0.43549202496757994  0.7111378612338086  0.9300139558980477  1.0000
  C   C6        1.0  0.4722645549890671  0.7803316404421493  0.9277916945072703  1.0000
  C   C7        1.0  0.5651507925135419  0.49518853004277474  0.2759134500689129  1.0000
  C   C8        1.0  0.528430280811989  0.4559982311876568  0.3082629449081793  1.0000
  C   C9        1.0  0.7809313041973382  0.2760589269286271  0.7109338044524449  1.0000
  C   C10       1.0  0.8525047020810275  0.3084737405835512  0.7800365395909168  1.0000
  C   C11       1.0  0.21906981836058742  0.9300420108481687  0.49461957446257543  1.0000
  C   C12       1.0  0.14768081259613544  0.9278058855013711  0.45559360123721865  1.0000
  C   C13       1.0  0.5646970109136618  0.07010565763541628  0.28906572664030245  1.0000
  C   C14       1.0  0.527973461188246  0.07232771641587014  0.21987580412145033  1.0000
  C   C15       1.0  0.4345377110614733  0.7240593506938495  0.5046564880624658  1.0000
  C   C16       1.0  0.47118964939223656  0.6916085082486276  0.5437586811607105  1.0000
  C   C17       1.0  0.14486205329344395  0.14510085819366475  0.6691792260513267  1.0000
  C   C18       1.0  0.06883737714583302  0.06898360642972538  0.6223982269435098  1.0000
  C   C19       1.0  0.8548235188586943  0.5239189267694685  0.9998476825147691  1.0000
  C   C20       1.0  0.9308480546612256  0.5531920449711548  0.9998396054919282  1.0000
  C   C21       1.0  0.5245231049798632  0.8553421191903466  0.00023581847167953053  1.0000
  C   C22       1.0  0.5538351134156585  0.9314470947806157  0.00022354331289869901  1.0000
  C   C23       1.0  0.4756918694734296  0.4755492444794315  0.3306766663681841  1.0000
  C   C24       1.0  0.4463898973596798  0.4461758396479071  0.3774151956423282  1.0000
  C   C25       1.0  0.6234742292548532  0.47707181593772674  0.10081909405975148  1.0000
  C   C26       1.0  0.37629760221508946  0.8992337810619232  0.5227338634238096  1.0000
  C   C27       1.0  0.07017556867364053  0.7808657935442652  0.5047093872330067  1.0000
  C   C28       1.0  0.07263174250630307  0.8524068723810531  0.5438447538807339  1.0000
  C   C29       1.0  0.7245445623582042  0.2192342309795521  0.2892586025226364  1.0000
  C   C30       1.0  0.6920817611743716  0.147823339418075  0.2200931729148364  1.0000
  C   C31       1.0  0.27551373676704577  0.5644405775245148  0.4943988375637432  1.0000
  C   C32       1.0  0.30790525382519  0.5276536533157241  0.45539212958242103  1.0000
  C   C33       1.0  0.9300703823170408  0.4347125480496246  0.7108206584689825  1.0000
  C   C34       1.0  0.927597516620942  0.4713796368202098  0.7798995872635501  1.0000
  C   C35       1.0  0.4951820700756356  0.21907970407863792  0.9299696820445575  1.0000
  C   C36       1.0  0.4560084454502943  0.1475132411970111  0.9275033804952317  1.0000
  C   C37       1.0  0.7109660475438276  0.780917937016902  0.2754755335532693  1.0000
  C   C38       1.0  0.7801277954447982  0.8523266611424133  0.30789088421670363  1.0000
  C   C39       1.0  0.5054263750086107  0.43534460331261454  0.7244507357522066  1.0000
  C   C40       1.0  0.5443282314586212  0.4720253952015909  0.6919299857333742  1.0000
  C   C41       1.0  0.2893892786002183  0.5654620285120231  0.07007449413321612  1.0000
  C   C42       1.0  0.2203171098666985  0.5287598020463946  0.07253029393459798  1.0000
  C   C43       1.0  0.0003062897168817232  0.8552072848443828  0.5243074497635619  1.0000
  C   C44       1.0  0.00021032438348096596  0.931235137610102  0.5535799985090223  1.0000
  C   C45       1.0  0.6692424731338136  0.14523039053857192  0.14503943261369995  1.0000
  C   C46       1.0  0.6225314104606169  0.06920508762244995  0.06901324488290324  1.0000
  C   C47       1.0  0.33065285788415366  0.47537530576597936  0.4755621690318463  1.0000
  C   C48       1.0  0.37743510367567973  0.4460447586384433  0.44623419390952535  1.0000
  C   C49       1.0  0.9998802172172175  0.5240870239752342  0.8550448961957144  1.0000
  C   C50       1.0  0.9998032497827366  0.5533313687795101  0.9310651540151085  1.0000
  C   C51       1.0  0.85376876374103  0.3766556792652764  0.47745049780316157  1.0000
  C   C52       1.0  0.5228272570501248  0.6236845670416005  0.1463528094739529  1.0000
  C   C53       1.0  0.710754980968794  0.9299379598798155  0.43460568906126423  1.0000
  C   C54       1.0  0.7798480380454792  0.9274784093881934  0.47127898055863693  1.0000
  C   C55       1.0  0.49461784439379375  0.27543089436979784  0.5647060677173811  1.0000
  C   C56       1.0  0.4556288943396254  0.30784664939398004  0.5279403296542854  1.0000
  C   C57       1.0  0.2889028274282097  0.7244265763780859  0.21892158852148924  1.0000
  C   C58       1.0  0.21969656349471484  0.6919171108576379  0.14748744735163657  1.0000
  C   C59       1.0  0.5047312517534975  0.07000268938475783  0.7807711922184738  1.0000
  C   C60       1.0  0.5439102115285976  0.07246927281527606  0.8523106091305407  1.0000
  C   C61       1.0  0.7239521683563339  0.5048826963625929  0.43484136632645226  1.0000
  C   C62       1.0  0.6915126377292394  0.5440038989076044  0.4715087903155393  1.0000
  C   C63       1.0  0.0699913257061055  0.2890518592972525  0.5645890108853351  1.0000
  C   C64       1.0  0.0722160587568439  0.21988548132655691  0.5278029317397711  1.0000
  C   C65       1.0  0.92990711594738  0.4946133014061618  0.21895128431647481  1.0000
  C   C66       1.0  0.9276861768807834  0.45565453018845387  0.14755342341359773  1.0000
  C   C67       1.0  0.2760074262919758  0.7105757835495013  0.7806072877477348  1.0000
  C   C68       1.0  0.30843164138896384  0.7796635217908872  0.8521505323427407  1.0000
  C   C69       1.0  0.8549627582684136  0.9997953820631551  0.5240937088224554  1.0000
  C   C70       1.0  0.9310641663507014  0.999865301099  0.5534314034143719  1.0000
  C   C71       1.0  0.475873938224332  0.33065573036356716  0.47571118827806913  1.0000
  C   C72       1.0  0.44653101506521853  0.3773619575426538  0.44635911013870094  1.0000
  C   C73       1.0  0.14469365074073437  0.6691365824786715  0.1449344923390683  1.0000
  C   C74       1.0  0.06860097915120636  0.6222784603067737  0.06881974977712711  1.0000
  C   C75       1.0  0.5243543737243784  0.00017732603643589532  0.8551639587228905  1.0000
  C   C76       1.0  0.5537150606200425  0.0002477984347847079  0.9312603592287516  1.0000
  C   C77       1.0  0.5229270993047875  0.14639545665014722  0.6238092180685797  1.0000
  C   C78       1.0  0.10083623682832869  0.47714104550203734  0.6235719146240443  1.0000
  C   C79       1.0  0.7808455888203554  0.7107155519252474  0.27602607361153986  1.0000
  C   C80       1.0  0.8523883872660675  0.7798114587163382  0.30842343779672626  1.0000
  C   C81       1.0  0.21915455272467455  0.4947250406297031  0.9299713879471911  1.0000
  C   C82       1.0  0.14775776338080948  0.45574289348431307  0.9277422694301977  1.0000
  C   C83       1.0  0.5645434034108732  0.2889010579895341  0.07004286298689512  1.0000
  C   C84       1.0  0.5277828743445027  0.21970178587081787  0.07225270681005465  1.0000
  C   C85       1.0  0.43476877843028927  0.5047707267604196  0.724058146722662  1.0000
  C   C86       1.0  0.4714116079336532  0.5438827408679784  0.6916134301546393  1.0000
  C   C87       1.0  0.21905527983448533  0.723967341627059  0.2891549545012354  1.0000
  C   C88       1.0  0.14748270565898028  0.6915026789423635  0.22003032050952237  1.0000
  C   C89       1.0  0.780954593065566  0.07000097366952938  0.5053836175999038  1.0000
  C   C90       1.0  0.852360370068311  0.07223094814224852  0.5443516909646746  1.0000
  C   C91       1.0  0.43530560602579293  0.9299469003570879  0.7109762806502504  1.0000
  C   C92       1.0  0.472048059761505  0.9277141868219587  0.7801520445392001  1.0000
  C   C93       1.0  0.5653380011721366  0.2759018936696691  0.4953244713956906  1.0000
  C   C94       1.0  0.5286346775748  0.30827299862055213  0.4561509721608985  1.0000
  C   C95       1.0  0.855179841420437  0.8549366880943978  0.3307380463762399  1.0000
  C   C96       1.0  0.9312065559615235  0.9310457234491879  0.3774971503426839  1.0000
  C   C97       1.0  0.1451938015145089  0.4760059670564161  0.00020680637042145295  1.0000
  C   C98       1.0  0.06916892049623863  0.44669811828140377  0.0002130187910723769  1.0000
  C   C99       1.0  0.47552796082199916  0.14469313413012946  0.9997972097466957  1.0000
  C   C100      1.0  0.4462258325716702  0.06858657723309128  0.9998026641849975  1.0000
  C   C101      1.0  0.5241203112301277  0.5242965903606489  0.6691714658544043  1.0000
  C   C102      1.0  0.5533793665978165  0.5536216494279884  0.6223867836636857  1.0000
  C   C103      1.0  0.3765389352650954  0.5229900823031456  0.8992709924027694  1.0000
  C   C104      1.0  0.6236614927412987  0.10080782937630056  0.4773315814883432  1.0000
  C   C105      1.0  0.9299070403154771  0.21918471688641725  0.49526502419298163  1.0000
  C   C106      1.0  0.9274433006427074  0.14764753460514884  0.4560949112619497  1.0000
  C   C107      1.0  0.27552807046538413  0.7808111282110559  0.7107604853594865  1.0000
  C   C108      1.0  0.30798149099529576  0.8522150520028262  0.7799245320154355  1.0000
  C   C109      1.0  0.7244103818310987  0.43550694017953606  0.5055252822572099  1.0000
  C   C110      1.0  0.6919181062392495  0.4722130132215199  0.5444505891987532  1.0000
  C   C111      1.0  0.07000175015786433  0.565268968519902  0.28923469486165493  1.0000
  C   C112      1.0  0.07246393208269807  0.5285664623217556  0.22016197100045798  1.0000
  C   C113      1.0  0.5048635358252936  0.780978441772497  0.07007989757731528  1.0000
  C   C114      1.0  0.5440508951831686  0.8525339064723381  0.07253607526452296  1.0000
  C   C115      1.0  0.28908891512294577  0.21914232767079508  0.7245285886089405  1.0000
  C   C116      1.0  0.21991443904735747  0.14772147980319508  0.6920464823156819  1.0000
  C   C117      1.0  0.4944952441604756  0.5646227339622101  0.27553585078523923  1.0000
  C   C118      1.0  0.4555190531955591  0.5278603693189298  0.30795984190155673  1.0000
  C   C119      1.0  0.7106186620494056  0.43454155977063647  0.9300052458591708  1.0000
  C   C120      1.0  0.7796931693023764  0.47119786491980886  0.9275339251757232  1.0000
  C   C121      1.0  0.9997637057440799  0.1448360427098052  0.4755907183680748  1.0000
  C   C122      1.0  0.9998417334675977  0.06880231742304942  0.44630208513898134  1.0000
  C   C123      1.0  0.33083014780403625  0.8548095274419012  0.8549821529347313  1.0000
  C   C124      1.0  0.3775417377821667  0.930830531604137  0.931010634322824  1.0000
  C   C125      1.0  0.6691457920527453  0.5244750960565269  0.5242668535682781  1.0000
  C   C126      1.0  0.6223172406737945  0.5537520986480545  0.553554307713938  1.0000
  C   C127      1.0  0.00016780204154551824  0.4758516778071994  0.14502714470358313  1.0000
  C   C128      1.0  0.0002289776938511229  0.4465704272269235  0.06900195754325011  1.0000
  C   C129      1.0  0.14632343126086753  0.6234092422251577  0.5225782264299852  1.0000
  C   C130      1.0  0.47722141302396187  0.3763977556834278  0.8537537492484404  1.0000
  C   C131      1.0  0.28926543315464665  0.07011309252648348  0.5653875226677414  1.0000
  C   C132      1.0  0.22018653034879773  0.0725687011139797  0.5286582167803644  1.0000
  C   C133      1.0  0.505253381059937  0.7245421511088779  0.4352675779416657  1.0000
  C   C134      1.0  0.5441806417294613  0.69204902265448  0.4719596067266991  1.0000
  C   C135      1.0  0.711105333460523  0.27560679091245543  0.7811872548920817  1.0000
  C   C136      1.0  0.7803101399145048  0.30806653911224663  0.8526031240307432  1.0000
  C   C137      1.0  0.49529214817225403  0.9300422989761685  0.2192753328879674  1.0000
  C   C138      1.0  0.4561374089943371  0.9275697742064253  0.14772207068258325  1.0000
  C   C139      1.0  0.27598295124646205  0.49507461568624234  0.5650988974945222  1.0000
  C   C140      1.0  0.30834539169065767  0.45589200755330234  0.528369017269334  1.0000
  C   C141      1.0  0.9300948413770411  0.7109895412377226  0.4353732218097192  1.0000
  C   C142      1.0  0.9278636260326036  0.7801621060263884  0.4721152710767172  1.0000
  C   C143      1.0  0.07015964444364181  0.50540024439929  0.7811158291181571  1.0000
  C   C144      1.0  0.07236939470996613  0.5443206801017269  0.852521840302842  1.0000
  C   C145      1.0  0.7240804859593483  0.28946253508907216  0.21940651693711993  1.0000
  C   C146      1.0  0.6916590555801108  0.22037878798045096  0.14786979460108535  1.0000
  C   C147      1.0  0.1450801135650366  0.00024374472777578793  0.4758180511558407  1.0000
  C   C148      1.0  0.06898129189808337  0.00016796719308593647  0.44645260068852377  1.0000
  C   C149      1.0  0.5239144613665019  0.6692019143726354  0.5241607342857434  1.0000
  C   C150      1.0  0.5532274489087711  0.6224476547779644  0.5534518885503559  1.0000
  C   C151      1.0  0.8553085759498131  0.33081544472431546  0.8551375079240272  1.0000
  C   C152      1.0  0.9314140112681882  0.3776308316916469  0.9312482370083118  1.0000
  C   C153      1.0  0.475698404190581  0.9998566232022341  0.14486718398875795  1.0000
  C   C154      1.0  0.4463533910471185  0.9997831241278661  0.0687640474374477  1.0000
  C   C155      1.0  0.47706925913680465  0.8537286605319495  0.37631819947726797  1.0000
  C   C156      1.0  0.89925362033253  0.5229155048691609  0.3764911579290099  1.0000
  N   N1        1.0  0.28991683811981517  0.28989539524594227  0.7377738858232519  1.0000
  N   N2        1.0  0.7101120775869206  0.4477559961905015  0.00018393480011973082  1.0000
  N   N3        1.0  0.4479018434884237  0.7103122760339814  0.9999286249450848  1.0000
  N   N4        1.0  0.5519771839108286  0.5521919519591378  0.262247307600937  1.0000
  N   N5        1.0  0.3728367789855156  0.47332053238613997  0.8460111899088291  1.0000
  N   N6        1.0  0.6273890527789519  0.1540783350440834  0.5270273516563861  1.0000
  N   N7        1.0  0.07263340562442973  0.0001883602820526816  0.6009995908981125  1.0000
  N   N8        1.0  0.9272918828677559  0.5280921614116849  0.9273638207381794  1.0000
  N   N9        1.0  0.6011514357370656  0.00030347131052375627  0.07267930537446426  1.0000
  N   N10       1.0  0.39881842894705244  0.47114726876109364  0.3987826504386689  1.0000
  N   N11       1.0  2.1557898754954788e-05  0.7101731086064832  0.44776283559519925  1.0000
  N   N12       1.0  0.7378127649169741  0.2900016433983055  0.29010786402384525  1.0000
  N   N13       1.0  0.26226481221349474  0.5520179005510643  0.5518837146839176  1.0000
  N   N14       1.0  0.0002446989813406891  0.44791986088881697  0.7103421539232287  1.0000
  N   N15       1.0  0.10049566794462814  0.6272457217457016  0.47303003559600404  1.0000
  N   N16       1.0  0.5267813164245396  0.37259199746164723  0.899607335900825  1.0000
  N   N17       1.0  0.9276142603871094  0.9274580692946587  0.5284191170952112  1.0000
  N   N18       1.0  0.6010024075879131  0.07275497349482411  8.526800076680018e-05  1.0000
  N   N19       1.0  0.39899195491823747  0.39873956888806117  0.4713763583434983  1.0000
  N   N20       1.0  0.07233747493534537  0.6008906787840332  0.999995259754087  1.0000
  N   N21       1.0  0.7102162566362722  9.515849958318324e-05  0.4478518602651462  1.0000
  N   N22       1.0  0.552152239972969  0.26220618721293937  0.5523125995399525  1.0000
  N   N23       1.0  0.28973114891585533  0.7377154281431402  0.28967515590168347  1.0000
  N   N24       1.0  0.44773744181586744  0.999848408449445  0.7101161117649893  1.0000
  N   N25       1.0  0.5267616913312027  0.8995943503273552  0.3726537453243636  1.0000
  N   N26       1.0  0.8459950405717648  0.4733896517273166  0.3729342745377621  1.0000
  N   N27       1.0  0.9998672516020263  0.07243870415561557  0.6008581894526869  1.0000
  N   N28       1.0  0.4716005264904338  0.3988917763836284  0.39896400370245283  1.0000
  N   N29       1.0  0.9997458220996618  0.6007231432493042  0.07240821796455785  1.0000
  N   N30       1.0  0.5287496128669459  0.9277301908868766  0.9276751625341646  1.0000
  N   N31       1.0  0.7101482393636332  0.7101737769934431  0.26227474837395454  1.0000
  N   N32       1.0  0.2899015135911894  0.5522785792188074  0.9999005405908719  1.0000
  N   N33       1.0  0.5521359045136692  0.2897422343169752  0.00013244719407608815  1.0000
  N   N34       1.0  0.4479835828347588  0.447815739236006  0.7377779843389405  1.0000
  N   N35       1.0  0.6271990084457855  0.526743478177572  0.15409701103669  1.0000
  N   N36       1.0  0.3725418267272999  0.8459459179979517  0.4730393372985943  1.0000
  N   N37       1.0  0.9274231432808192  0.9998547921041167  0.3988959452858508  1.0000
  N   N38       1.0  0.07273799598863917  0.47179582444852025  0.07268842064928549  1.0000
  N   N39       1.0  0.39892417577578215  0.9997315949118357  0.9273470962465211  1.0000
  N   N40       1.0  0.6009369626907598  0.5286405708440469  0.601004433586013  1.0000
  N   N41       1.0  6.745791918647898e-05  0.2898705145473527  0.5522248432265613  1.0000
  N   N42       1.0  0.2622681857344702  0.7100357459477138  0.7099108759229724  1.0000
  N   N43       1.0  0.7377103402698141  0.4479595372973364  0.44807618063637716  1.0000
  N   N44       1.0  0.9998279223523168  0.5520995461382654  0.28971619326173226  1.0000
  N   N45       1.0  0.8996137729422599  0.3728322232228507  0.5269950167761478  1.0000
  N   N46       1.0  0.47326813680101737  0.6274868858512261  0.10049005880129865  1.0000
  N   N47       1.0  0.07243414144190288  0.07257753951440545  0.4714581258035793  1.0000
  N   N48       1.0  0.3990719346300437  0.9272770136560878  0.9999410491259441  1.0000
  N   N49       1.0  0.6007529880676897  0.6010649680152298  0.5284222076016079  1.0000
  N   N50       1.0  0.9276950322192548  0.399010190232822  7.988662060390544e-05  1.0000
  N   N51       1.0  0.28979378177207593  0.9999593921922953  0.5521718685189116  1.0000
  N   N52       1.0  0.44774841967811335  0.7378065474332729  0.44769978627689977  1.0000
  N   N53       1.0  0.7102674846145902  0.262342193769463  0.7104337364313977  1.0000
  N   N54       1.0  0.5522647408607995  0.00020492160054896697  0.28993442281803544  1.0000
  N   N55       1.0  0.47322810372710217  0.1004936447955416  0.6274350913711402  1.0000
  N   N56       1.0  0.15408346152727848  0.5266790703198794  0.6271250264114059  1.0000
  N   N57       1.0  0.00017053810593369438  0.9275862922849497  0.3990225461916382  1.0000
  N   N58       1.0  0.5281483936362503  0.6008883850504247  0.6008254088433489  1.0000
  N   N59       1.0  0.00026379163257667527  0.3991699136865422  0.9276473961958019  1.0000
  N   N60       1.0  0.4713094008213616  0.07230094548128119  0.072354035057991  1.0000
