data_image0
_chemical_formula_structural       Ga2As2H8C10N2O8
_chemical_formula_sum              "Ga2 As2 H8 C10 N2 O8"
_cell_length_a       5.127975696872289
_cell_length_b       5.961690022747394
_cell_length_c       11.637671515800406
_cell_angle_alpha    79.7745658809872
_cell_angle_beta     87.99458939589233
_cell_angle_gamma    88.92149588247037

_space_group_name_H-M_alt    "P 1"
_space_group_IT_number       1

loop_
  _space_group_symop_operation_xyz
  'x, y, z'

loop_
  _atom_site_type_symbol
  _atom_site_label
  _atom_site_symmetry_multiplicity
  _atom_site_fract_x
  _atom_site_fract_y
  _atom_site_fract_z
  _atom_site_occupancy
  Ga  Ga1       1.0  0.6653108325837565  0.791808759515007  0.8905196673482649  1.0000
  Ga  Ga2       1.0  0.33468681113384235  0.2081866729142234  0.10948149923098069  1.0000
  As  As1       1.0  0.141677616273256  0.7239718176490938  0.07660131871001138  1.0000
  As  As2       1.0  0.858317940768771  0.2760304301845835  0.9234001097131141  1.0000
  H   H1        1.0  0.29810841390521864  0.5514146783650063  0.7653937830388813  1.0000
  H   H2        1.0  0.7018772824412167  0.44859436424902555  0.23460628358090926  1.0000
  H   H3        1.0  0.269163804843167  0.31072944092667143  0.5211826786294651  1.0000
  H   H4        1.0  0.7308512500016492  0.6892779573417441  0.4788137494337406  1.0000
  H   H5        1.0  0.9749301192694233  0.6223985342784529  0.6106751814186637  1.0000
  H   H6        1.0  0.025053413410852  0.37761562956848854  0.3893313178295443  1.0000
  H   H7        1.0  0.5743159135037814  0.20760043023654617  0.6843672719690942  1.0000
  H   H8        1.0  0.42570125701973904  0.7923950448293127  0.3156327976141852  1.0000
  C   C1        1.0  0.2873526926928421  0.7153856246771751  0.7068842236623497  1.0000
  C   C2        1.0  0.7126389625739123  0.28461831593958203  0.29311537826663425  1.0000
  C   C3        1.0  0.10768872334698189  0.7583089410508991  0.6189458194048854  1.0000
  C   C4        1.0  0.8923027816302779  0.24170352247782026  0.3810530059330759  1.0000
  C   C5        1.0  0.09395008927458552  0.9741551101355199  0.5475992128465634  1.0000
  C   C6        1.0  0.9060571303796368  0.025852273457871895  0.45239902897876044  1.0000
  C   C7        1.0  0.26627420856168277  0.1387942016049593  0.5719246295747453  1.0000
  C   C8        1.0  0.7337310446485718  0.8612131790633055  0.42807449536728376  1.0000
  C   C9        1.0  0.43979944203021404  0.08388176999562089  0.6619578204802251  1.0000
  C   C10       1.0  0.5602098484795519  0.9161170980727248  0.33804289287643025  1.0000
  N   N1        1.0  0.4526477778310039  0.8748659214886698  0.7276200125140093  1.0000
  N   N2        1.0  0.5473458739376156  0.12513631747081885  0.27237886161648106  1.0000
  O   O1        1.0  0.8229867937416913  0.6956024233459032  0.042934735304641  1.0000
  O   O2        1.0  0.17701310276098783  0.30437937088751  0.95706421264655  1.0000
  O   O3        1.0  0.3216441031107706  0.8011344585432594  0.9502407858703421  1.0000
  O   O4        1.0  0.6783460819310392  0.1988422043428244  0.049761324914285886  1.0000
  O   O5        1.0  0.16075497704613892  0.9309307925131589  0.1625318676200109  1.0000
  O   O6        1.0  0.8392525727175979  0.0690561390660562  0.8374699567284482  1.0000
  O   O7        1.0  0.2422825111557785  0.4790119146541373  0.1676190783077942  1.0000
  O   O8        1.0  0.7577151773849737  0.5209801100975681  0.8323832582602009  1.0000
