data_image0
_chemical_formula_structural       Er2H40C36N4O22
_chemical_formula_sum              "Er2 H40 C36 N4 O22"
_cell_length_a       10.647819841088058
_cell_length_b       10.796862980011039
_cell_length_c       12.8978
_cell_angle_alpha    103.3452065875356
_cell_angle_beta     110.94499239664533
_cell_angle_gamma    96.82616826298984

_space_group_name_H-M_alt    "P 1"
_space_group_IT_number       1

loop_
  _space_group_symop_operation_xyz
  'x, y, z'

loop_
  _atom_site_type_symbol
  _atom_site_label
  _atom_site_symmetry_multiplicity
  _atom_site_fract_x
  _atom_site_fract_y
  _atom_site_fract_z
  _atom_site_occupancy
  Er  Er1       1.0  0.10420868134396241  0.5439758286651681  0.6842301441040846  1.0000
  Er  Er2       1.0  0.8957930176698244  0.4560220585154369  0.3157666151552333  1.0000
  H   H1        1.0  0.9337628229504987  0.1457605243558717  0.30252015804585136  1.0000
  H   H2        1.0  0.06623453360273866  0.8542402913306405  0.6974766608725816  1.0000
  H   H3        1.0  0.21776247906596077  0.4002271878652977  0.2748783325826096  1.0000
  H   H4        1.0  0.7822465332037752  0.5997804610016573  0.7251224710513284  1.0000
  H   H5        1.0  0.17909818357222926  0.8953984894729814  0.9332015565409293  1.0000
  H   H6        1.0  0.8208922252556549  0.1045984215389879  0.0667986601716777  1.0000
  H   H7        1.0  0.002625943616415299  0.1638782142147974  0.6710676879169597  1.0000
  H   H8        1.0  0.9973766694882613  0.8361235776403504  0.3289285449080666  1.0000
  H   H9        1.0  0.4228717133933416  0.5695416852064028  0.6606073052091546  1.0000
  H   H10       1.0  0.5771367048230759  0.4304591304801093  0.3393935534617967  1.0000
  H   H11       1.0  0.5571819625994294  0.8223225054838039  0.8749361344039455  1.0000
  H   H12       1.0  0.4428104574399399  0.1776744055281654  0.12505847323254926  1.0000
  H   H13       1.0  0.4469262901009757  0.5163385422812325  0.8305154232127023  1.0000
  H   H14       1.0  0.5530643472496309  0.4836593448993725  0.1694850495543392  1.0000
  H   H15       1.0  0.6351229310190193  0.4534576635122392  0.8969202066927264  1.0000
  H   H16       1.0  0.3648720942851541  0.5465460806801801  0.10308889530728746  1.0000
  H   H17       1.0  0.6375473166319381  0.2860964796090428  0.8464826341107566  1.0000
  H   H18       1.0  0.36245241666338057  0.7139101930892764  0.15352764779072456  1.0000
  H   H19       1.0  0.6172891381051144  0.344545552776772  0.9791791160398801  1.0000
  H   H20       1.0  0.3827068928048051  0.6554581914156401  0.020828732074129226  1.0000
  H   H21       1.0  0.25960525311947447  0.182155019561165  0.7382951226666632  1.0000
  H   H22       1.0  0.7403928805167865  0.8178448199567114  0.2617102655496453  1.0000
  H   H23       1.0  0.3762804779131558  0.1579743463124927  0.8684149258907823  1.0000
  H   H24       1.0  0.6237184328061218  0.8420245170367479  0.1315905030371382  1.0000
  H   H25       1.0  0.4116722512896517  0.1252912442560969  0.740897961898355  1.0000
  H   H26       1.0  0.5883273449977935  0.8747105475990509  0.259107459866854  1.0000
  H   H27       1.0  0.8728088666331573  0.35684527757324247  0.7460847049156809  1.0000
  H   H28       1.0  0.12719438654667672  0.6431506572700982  0.2539167877229929  1.0000
  H   H29       1.0  0.7965212013902914  0.1838428151304612  0.7811260738639872  1.0000
  H   H30       1.0  0.20347848641200986  0.8161550720501438  0.21887551914541348  1.0000
  H   H31       1.0  0.8544713437067771  0.20205226484104344  0.9336509249059545  1.0000
  H   H32       1.0  0.14553090386731074  0.7979436700022972  0.0663510462927022  1.0000
  H   H33       1.0  0.9223607187532751  0.09926268378204378  0.847129530266521  1.0000
  H   H34       1.0  0.07763773492055748  0.9007342272299325  0.15287073459636955  1.0000
  H   H35       1.0  0.20176305674210232  0.3912054373439489  0.976217970134833  1.0000
  H   H36       1.0  0.7982384137489618  0.6087914736680275  0.023780083722094496  1.0000
  H   H37       1.0  0.15750387841239902  0.22419079330605027  0.973736044078997  1.0000
  H   H38       1.0  0.8425008374186194  0.7758070938745546  0.026266257434606644  1.0000
  H   H39       1.0  0.11339122348534401  0.3494556810090117  0.06269599131196199  1.0000
  H   H40       1.0  0.88661294378538  0.6505441585088647  0.9373049748924202  1.0000
  C   C1        1.0  0.9744448817316854  0.0305023413266099  0.39407626068849316  1.0000
  C   C2        1.0  0.025559194024182802  0.9695014028658093  0.6059215563374849  1.0000
  C   C3        1.0  0.974970269921876  0.1231173167067539  0.4924919613572029  1.0000
  C   C4        1.0  0.025036594128501097  0.8768854513170297  0.5075049392604144  1.0000
  C   C5        1.0  0.0005343883751507008  0.0909437746776405  0.5961330981865345  1.0000
  C   C6        1.0  0.9994696873807175  0.9090599695147787  0.40386471883944364  1.0000
  C   C7        1.0  0.9540674500200623  0.2559143215945952  0.489459804221596  1.0000
  C   C8        1.0  0.045934934561891835  0.744086494091917  0.510539273853091  1.0000
  C   C9        1.0  0.40221058551672684  0.44880133912499787  0.38361898891344026  1.0000
  C   C10       1.0  0.5977992038360257  0.5512053335733214  0.6163810801060804  1.0000
  C   C11       1.0  0.35912180107050773  0.48573663175388765  0.4765246109504914  1.0000
  C   C12       1.0  0.6408885368425459  0.5142680886071602  0.5234744674001632  1.0000
  C   C13       1.0  0.4573738801119164  0.5373154300710183  0.5909887741115583  1.0000
  C   C14       1.0  0.5426364578011373  0.4626892902900295  0.40901185489114766  1.0000
  C   C15       1.0  0.2107961735831125  0.46961618292144175  0.4541995244676967  1.0000
  C   C16       1.0  0.7892121531184558  0.5303885374396131  0.5458036123070185  1.0000
  C   C17       1.0  0.3642098473326243  0.9887407104859348  0.9963950981197554  1.0000
  C   C18       1.0  0.6357800129349586  0.0112581528633058  0.003599131327483512  1.0000
  C   C19       1.0  0.39901250237853253  0.8880332971246219  0.9262641935550349  1.0000
  C   C20       1.0  0.6009778149344954  0.1119675185618902  0.07372822202300712  1.0000
  C   C21       1.0  0.5332015036190683  0.9005848734288263  0.930053395432523  1.0000
  C   C22       1.0  0.466787579565498  0.09941496608904998  0.06993924265105986  1.0000
  C   C23       1.0  0.29477786210831886  0.7671270023753323  0.8501272819065733  1.0000
  C   C24       1.0  0.7052143294083352  0.2328689324680084  0.14986706967548713  1.0000
  C   C25       1.0  0.37824403755009683  0.4187753680920991  0.7999402567006583  1.0000
  C   C26       1.0  0.6217508507462101  0.5812234952571416  0.20006088385897408  1.0000
  C   C27       1.0  0.5912501195260946  0.3538503922021619  0.8912475718037312  1.0000
  C   C28       1.0  0.40874792259531034  0.6461533519902503  0.10876164516838567  1.0000
  C   C29       1.0  0.36793833949433014  0.1894840936700461  0.7915353793178779  1.0000
  C   C30       1.0  0.6320595656192015  0.8105147696791946  0.20846975284398883  1.0000
  C   C31       1.0  0.9751037434746125  0.3829050754436025  0.8186697910493165  1.0000
  C   C32       1.0  0.024896035842537904  0.6170889070624668  0.18132952385632  1.0000
  C   C33       1.0  0.8856167991389086  0.1902171963146628  0.860075157286495  1.0000
  C   C34       1.0  0.1143826601406701  0.8097797146973065  0.1399269549944862  1.0000
  C   C35       1.0  0.12496008676786373  0.3175281334758324  0.9799615459737011  1.0000
  C   C36       1.0  0.8750413837232005  0.682468777536144  0.020038058535277417  1.0000
  N   N1        1.0  0.4428690153998716  0.3241465568186896  0.8261258544360359  1.0000
  N   N2        1.0  0.5571283411533656  0.6758542588678225  0.17388104372071925  1.0000
  N   N3        1.0  0.9946147964236403  0.3005769651352992  0.8828888415394399  1.0000
  N   N4        1.0  0.005386674067423781  0.6994199458766772  0.11711231362158257  1.0000
  O   O1        1.0  0.9709517038798837  0.3395973539677826  0.5830969596888025  1.0000
  O   O2        1.0  0.0290477553996951  0.6603995570441938  0.4168942980278345  1.0000
  O   O3        1.0  0.921233437161  0.2792223000839087  0.390797248534561  1.0000
  O   O4        1.0  0.07876423942980891  0.7207755870967034  0.609195222356476  1.0000
  O   O5        1.0  0.9503355677930188  0.0549446277693662  0.2908242064998063  1.0000
  O   O6        1.0  0.04966402849442631  0.9450571640857746  0.7091726866791319  1.0000
  O   O7        1.0  0.17334755392176504  0.4918464712381052  0.538136306805562  1.0000
  O   O8        1.0  0.8266651152403526  0.5081553206170426  0.4618659949840092  1.0000
  O   O9        1.0  0.12280429058894535  0.4328614814899581  0.34719915420946984  1.0000
  O   O10       1.0  0.8772010192953843  0.5671432388710897  0.6528015416150622  1.0000
  O   O11       1.0  0.31066746631690734  0.4003091860306043  0.27080848018694326  1.0000
  O   O12       1.0  0.6893402203095036  0.5997013913422506  0.7291901721001465  1.0000
  O   O13       1.0  0.1711021948890377  0.7527099678103255  0.8469395703080024  1.0000
  O   O14       1.0  0.8288902251503388  0.24728694320164377  0.15305736330656566  1.0000
  O   O15       1.0  0.32691335932641863  0.6763970086286832  0.7881979927961282  1.0000
  O   O16       1.0  0.6730830831359285  0.3235999023832932  0.21180090320864756  1.0000
  O   O17       1.0  0.23472577441025066  0.9809860268523493  0.993184498114438  1.0000
  O   O18       1.0  0.7652671941894199  0.0190089318223556  0.006814546135366595  1.0000
  O   O19       1.0  0.2507884125798014  0.4015752767497318  0.7459738624850445  1.0000
  O   O20       1.0  0.7492063387086392  0.5984187057563375  0.254023193264345  1.0000
  O   O21       1.0  0.0633526286551955  0.48201059607546876  0.8356765975718259  1.0000
  O   O22       1.0  0.9366530927815688  0.5179872911051362  0.16432367472974357  1.0000
