data_image0
_chemical_formula_structural       Zn4H58C86N16O2
_chemical_formula_sum              "Zn4 H58 C86 N16 O2"
_cell_length_a       15.001349981554451
_cell_length_b       14.949512195640375
_cell_length_c       15.094462336092143
_cell_angle_alpha    108.74215519297887
_cell_angle_beta     110.3884551357092
_cell_angle_gamma    108.30951910082848

_space_group_name_H-M_alt    "P 1"
_space_group_IT_number       1

loop_
  _space_group_symop_operation_xyz
  'x, y, z'

loop_
  _atom_site_type_symbol
  _atom_site_label
  _atom_site_symmetry_multiplicity
  _atom_site_fract_x
  _atom_site_fract_y
  _atom_site_fract_z
  _atom_site_occupancy
  Zn  Zn1       1.0  0.1347677986332343  0.6253606932488367  0.9993306158040911  1.0000
  Zn  Zn2       1.0  0.8793921233180126  0.3710414791055073  0.0019400285614494762  1.0000
  Zn  Zn3       1.0  0.8681751081494368  0.49899581712745805  0.8646147401846705  1.0000
  Zn  Zn4       1.0  0.15002687872722478  0.5033108907376018  0.1445993542081325  1.0000
  H   H1        1.0  0.1758920023134607  0.8482361202516914  0.9732064657184057  1.0000
  H   H2        1.0  0.4765739555627845  0.17817599917990626  0.9678138951896857  1.0000
  H   H3        1.0  0.48043888117469885  0.9183103460159004  0.3292433192699633  1.0000
  H   H4        1.0  0.4312748361757954  0.17938794971360755  0.7935852057963262  1.0000
  H   H5        1.0  0.28384245753449017  0.0714904404333367  0.26813106889040483  1.0000
  H   H6        1.0  0.4055570415583815  0.8658674049008469  0.6526422548191989  1.0000
  H   H7        1.0  0.2990430953414743  0.0565765887662124  0.10572029529995318  1.0000
  H   H8        1.0  0.44926866709436547  0.863628220480706  0.8258740769435636  1.0000
  H   H9        1.0  0.5251949947360828  0.15384911900959253  0.5035681452013209  1.0000
  H   H10       1.0  0.24877784596081648  0.8778391237072115  0.5128980860930812  1.0000
  H   H11       1.0  0.7572053758145002  0.7420402937743944  0.6104512245507722  1.0000
  H   H12       1.0  0.8498259210317515  0.16038043309605143  0.8374329164956296  1.0000
  H   H13       1.0  0.22417574726203776  0.18630445505520044  0.1316969979033686  1.0000
  H   H14       1.0  0.8024205364499366  0.7949000213975455  0.29837838288469964  1.0000
  H   H15       1.0  0.46852320532099867  0.4931656787874915  0.9714203564751573  1.0000
  H   H16       1.0  0.8294652851453677  0.27563615617791026  0.16162789830947594  1.0000
  H   H17       1.0  0.1673439790325446  0.5066541426722183  0.8014173857931299  1.0000
  H   H18       1.0  0.8242396843101218  0.8848403746567685  0.938483636327881  1.0000
  H   H19       1.0  0.25898724812608975  0.19036378779573948  0.8620076703211982  1.0000
  H   H20       1.0  0.43535538392079326  0.44709907535359156  0.4262831189619477  1.0000
  H   H21       1.0  0.5314437433369292  0.3575957604437434  0.4408901964728857  1.0000
  H   H22       1.0  0.29657873892060144  0.2557882685485851  0.3412941558966908  1.0000
  H   H23       1.0  0.5855770038361001  0.5903313371703334  0.5587214170733718  1.0000
  H   H24       1.0  0.7123811396066059  0.516806252632442  0.5815290555130447  1.0000
  H   H25       1.0  0.13533483689753473  0.21229084891041347  0.36592214377342475  1.0000
  H   H26       1.0  0.8801054885161577  0.5076085280998869  0.6028722079069412  1.0000
  H   H27       1.0  0.2634399868360404  0.5480042302405367  0.5786183234773861  1.0000
  H   H28       1.0  0.6884008823390174  0.1791072237418945  0.3459873817158794  1.0000
  H   H29       1.0  0.4206977054914701  0.5930665802901204  0.5483999552369385  1.0000
  H   H30       1.0  0.5202615672369078  0.18891224803399348  0.32215245951667276  1.0000
  H   H31       1.0  0.1465885974938033  0.3788657133538252  0.6346571466053634  1.0000
  H   H32       1.0  0.8351074047217395  0.31890437092414464  0.3213429430330238  1.0000
  H   H33       1.0  0.8497711235638832  0.012619069423692501  0.7925706562146861  1.0000
  H   H34       1.0  0.4145854050186628  0.3341315900814976  0.25874134850536745  1.0000
  H   H35       1.0  0.17845544431222746  0.9772444378870234  0.9330486317765365  1.0000
  H   H36       1.0  0.6356558434786874  0.6535751222401556  0.9757852543521467  1.0000
  H   H37       1.0  0.6373359419793231  0.6336692758273871  0.29444046522903733  1.0000
  H   H38       1.0  0.6436186571529774  0.8138802658603836  0.14766373571558236  1.0000
  H   H39       1.0  0.6311622112602179  0.47445367416398215  0.12305175906711707  1.0000
  H   H40       1.0  0.8263291231351815  0.6791334682005258  0.9960398559953706  1.0000
  H   H41       1.0  0.4157279024611142  0.5553856594258875  0.22991431086681058  1.0000
  H   H42       1.0  0.8276025545767067  0.5022268820262  0.17422800776241593  1.0000
  H   H43       1.0  0.37854128796806197  0.7004590893448964  0.02263261664785434  1.0000
  H   H44       1.0  0.16877113856741502  0.8447140458420893  0.16400603675041495  1.0000
  H   H45       1.0  0.6517228629973816  0.7338195125984088  0.887067214503077  1.0000
  H   H46       1.0  0.6413015655695133  0.14207836442542293  0.8227849882258556  1.0000
  H   H47       1.0  0.18016842944914657  0.4514727782533258  0.3443546030374734  1.0000
  H   H48       1.0  0.8190577923287066  0.31484552675572536  0.6486868315615766  1.0000
  H   H49       1.0  0.8260426822289373  0.665223830137883  0.7746920952999476  1.0000
  H   H50       1.0  0.20121117269900424  0.3392751301277742  0.010762654388095432  1.0000
  H   H51       1.0  0.5355064235478365  0.5822259329545646  0.6979174694778935  1.0000
  H   H52       1.0  0.5262656144261939  0.41205784910344084  0.18709069903658823  1.0000
  H   H53       1.0  0.27337343304466094  0.7587296458010402  0.45250590021154863  1.0000
  H   H54       1.0  0.5365289841687398  0.2955851631319675  0.5911545850232829  1.0000
  H   H55       1.0  0.44769678485313585  0.3407950671823627  0.9886476029585937  1.0000
  H   H56       1.0  0.4017335351893436  0.9692389332601652  0.05255096821959176  1.0000
  H   H57       1.0  0.49154397728706545  0.023757944290864003  0.986413693046231  1.0000
  H   H58       1.0  0.49527294690923174  0.9020281400101099  0.16684224296147235  1.0000
  C   C1        1.0  0.09034613737647139  0.7896955644131797  0.9262080514773675  1.0000
  C   C2        1.0  0.10499343231860804  0.9842367829772914  0.9022566758107621  1.0000
  C   C3        1.0  0.6373332262816688  0.6550368530794234  0.6420981561593212  1.0000
  C   C4        1.0  0.3803949478288899  0.3034583559553568  0.17192486090534947  1.0000
  C   C5        1.0  0.7333080164797963  0.7405401910515511  0.6706743675894135  1.0000
  C   C6        1.0  0.2743588243832916  0.21981699458006432  0.10086380656581892  1.0000
  C   C7        1.0  0.4486653901993946  0.9392395045736279  0.18830463241737758  1.0000
  C   C8        1.0  0.4607164280827404  0.10952520496272909  0.8985344185567073  1.0000
  C   C9        1.0  0.44085133972649965  0.9486462621227006  0.2799589179439082  1.0000
  C   C10       1.0  0.4344257887160268  0.10989001990587612  0.8004997772580541  1.0000
  C   C11       1.0  0.3813983565056489  0.9961060707639575  0.3093627710358648  1.0000
  C   C12       1.0  0.9354847299876922  0.21876947487039902  0.8862152493507267  1.0000
  C   C13       1.0  0.41524677040346347  0.022692618355641497  0.7108450777776695  1.0000
  C   C14       1.0  0.33029385729468425  0.0345670768398065  0.24564678584118846  1.0000
  C   C15       1.0  0.4188488221781625  0.9335537724598596  0.7212254269200857  1.0000
  C   C16       1.0  0.9158965487854188  0.3223161585920664  0.1935309191867347  1.0000
  C   C17       1.0  0.08312287630076302  0.4663259520581209  0.7805223472360867  1.0000
  C   C18       1.0  0.3380034461484698  0.025172667256455807  0.15388103082909052  1.0000
  C   C19       1.0  0.4447756461411174  0.9328257712525814  0.8191491364644039  1.0000
  C   C20       1.0  0.3967704738887861  0.9770856261504904  0.12477667941477931  1.0000
  C   C21       1.0  0.46752398707113235  0.021822541155103205  0.9085743757898117  1.0000
  C   C22       1.0  0.46184582046996775  0.09615692488635125  0.5069334167924924  1.0000
  C   C23       1.0  0.003959496313079591  0.3526855315718578  0.29213122335784913  1.0000
  C   C24       1.0  0.3114065631874325  0.9368985269480775  0.5099454499279831  1.0000
  C   C25       1.0  0.4775545802934714  0.10767485171278682  0.608435315592132  1.0000
  C   C26       1.0  0.2990313719956035  0.9227611673389974  0.40850419771337  1.0000
  C   C27       1.0  0.39948372648294134  0.024544997920209307  0.6088688152260745  1.0000
  C   C28       1.0  0.3771306995404586  0.006513229821912599  0.40899116831967336  1.0000
  C   C29       1.0  0.8023795154953604  0.8223503816864268  0.7781585518011271  1.0000
  C   C30       1.0  0.22966364727303556  0.17761953327249816  0.9886086398076944  1.0000
  C   C31       1.0  0.6746176155591284  0.7351177923133108  0.8262039392546897  1.0000
  C   C32       1.0  0.3989479500542501  0.30665814218476584  0.02025975133715727  1.0000
  C   C33       1.0  0.2896009168487409  0.32002436763545455  0.39369736156682233  1.0000
  C   C34       1.0  0.9901187644727469  0.3910463840911973  0.6782475601889147  1.0000
  C   C35       1.0  0.706767465638798  0.4427909167309423  0.5292984683567852  1.0000
  C   C36       1.0  0.19986207152364693  0.2953514639870036  0.4085344818383164  1.0000
  C   C37       1.0  0.8011485322754126  0.4375310732208178  0.5418402014512014  1.0000
  C   C38       1.0  0.18911238523662627  0.3774667188424631  0.4741611456637573  1.0000
  C   C39       1.0  0.7957299923601154  0.3424713982554408  0.47607338628421303  1.0000
  C   C40       1.0  0.8365171111136432  0.6295423440357625  0.03387392023702069  1.0000
  C   C41       1.0  0.38989310617650114  0.5886721247406683  0.17768000900316144  1.0000
  C   C42       1.0  0.2724372561078425  0.484071418352663  0.5285885769259908  1.0000
  C   C43       1.0  0.6935855086266686  0.25329671388296054  0.3975675114833309  1.0000
  C   C44       1.0  0.36020074078752623  0.5092416909599606  0.5109195424556462  1.0000
  C   C45       1.0  0.8027502417138876  0.6120625087430228  0.1055717201586931  1.0000
  C   C46       1.0  0.5988051937868659  0.25869585359878045  0.384304893253301  1.0000
  C   C47       1.0  0.3682900295192724  0.42726272948673494  0.44245362196540594  1.0000
  C   C48       1.0  0.605316529226016  0.3534333070308265  0.4502869974286555  1.0000
  C   C49       1.0  0.07735798405899891  0.36572119608914744  0.5654770697987389  1.0000
  C   C50       1.0  0.9031660814418316  0.3281811183520276  0.38848225108983303  1.0000
  C   C51       1.0  0.985608709200484  0.3615088106106441  0.5736846171099901  1.0000
  C   C52       1.0  0.9977141011799517  0.34156247069927304  0.3832743973777328  1.0000
  C   C53       1.0  0.8955999207232067  0.3401094601563486  0.48076822404463826  1.0000
  C   C54       1.0  0.08568304900994414  0.35762701635496813  0.4741417584058568  1.0000
  C   C55       1.0  0.6088274305843626  0.6507559597789695  0.72006001341736  1.0000
  C   C56       1.0  0.4453749407458074  0.6393705951036566  0.13487185877563962  1.0000
  C   C57       1.0  0.44319177300102547  0.347069841016527  0.13169399089370876  1.0000
  C   C58       1.0  0.11745408185919357  0.08558971226651832  0.9173483619156004  1.0000
  C   C59       1.0  0.9116447912449316  0.9074735653580321  0.8158768307332098  1.0000
  C   C60       1.0  0.7707218912694316  0.8203371317053583  0.8550011430967077  1.0000
  C   C61       1.0  0.29296377815110464  0.22227953618070023  0.9489902218496841  1.0000
  C   C62       1.0  0.02482223533167628  0.09904212947363078  0.8778775409696494  1.0000
  C   C63       1.0  0.004215975255633198  0.8940588749550433  0.8568622041715349  1.0000
  C   C64       1.0  0.19833321466177986  0.7175569500478717  0.3038945845803769  1.0000
  C   C65       1.0  0.6330484353809708  0.3029625984961442  0.7193239473545107  1.0000
  C   C66       1.0  0.6397663245931894  0.7374935366801195  0.14150000734890972  1.0000
  C   C67       1.0  0.22098024611705816  0.8193821069308387  0.3099257027195962  1.0000
  C   C68       1.0  0.6315931186370135  0.5493046021944252  0.12807215097793553  1.0000
  C   C69       1.0  0.6350741123674197  0.6493184121306046  0.04662326260633878  1.0000
  C   C70       1.0  0.6364946067054901  0.6375337081242166  0.22289029111123435  1.0000
  C   C71       1.0  0.7233718715014206  0.6372215735940899  0.12875723030782646  1.0000
  C   C72       1.0  0.5471148580158667  0.6472139148574313  0.1389968943784297  1.0000
  C   C73       1.0  0.7281445605221677  0.7272405549139123  0.22535888656025085  1.0000
  C   C74       1.0  0.544379802002922  0.559309254912634  0.043726950287684634  1.0000
  C   C75       1.0  0.836796484924143  0.5389639355293313  0.12424026522062805  1.0000
  C   C76       1.0  0.37086052018684507  0.6618746454313965  0.07151958564232787  1.0000
  C   C77       1.0  0.17293437568972794  0.7928468802323112  0.1998973222793837  1.0000
  C   C78       1.0  0.5780560317691013  0.19873217030445287  0.7047352900321331  1.0000
  C   C79       1.0  0.6500546255828255  0.20391956336154496  0.7985620369821904  1.0000
  C   C80       1.0  0.0944895143601698  0.41019562903573364  0.2862604841030746  1.0000
  C   C81       1.0  0.9054000564464174  0.3688314354020434  0.7019441153924932  1.0000
  C   C82       1.0  0.9121642979135982  0.6972987918095582  0.8255937526677785  1.0000
  C   C83       1.0  0.11449166655543762  0.3094558341724253  0.9744914350107978  1.0000
  C   C84       1.0  0.0005580308532912568  0.7978346780139488  0.8648447788170586  1.0000
  C   C85       1.0  0.027339409634933497  0.20352330717630454  0.90571737471484  1.0000
  C   C86       1.0  0.9235299217369429  0.0061576412860802005  0.8232985805095013  1.0000
  N   N1        1.0  0.05806967797078511  0.693988887714845  0.9238856866803008  1.0000
  N   N2        1.0  0.2790907532696423  0.627706022849445  0.07680805079231601  1.0000
  N   N3        1.0  0.1277715094909979  0.6862849990772731  0.13617139925142405  1.0000
  N   N4        1.0  0.7387721325289435  0.3010736929693892  0.8613906116464282  1.0000
  N   N5        1.0  0.06258033939430158  0.41400212698044214  0.19333866212657824  1.0000
  N   N6        1.0  0.9451329476659749  0.42869785990139064  0.8085834853148057  1.0000
  N   N7        1.0  0.9471001667634196  0.636394749286886  0.8610050217046707  1.0000
  N   N8        1.0  0.07612808891040149  0.3795495424100039  0.9959747153105882  1.0000
  N   N9        1.0  0.9661700460462868  0.3234402813122728  0.9417230715383342  1.0000
  N   N10       1.0  0.9511992448782179  0.35900698331889913  0.135245591584038  1.0000
  N   N11       1.0  0.054733019475882785  0.4885819042808706  0.8570322867194522  1.0000
  N   N12       1.0  0.8845367629850005  0.5697479853180525  0.010647402099671466  1.0000
  N   N13       1.0  0.2908410183331398  0.5818189496026563  0.14273608606643512  1.0000
  N   N14       1.0  0.14334166196769615  0.6394522307517434  0.20100559894282816  1.0000
  N   N15       1.0  0.7286751897509375  0.3632534197456111  0.8113840809197514  1.0000
  N   N16       1.0  0.8847794719460466  0.5139154717646834  0.06622654896422395  1.0000
  O   O1        1.0  0.229537085088829  0.6915934919083143  0.3838238698742702  1.0000
  O   O2        1.0  0.6030130156662068  0.34994614363449034  0.6592635552490551  1.0000
