data_image0
_chemical_formula_structural       Cd6H108C104N20O24
_chemical_formula_sum              "Cd6 H108 C104 N20 O24"
_cell_length_a       10.887065146697974
_cell_length_b       14.28262802295697
_cell_length_c       28.894930539114377
_cell_angle_alpha    87.91755465095373
_cell_angle_beta     89.983761127292
_cell_angle_gamma    112.3910777670059

_space_group_name_H-M_alt    "P 1"
_space_group_IT_number       1

loop_
  _space_group_symop_operation_xyz
  'x, y, z'

loop_
  _atom_site_type_symbol
  _atom_site_label
  _atom_site_symmetry_multiplicity
  _atom_site_fract_x
  _atom_site_fract_y
  _atom_site_fract_z
  _atom_site_occupancy
  Cd  Cd1       1.0  0.424904130306018  0.36213637985094493  0.5436429017804372  1.0000
  Cd  Cd2       1.0  0.06302131356986258  0.638108750590014  0.956398714392101  1.0000
  Cd  Cd3       1.0  0.5750968407711097  0.6378630476716011  0.456354037758878  1.0000
  Cd  Cd4       1.0  0.9369718979208057  0.3618898546716308  0.0435992682121764  1.0000
  Cd  Cd5       1.0  0.7452494968578167  0.9996713633433744  0.2500541698761438  1.0000
  Cd  Cd6       1.0  0.2547449542241722  0.00032053281104539713  0.7499421140913968  1.0000
  H   H1        1.0  0.5141967364174604  0.4749810238770778  0.6417222280663495  1.0000
  H   H2        1.0  0.03986743468053799  0.5252230454033581  0.8583002374637303  1.0000
  H   H3        1.0  0.4857990142339972  0.5250189873051099  0.3582774787085867  1.0000
  H   H4        1.0  0.9601294242963904  0.47478469374810583  0.1416970081874496  1.0000
  H   H5        1.0  0.6751210378634339  0.5696551420079318  0.6322745380851628  1.0000
  H   H6        1.0  0.10616628825433592  0.43058264320150386  0.8678038621884667  1.0000
  H   H7        1.0  0.32487490823718457  0.4303470982266191  0.3677258503142369  1.0000
  H   H8        1.0  0.8938263888337374  0.5694222404461017  0.132190627736108  1.0000
  H   H9        1.0  0.7504867586964535  0.4476385282533499  0.5945601401720069  1.0000
  H   H10       1.0  0.3033599434437093  0.5527208645973688  0.905557226479786  1.0000
  H   H11       1.0  0.2495140813010366  0.5523643165617358  0.40544266861332545  1.0000
  H   H12       1.0  0.6966334181843122  0.4472762037554645  0.094441109797998  1.0000
  H   H13       1.0  0.7047600164555802  0.41385062025536  0.6534669094244236  1.0000
  H   H14       1.0  0.2915892387653329  0.5862995534947401  0.8466149789174721  1.0000
  H   H15       1.0  0.29523641434444414  0.586150753422146  0.34653521427738804  1.0000
  H   H16       1.0  0.7084086104453745  0.41370281733220077  0.1533833314019475  1.0000
  H   H17       1.0  0.6924562824090329  0.30919154891610395  0.5490245917374779  1.0000
  H   H18       1.0  0.3836010090428559  0.6914044409221631  0.950959950640879  1.0000
  H   H19       1.0  0.30755004082404724  0.69081675083644  0.45097576672573336  1.0000
  H   H20       1.0  0.6163926650982815  0.3085932541988542  0.04904045992769569  1.0000
  H   H21       1.0  0.5681151937477293  0.19375408592797072  0.5682394490136105  1.0000
  H   H22       1.0  0.37457477995658195  0.8067593683541362  0.9316215243537512  1.0000
  H   H23       1.0  0.4318911062224587  0.8062504914469886  0.4317598888367726  1.0000
  H   H24       1.0  0.6254259307385368  0.19324137815932121  0.0683785248214761  1.0000
  H   H25       1.0  0.9093737181316115  0.3706220143915431  0.5793634723251557  1.0000
  H   H26       1.0  0.539173397471437  0.6297775051598149  0.9205902780668112  1.0000
  H   H27       1.0  0.0906317429561058  0.6293900731931361  0.42063686780522147  1.0000
  H   H28       1.0  0.4608139839831792  0.37021127422678995  0.0794074062869115  1.0000
  H   H29       1.0  0.08116973387376454  0.3437245006202758  0.6258499272086127  1.0000
  H   H30       1.0  0.7379794662853811  0.6567731673723075  0.8741366188432451  1.0000
  H   H31       1.0  0.9188334687068432  0.656290421230679  0.3741535153094233  1.0000
  H   H32       1.0  0.26201278701716996  0.3432161730112497  0.1258641785582952  1.0000
  H   H33       1.0  0.1641582248201487  0.3465419279560535  0.7060767941542991  1.0000
  H   H34       1.0  0.8188903221227052  0.6539105366152071  0.7941905849002636  1.0000
  H   H35       1.0  0.8358538821094259  0.6534577331323919  0.2939284530668544  1.0000
  H   H36       1.0  0.1811063263616219  0.3460820899142831  0.2058181594971558  1.0000
  H   H37       1.0  0.31059894357659357  0.2466587323821088  0.7515342855034461  1.0000
  H   H38       1.0  0.0649706202337371  0.7539988348639497  0.7485755432835504  1.0000
  H   H39       1.0  0.6893977686266267  0.7533266673100982  0.24846895435889846  1.0000
  H   H40       1.0  0.9350285637695207  0.2459841612040634  0.2514297854604024  1.0000
  H   H41       1.0  0.9788981549628557  0.030520667720900015  0.6891258629693694  1.0000
  H   H42       1.0  0.9481669448120301  0.9700525356571817  0.8105408757216637  1.0000
  H   H43       1.0  0.0210992536463125  0.9694826568302446  0.3108693267238678  1.0000
  H   H44       1.0  0.05184250467885929  0.029943643000869703  0.1894595413877767  1.0000
  H   H45       1.0  0.7796754630887004  0.0812145873194723  0.6941684177296779  1.0000
  H   H46       1.0  0.6990033890134769  0.9193331218525386  0.8058547224873182  1.0000
  H   H47       1.0  0.220331020092239  0.9187885185220496  0.305830234801391  1.0000
  H   H48       1.0  0.30101972128873905  0.0806775310842838  0.1941563566539486  1.0000
  H   H49       1.0  0.6081595538068142  0.1087828549796441  0.6466512746271037  1.0000
  H   H50       1.0  0.49979084299210547  0.8916922896090044  0.8533429361450543  1.0000
  H   H51       1.0  0.3918515891430872  0.8912240600107565  0.3533470129572294  1.0000
  H   H52       1.0  0.500223904746356  0.10831633111411781  0.1466643448177081  1.0000
  H   H53       1.0  0.45059929893756834  0.31473816844346203  0.6598045100458023  1.0000
  H   H54       1.0  0.13625558822165834  0.6852259752089651  0.8401329433817111  1.0000
  H   H55       1.0  0.5493975203328816  0.6852603057507453  0.34019555035548876  1.0000
  H   H56       1.0  0.8637528213322411  0.3147809836025317  0.15986465168221292  1.0000
  H   H57       1.0  0.5212854469020484  0.22223354579822538  0.6640643599891973  1.0000
  H   H58       1.0  0.29928909060015496  0.7778850959560089  0.835817660243336  1.0000
  H   H59       1.0  0.478712885794103  0.777764279677662  0.3359339723579282  1.0000
  H   H60       1.0  0.7007199550044589  0.22212313818365462  0.1641837370712267  1.0000
  H   H61       1.0  0.37590654699483383  0.1357276874276678  0.595732757226429  1.0000
  H   H62       1.0  0.24009972287879597  0.8644849680109561  0.9040652228019824  1.0000
  H   H63       1.0  0.6240916024905729  0.8642716095816637  0.40426626044001074  1.0000
  H   H64       1.0  0.7598963513102461  0.1355156917312073  0.0959362119328091  1.0000
  H   H65       1.0  0.2917817990715577  0.135048548139082  0.6479143832769694  1.0000
  H   H66       1.0  0.15646597308058594  0.8648246119487483  0.8519088151941716  1.0000
  H   H67       1.0  0.7082180703131796  0.86495235099607  0.3520832416288187  1.0000
  H   H68       1.0  0.8435375383712793  0.13517990028836377  0.1480915617905154  1.0000
  H   H69       1.0  0.06148619591885316  0.3757118914766622  0.4574361150189219  1.0000
  H   H70       1.0  0.6857691340629087  0.6240202841472637  0.0426337422668155  1.0000
  H   H71       1.0  0.9385236278405599  0.6242942224904128  0.5425628689693127  1.0000
  H   H72       1.0  0.3142260573320073  0.37597677885351294  0.9573767118047698  1.0000
  H   H73       1.0  0.8794012438904772  0.42882647974687427  0.4283166876384925  1.0000
  H   H74       1.0  0.45061752235533703  0.5708328679687115  0.0718175306231714  1.0000
  H   H75       1.0  0.12060694937927967  0.5711818852226997  0.5716826317375734  1.0000
  H   H76       1.0  0.5493776469906422  0.42916415144848236  0.928193616110299  1.0000
  H   H77       1.0  0.6466571611568667  0.35906783820223614  0.4011523652185076  1.0000
  H   H78       1.0  0.2879142905612966  0.640887061401699  0.0987464134575404  1.0000
  H   H79       1.0  0.35334120461268276  0.6409300526490186  0.5988449281357902  1.0000
  H   H80       1.0  0.7120807909660627  0.3591116090769617  0.9012505300595849  1.0000
  H   H81       1.0  0.7177850213134819  0.2838015497615487  0.3336655951248916  1.0000
  H   H82       1.0  0.434553000769739  0.7159638231708101  0.16617955279188124  1.0000
  H   H83       1.0  0.2822128377077392  0.7161971640631678  0.6663306555888795  1.0000
  H   H84       1.0  0.5654339645601779  0.2840333111115996  0.8338177448231932  1.0000
  H   H85       1.0  0.5325610137424307  0.9875178594826011  0.3983674966438002  1.0000
  H   H86       1.0  0.5456623142155478  0.012372301146278603  0.1016217956533652  1.0000
  H   H87       1.0  0.4674485802804681  0.01248228126272721  0.6016301314380996  1.0000
  H   H88       1.0  0.4543276130329303  0.9876270837427581  0.8983758371137397  1.0000
  H   H89       1.0  0.45491834241742873  0.0615343884229276  0.46446163904933263  1.0000
  H   H90       1.0  0.3936338355767221  0.9385699513100436  0.0356035927675933  1.0000
  H   H91       1.0  0.5450956044666527  0.9384634357070213  0.5355366924960947  1.0000
  H   H92       1.0  0.6063676410347867  0.06142497444503191  0.9643926761375426  1.0000
  H   H93       1.0  0.6406267766508904  0.5478538866699479  0.5492961455658047  1.0000
  H   H94       1.0  0.09313946991232315  0.452410513859853  0.9507638119234656  1.0000
  H   H95       1.0  0.3593737618579453  0.4521483531687451  0.4507042425977943  1.0000
  H   H96       1.0  0.9068600991977147  0.5475934590929158  0.0492331056353024  1.0000
  H   H97       1.0  0.5062919710603282  0.560184299522561  0.5698311777492151  1.0000
  H   H98       1.0  0.9465763043221924  0.4400581007653558  0.930170197816338  1.0000
  H   H99       1.0  0.4937055822670615  0.4398119673318988  0.4301678546495182  1.0000
  H   H100      1.0  0.05341931702689357  0.5599398121152106  0.0698267493485005  1.0000
  H   H101      1.0  0.22946127264978602  0.267058574275687  0.6133048800846836  1.0000
  H   H102      1.0  0.9624902264167472  0.7326862215620338  0.8866708685396745  1.0000
  H   H103      1.0  0.7705415586535125  0.7329445754661065  0.3866930799731422  1.0000
  H   H104      1.0  0.037511167418159616  0.26731405064658986  0.1133246819810054  1.0000
  H   H105      1.0  0.21141034988543336  0.1874116269091246  0.571296338319506  1.0000
  H   H106      1.0  0.023947447646939842  0.8125889125293783  0.9285743079619381  1.0000
  H   H107      1.0  0.7885872818271692  0.8125884712818776  0.4287019830373495  1.0000
  H   H108      1.0  0.9760438815686285  0.18740592692944344  0.07142334678571419  1.0000
  C   C1        1.0  0.6019607877690447  0.4993773972703935  0.6185248333557354  1.0000
  C   C2        1.0  0.10318149327462589  0.5008574189508579  0.8815284399332057  1.0000
  C   C3        1.0  0.39803610988662536  0.5006249082603559  0.3814745160036708  1.0000
  C   C4        1.0  0.8968147695442852  0.499147290045741  0.11846882045027482  1.0000
  C   C5        1.0  0.6650195551573076  0.4201551299183208  0.618780253284477  1.0000
  C   C6        1.0  0.2454299829603883  0.5801281033630444  0.8812829312989977  1.0000
  C   C7        1.0  0.33497944666294194  0.5798440362610933  0.38122084232045944  1.0000
  C   C8        1.0  0.7545682228613018  0.41987498139923934  0.11871606798744241  1.0000
  C   C9        1.0  0.6436197543689204  0.26412105989817297  0.5802789421875119  1.0000
  C   C10       1.0  0.37982814258385394  0.7363440800467418  0.9196573707743454  1.0000
  C   C11       1.0  0.35638321726121097  0.7358842099370336  0.4197214311494761  1.0000
  C   C12       1.0  0.620170720123518  0.2636566448332687  0.080343024826135  1.0000
  C   C13       1.0  0.7458875373210176  0.24281610015800936  0.6094761567049858  1.0000
  C   C14       1.0  0.5034409190048095  0.7576171491921284  0.8904894732785991  1.0000
  C   C15       1.0  0.25412317184664357  0.7571899483545224  0.39052386622892504  1.0000
  C   C16       1.0  0.49655561662074615  0.24237892161540492  0.10951267614578342  1.0000
  C   C17       1.0  0.8798180492778869  0.3075599124104896  0.6048608815367303  1.0000
  C   C18       1.0  0.5726799997991634  0.6928734383677695  0.89510323316847  1.0000
  C   C19       1.0  0.12018883582585012  0.6924476733275428  0.3951387879123017  1.0000
  C   C20       1.0  0.42731340050759303  0.3071181963643498  0.1048972068175331  1.0000
  C   C21       1.0  0.9777563199453425  0.292267956781771  0.6313822593968794  1.0000
  C   C22       1.0  0.6859714185300946  0.7081913751336942  0.8685908764445145  1.0000
  C   C23       1.0  0.022250381947650107  0.7077411004896985  0.3686180953714739  1.0000
  C   C24       1.0  0.3140239358039025  0.2917986571559013  0.1314109561135126  1.0000
  C   C25       1.0  0.940974705673291  0.20998103025937104  0.6632365197561185  1.0000
  C   C26       1.0  0.7315238424335888  0.7905129274149304  0.8367515741984164  1.0000
  C   C27       1.0  0.059031251138293404  0.7900302125600546  0.3367652093457281  1.0000
  C   C28       1.0  0.2684809386917735  0.20948677789047573  0.1632529807381289  1.0000
  C   C29       1.0  0.1500608765823728  0.2673414372535348  0.7092731259022074  1.0000
  C   C30       1.0  0.8836503353525202  0.7331803305968803  0.790855920635579  1.0000
  C   C31       1.0  0.849949642741457  0.7326568832105522  0.290729358108301  1.0000
  C   C32       1.0  0.11636009577558329  0.2668178155328889  0.2091493340224631  1.0000
  C   C33       1.0  0.22050380608735057  0.21765065484844115  0.7315221428899149  1.0000
  C   C34       1.0  0.003633271109571187  0.7829525967321234  0.7685227345906326  1.0000
  C   C35       1.0  0.7794907301991499  0.7823432524404411  0.2684782860115078  1.0000
  C   C36       1.0  0.9963593235743247  0.21703559380112844  0.2314843004155733  1.0000
  C   C37       1.0  0.0496159637261115  0.10192593522158688  0.7009564692065453  1.0000
  C   C38       1.0  0.9478648774427683  0.8986484405510353  0.7988574019287994  1.0000
  C   C39       1.0  0.9503813003510472  0.8980734272422808  0.2990415095142254  1.0000
  C   C40       1.0  0.0521409710876313  0.10134604897238117  0.2011457933593874  1.0000
  C   C41       1.0  0.808100427317896  0.1442693368136219  0.668681143233357  1.0000
  C   C42       1.0  0.6643381890355968  0.8562401713669914  0.8313321185965634  1.0000
  C   C43       1.0  0.19190772185400118  0.8557389409887932  0.3313195614664792  1.0000
  C   C44       1.0  0.3356753774113059  0.14376241083819255  0.16867484549984368  1.0000
  C   C45       1.0  0.7113623031016516  0.16073079170000432  0.6417818376849665  1.0000
  C   C46       1.0  0.5510700524262191  0.8397526516767185  0.8582219938619673  1.0000
  C   C47       1.0  0.2886486015151776  0.8392774858648834  0.35821886687339344  1.0000
  C   C48       1.0  0.4489389546858646  0.1602499962996973  0.14178393147741283  1.0000
  C   C49       1.0  0.47772839000634076  0.26155122734632386  0.6395158368430245  1.0000
  C   C50       1.0  0.21643668439444494  0.7385457475775892  0.860396721318942  1.0000
  C   C51       1.0  0.5222653282326633  0.7384465549418522  0.3604831884017798  1.0000
  C   C52       1.0  0.7835667099934723  0.2614603669436946  0.1396022629994107  1.0000
  C   C53       1.0  0.35137794759807406  0.18444319541433168  0.6194993505460643  1.0000
  C   C54       1.0  0.16687956976001328  0.8155789508151443  0.8803600094702446  1.0000
  C   C55       1.0  0.6486194555919697  0.8155546083489399  0.3804993281791623  1.0000
  C   C56       1.0  0.833117478032996  0.18442181780679331  0.11963969356266801  1.0000
  C   C57       1.0  0.2084602324186307  0.43630361544490626  0.5346739663137967  1.0000
  C   C58       1.0  0.7721156136786079  0.5637277091411832  0.9652490131155034  1.0000
  C   C59       1.0  0.791544598223723  0.5637016978155316  0.46532571426698144  1.0000
  C   C60       1.0  0.22787627563035068  0.43627193189728075  0.034756581474091795  1.0000
  C   C61       1.0  0.10239579100296232  0.4705742118622283  0.5162487968105012  1.0000
  C   C62       1.0  0.6318105807685229  0.5294552205425234  0.9837174123416689  1.0000
  C   C63       1.0  0.8976141221661321  0.5294357552331733  0.48374912980491297  1.0000
  C   C64       1.0  0.36818404754177436  0.47053887767875574  0.016292017469382403  1.0000
  C   C65       1.0  0.034282605177935466  0.4305748013252354  0.475750797231747  1.0000
  C   C66       1.0  0.6037148188949715  0.5692496155481878  0.0242962238250399  1.0000
  C   C67       1.0  0.9657261389380166  0.5694328278380283  0.5242481794610825  1.0000
  C   C68       1.0  0.39628011090398013  0.43074508764948394  0.9757156266077445  1.0000
  C   C69       1.0  0.9328012703873155  0.45957560378119666  0.4596947235260913  1.0000
  C   C70       1.0  0.4732441626611106  0.5402467336233202  0.0403769490879071  1.0000
  C   C71       1.0  0.06720855337209747  0.5404305101858781  0.5403042604621504  1.0000
  C   C72       1.0  0.5267542688781361  0.45974946258289145  0.959635240144614  1.0000
  C   C73       1.0  0.4954063448588427  0.25628743826291617  0.4757083434398126  1.0000
  C   C74       1.0  0.23907591734779046  0.743817534702693  0.024364521006319296  1.0000
  C   C75       1.0  0.5045959289651804  0.7437072477032984  0.5242917350585259  1.0000
  C   C76       1.0  0.7609192359317021  0.2561757675306211  0.9756334872262044  1.0000
  C   C77       1.0  0.5441743752669054  0.2139612442548113  0.4361922823650133  1.0000
  C   C78       1.0  0.33040016308002157  0.7860892340622954  0.0638133518168402  1.0000
  C   C79       1.0  0.4558311330961047  0.7860380739129196  0.5638063885932141  1.0000
  C   C80       1.0  0.6695949172333755  0.21390575762235645  0.9361818784255788  1.0000
  C   C81       1.0  0.6198383326116428  0.2774108109492559  0.3997298268068832  1.0000
  C   C82       1.0  0.3427750394158053  0.722528346823985  0.10019873693364188  1.0000
  C   C83       1.0  0.3801631341893525  0.7225877718080368  0.6002685017039013  1.0000
  C   C84       1.0  0.6572194128801385  0.2774672281244507  0.8997992603086119  1.0000
  C   C85       1.0  0.6601699422845825  0.23599820515706688  0.3625564805968012  1.0000
  C   C86       1.0  0.4246866581625  0.7638214741767229  0.13732790423132  1.0000
  C   C87       1.0  0.3398332223668135  0.7640019361424775  0.6374411478152169  1.0000
  C   C88       1.0  0.5753056679199275  0.23617719653945812  0.8626690394272885  1.0000
  C   C89       1.0  0.6268915170484631  0.1310202544336363  0.36154032898984667  1.0000
  C   C90       1.0  0.49634392105448916  0.8687760996262739  0.138383383142326  1.0000
  C   C91       1.0  0.37311170272526084  0.8689799958248585  0.6384555677674584  1.0000
  C   C92       1.0  0.5036478541817428  0.1312233068962101  0.861613903199519  1.0000
  C   C93       1.0  0.6674501113293302  0.08635293796130841  0.3210770090444726  1.0000
  C   C94       1.0  0.581376922745129  0.9133614684552994  0.17888734002828952  1.0000
  C   C95       1.0  0.33254761960346724  0.9136473563558027  0.6789181953338996  1.0000
  C   C96       1.0  0.4186175515997519  0.0866341500767049  0.821109964552079  1.0000
  C   C97       1.0  0.554965898418608  0.06847159619974261  0.3987966141227872  1.0000
  C   C98       1.0  0.48696508852979287  0.9314301182577225  0.101180997950614  1.0000
  C   C99       1.0  0.44504055047497804  0.9315277654724027  0.6012013641264033  1.0000
  C   C100      1.0  0.5130270421034665  0.06856632340610253  0.8988152640835381  1.0000
  C   C101      1.0  0.5129237114805673  0.10932843024485092  0.4356337913945723  1.0000
  C   C102      1.0  0.4038734596575892  0.8907019498899655  0.0643905282148154  1.0000
  C   C103      1.0  0.48708219759129184  0.8906716890253821  0.5643641832069051  1.0000
  C   C104      1.0  0.5961188652108831  0.10929304203220619  0.935604702169087  1.0000
  N   N1        1.0  0.5603575490374196  0.5149723804044511  0.5716663345557791  1.0000
  N   N2        1.0  0.04582240364481307  0.485299306059929  0.9283749174090445  1.0000
  N   N3        1.0  0.4396422431760597  0.4850283661881818  0.4283337146666071  1.0000
  N   N4        1.0  0.9541732850650246  0.5147024163653883  0.0716216650448445  1.0000
  N   N5        1.0  0.2785731194230436  0.23584046674172754  0.5926522763172812  1.0000
  N   N6        1.0  0.04283215498750793  0.764133368955548  0.9072677102845077  1.0000
  N   N7        1.0  0.7214280581277137  0.7641612116249732  0.4073449985155406  1.0000
  N   N8        1.0  0.9571643848432174  0.23586454384584246  0.09272923683317198  1.0000
  N   N9        1.0  0.5734759764742422  0.3212030901715224  0.6032494189793455  1.0000
  N   N10       1.0  0.25266299597422653  0.6790975888969369  0.896704483429879  1.0000
  N   N11       1.0  0.4265291764917406  0.6787991928548819  0.3967502762865749  1.0000
  N   N12       1.0  0.7473349923493657  0.32090322322940773  0.1032945268939969  1.0000
  N   N13       1.0  0.04108519829485863  0.1930473527863299  0.6901145738813099  1.0000
  N   N14       1.0  0.8485909927666458  0.8074561822699311  0.8098710628278596  1.0000
  N   N15       1.0  0.9589205287802047  0.8069579168113565  0.3098857993141948  1.0000
  N   N16       1.0  0.1514180971220398  0.19254111925292966  0.19013558089596932  1.0000
  N   N17       1.0  0.15702390584072387  0.11469503443244379  0.7259348482473201  1.0000
  N   N18       1.0  0.04264004873310535  0.8859428973843678  0.7739186268699215  1.0000
  N   N19       1.0  0.8429717762360269  0.8852974884109914  0.2740635099638524  1.0000
  N   N20       1.0  0.9573624139069994  0.11404481805232083  0.22608390901014988  1.0000
  O   O1        1.0  0.540393741937571  0.3536637698601624  0.477941742080624  1.0000
  O   O2        1.0  0.1865294045695905  0.6464381821160714  0.022165804543242  1.0000
  O   O3        1.0  0.4595985167841049  0.6463310913112676  0.5220555662889268  1.0000
  O   O4        1.0  0.8134771589600404  0.3535522196838699  0.9778301398228565  1.0000
  O   O5        1.0  0.413978148175481  0.1968390378937954  0.504990028102192  1.0000
  O   O6        1.0  0.21706568789647218  0.8032957441201917  0.9951094592487947  1.0000
  O   O7        1.0  0.5860314294038177  0.8031555602718754  0.4950114353426471  1.0000
  O   O8        1.0  0.7829124536193887  0.1966929270991997  0.004889957231228  1.0000
  O   O9        1.0  0.2607979627619131  0.3958066480055323  0.5051374265666766  1.0000
  O   O10       1.0  0.8649585176855792  0.604120111210591  0.9947726594085039  1.0000
  O   O11       1.0  0.7392092789528064  0.6042016516678429  0.4948629318493758  1.0000
  O   O12       1.0  0.1350436481354791  0.3958927342097098  0.0052276772156361  1.0000
  O   O13       1.0  0.23860904094728855  0.44599773280704363  0.5768083446410088  1.0000
  O   O14       1.0  0.7924792972918553  0.5541516880436247  0.9230917123465545  1.0000
  O   O15       1.0  0.7613941812543459  0.5540098750394692  0.4231909786657154  1.0000
  O   O16       1.0  0.20749664765851608  0.44583810619891295  0.0769139308421813  1.0000
  O   O17       1.0  0.6219483273189539  0.9895475100488794  0.3185298920375815  1.0000
  O   O18       1.0  0.632561282596832  0.010151616602335899  0.1815007121538414  1.0000
  O   O19       1.0  0.3780451004558644  0.010449689054695526  0.681466366254554  1.0000
  O   O20       1.0  0.36743026411684115  0.9898454954924177  0.8184969315563818  1.0000
  O   O21       1.0  0.7458253576067547  0.14514093525860264  0.2902714895909497  1.0000
  O   O22       1.0  0.6009159112466945  0.8544831604026085  0.2096650322774067  1.0000
  O   O23       1.0  0.25417363618024796  0.8548563723288753  0.7097230367635133  1.0000
  O   O24       1.0  0.3990809619321282  0.1455117439565399  0.7903315831944653  1.0000
