data_image0
_chemical_formula_structural       Zn6H39C66I3O24
_chemical_formula_sum              "Zn6 H39 C66 I3 O24"
_cell_length_a       18.44536392906713
_cell_length_b       19.049003351793733
_cell_length_c       18.940285616005887
_cell_angle_alpha    109.91556087449702
_cell_angle_beta     108.68054969261996
_cell_angle_gamma    109.40976699992366

_space_group_name_H-M_alt    "P 1"
_space_group_IT_number       1

loop_
  _space_group_symop_operation_xyz
  'x, y, z'

loop_
  _atom_site_type_symbol
  _atom_site_label
  _atom_site_symmetry_multiplicity
  _atom_site_fract_x
  _atom_site_fract_y
  _atom_site_fract_z
  _atom_site_occupancy
  Zn  Zn1       1.0  0.44335066584884686  0.43559262026853657  0.4811544926568062  1.0000
  Zn  Zn2       1.0  0.5610163793920364  0.5692647187195944  0.4843579439248914  1.0000
  Zn  Zn3       1.0  0.4527300289959443  0.9862645614411888  0.9541445150106115  1.0000
  Zn  Zn4       1.0  0.581108685294879  0.9906644855538147  0.07820998617405914  1.0000
  Zn  Zn5       1.0  0.9870681699828624  0.4552230937214787  0.9456312957279214  1.0000
  Zn  Zn6       1.0  0.9896845783219135  0.5697616205196991  0.07998780829773008  1.0000
  H   H1        1.0  0.49866497064867576  0.8141095151372538  0.7605544893570056  1.0000
  H   H2        1.0  0.5278471217214076  0.6352228875618521  0.7611208250115383  1.0000
  H   H3        1.0  0.25284723627838473  0.6293552586431235  0.23259114615821386  1.0000
  H   H4        1.0  0.21321348567761336  0.4461768501013951  0.11968961792219095  1.0000
  H   H5        1.0  0.4021611434324655  0.6415512974461564  0.3181292272718963  1.0000
  H   H6        1.0  0.2676636639699694  0.4640243853685035  0.27533459497224305  1.0000
  H   H7        1.0  0.7938731944863449  0.40992620137063085  0.12838299363000538  1.0000
  H   H8        1.0  0.644072620464989  0.42748316641504397  0.4266606235550513  1.0000
  H   H9        1.0  0.8118319435248793  0.27551626586706135  0.9988212852602063  1.0000
  H   H10       1.0  0.7884373196132514  0.21077795474565866  0.09036742841612279  1.0000
  H   H11       1.0  0.15875884336215754  0.6559864715585987  0.9398955993973885  1.0000
  H   H12       1.0  0.2155314375392124  0.7938268213661317  0.12072399827463447  1.0000
  H   H13       1.0  0.261946230287066  0.7813461891378992  0.9398515673351043  1.0000
  H   H14       1.0  0.38269585760829733  0.8243913115742743  0.1219880224737935  1.0000
  H   H15       1.0  0.7898484554663199  0.3197717679154763  0.3366553972593708  1.0000
  H   H16       1.0  0.6531163091768234  0.20051942011952661  0.20716490388827688  1.0000
  H   H17       1.0  0.3473271908793619  0.1276670602936463  0.09008864025665991  1.0000
  H   H18       1.0  0.7971196411020784  0.418556970359873  0.7180209593877437  1.0000
  H   H19       1.0  0.6528893208796163  0.4105093180265698  0.6215841884375098  1.0000
  H   H20       1.0  0.3393570851752159  0.3296530188218298  0.15371575121662323  1.0000
  H   H21       1.0  0.1922419717543278  0.3177877547333878  0.11939425790789936  1.0000
  H   H22       1.0  0.0885142487393438  0.2198424248282436  0.1444739170225802  1.0000
  H   H23       1.0  0.1315772351019504  0.13201377290806698  0.2024729985161855  1.0000
  H   H24       1.0  0.27766040140850373  0.1424109379533931  0.2346440202179352  1.0000
  H   H25       1.0  0.44513395443922127  0.69013684926788  0.5384678419869929  1.0000
  H   H26       1.0  0.3345279419078651  0.7217780562319688  0.46143710567821467  1.0000
  H   H27       1.0  0.20829212610298947  0.7071024902911345  0.4887745853822383  1.0000
  H   H28       1.0  0.19358476282810236  0.6607385034788605  0.5939395619099274  1.0000
  H   H29       1.0  0.30445052933741573  0.6295365958199353  0.6713697642020265  1.0000
  H   H30       1.0  0.7015753927646032  0.3885380515703575  0.1958611246754387  1.0000
  H   H31       1.0  0.5746177275016605  0.41171329204009055  0.18133141750818285  1.0000
  H   H32       1.0  0.43247722637378416  0.3178614415314627  0.04315112413139841  1.0000
  H   H33       1.0  0.4188918505142993  0.2002033933104173  0.9203495301375002  1.0000
  H   H34       1.0  0.5461112510479396  0.176159236901924  0.9354124357269953  1.0000
  H   H35       1.0  0.6308712103136996  0.46375369048811876  0.7696476806315503  1.0000
  H   H36       1.0  0.5692423090146689  0.5528986075883751  0.8264672888143212  1.0000
  H   H37       1.0  0.6697030855589006  0.7033226217888853  0.948331721064591  1.0000
  H   H38       1.0  0.8324732172119909  0.7631614059642544  0.014058966021948996  1.0000
  H   H39       1.0  0.8937805225503296  0.6733744858789096  0.9582871396641935  1.0000
  C   C1        1.0  0.6511200477385017  0.5324186356142065  0.5926577410790943  1.0000
  C   C2        1.0  0.5648518626386192  0.3094173815649413  0.302766906729673  1.0000
  C   C3        1.0  0.4821437488382045  0.304970846989164  0.2890653964989626  1.0000
  C   C4        1.0  0.4044302414945021  0.24061349591359257  0.2133090524057906  1.0000
  C   C5        1.0  0.4078153657219091  0.17775191792247108  0.15000199549361784  1.0000
  C   C6        1.0  0.4854901324129273  0.1766012707022995  0.16297085431565256  1.0000
  C   C7        1.0  0.7747705725453713  0.4644691200877915  0.7387435019831232  1.0000
  C   C8        1.0  0.8014540328879177  0.5078960550531519  0.8238984337105039  1.0000
  C   C9        1.0  0.7145243571307134  0.47019516813019635  0.6721603783467318  1.0000
  C   C10       1.0  0.7249960230676394  0.5391471809356502  0.6621270558701583  1.0000
  C   C11       1.0  0.49016861667369943  0.7300023977280787  0.8088538970009227  1.0000
  C   C12       1.0  0.4798440618409998  0.3698163580561201  0.3589239662100568  1.0000
  C   C13       1.0  0.497464411704982  0.8044222118722785  0.8139165248382911  1.0000
  C   C14       1.0  0.4886346643436638  0.6636452232887178  0.740139659281347  1.0000
  C   C15       1.0  0.4466667185007155  0.6368379402777223  0.6552183669469543  1.0000
  C   C16       1.0  0.262903824502132  0.5736624097991906  0.21801761336289618  1.0000
  C   C17       1.0  0.20303904673094314  0.5011546462394776  0.14190197818830094  1.0000
  C   C18       1.0  0.33887789416353087  0.5821065572102809  0.2826888100860856  1.0000
  C   C19       1.0  0.33135956505056197  0.5209105560575011  0.3047733411887564  1.0000
  C   C20       1.0  0.65645670804723  0.12053603752051596  0.05543007690662447  1.0000
  C   C21       1.0  0.48115127084991377  0.1024901897432002  0.09700482710789526  1.0000
  C   C22       1.0  0.42781539612705893  0.8823995674913616  0.050578450599665786  1.0000
  C   C23       1.0  0.4039393035682721  0.527516226301465  0.37344218362866854  1.0000
  C   C24       1.0  0.5004210303965877  0.8743661412581787  0.8824087732282351  1.0000
  C   C25       1.0  0.10381901473290624  0.6613066445543013  0.04959705979442941  1.0000
  C   C26       1.0  0.8664464699664906  0.4969635301223789  0.8845077007920777  1.0000
  C   C27       1.0  0.8882866671894261  0.41145815557727866  0.04419759388677127  1.0000
  C   C28       1.0  0.12228999218638852  0.4947529751379848  0.08376306878451355  1.0000
  C   C29       1.0  0.7828191049573406  0.3462420994951501  0.08875144258335164  1.0000
  C   C30       1.0  0.8264604724044844  0.3386512235115049  0.0441816792159102  1.0000
  C   C31       1.0  0.7115682532286056  0.2708959422646514  0.07622240817966029  1.0000
  C   C32       1.0  0.7228973134393399  0.2033265741166729  0.0735157152929204  1.0000
  C   C33       1.0  0.20280997948204776  0.7186089750573075  0.9990363849940566  1.0000
  C   C34       1.0  0.4655474186983567  0.5777431135046882  0.5971504702751674  1.0000
  C   C35       1.0  0.18051771845078693  0.7320749027094777  0.06163445946037174  1.0000
  C   C36       1.0  0.2758665140268022  0.7787405664384507  0.9993437055199765  1.0000
  C   C37       1.0  0.36046949131968375  0.8270279394737939  0.06271170999360012  1.0000
  C   C38       1.0  0.6451358941084493  0.37705788066102747  0.37863490885064277  1.0000
  C   C39       1.0  0.7239065841587617  0.3800067604431447  0.3901753328332803  1.0000
  C   C40       1.0  0.727134506816597  0.31634885464931983  0.32757268064776934  1.0000
  C   C41       1.0  0.6499415626816473  0.2495255695063463  0.2544222747037495  1.0000
  C   C42       1.0  0.5668237599963035  0.2432094590991554  0.23944067868561092  1.0000
  C   C43       1.0  0.3178597924860469  0.2363060902503591  0.19597137834428935  1.0000
  C   C44       1.0  0.2936269361185708  0.2862036381105071  0.16422504133297627  1.0000
  C   C45       1.0  0.2111855537303455  0.27977396490705086  0.14534649370260416  1.0000
  C   C46       1.0  0.1526893094364254  0.2245129850232814  0.1589996062308643  1.0000
  C   C47       1.0  0.17671226129015588  0.17500459943803284  0.19115687094788572  1.0000
  C   C48       1.0  0.2585366204702025  0.18053523285905726  0.20901255767297766  1.0000
  C   C49       1.0  0.3828702687648686  0.6587406417186157  0.6109772414883993  1.0000
  C   C50       1.0  0.39007590970533107  0.6838866982236738  0.5506984809467214  1.0000
  C   C51       1.0  0.3278487691225891  0.7017404667298379  0.5076044275690067  1.0000
  C   C52       1.0  0.257181486185182  0.693749382403375  0.5230324056098896  1.0000
  C   C53       1.0  0.24910161761160768  0.6679309897753782  0.5822323699305658  1.0000
  C   C54       1.0  0.3113061460454674  0.6505328478613633  0.625881605123027  1.0000
  C   C55       1.0  0.6320798206499917  0.279760688321275  0.06672922318966809  1.0000
  C   C56       1.0  0.6396691473979601  0.347139834832511  0.13518720056458028  1.0000
  C   C57       1.0  0.5681035080217569  0.3602493063091856  0.12703538649778068  1.0000
  C   C58       1.0  0.48843886353638777  0.30745091179965567  0.04972964415404139  1.0000
  C   C59       1.0  0.48084242316380005  0.24145058964647595  0.9808928080383342  1.0000
  C   C60       1.0  0.5520113191056097  0.22751261750090632  0.9891117375002313  1.0000
  C   C61       1.0  0.7666092945859901  0.5626008930590345  0.8593501208295679  1.0000
  C   C62       1.0  0.6751082767454618  0.529794700032312  0.8227312014208795  1.0000
  C   C63       1.0  0.6404935811652805  0.5800023451674434  0.8545906895079087  1.0000
  C   C64       1.0  0.6968943428142539  0.6642017702482975  0.9234129273147008  1.0000
  C   C65       1.0  0.7880257949239465  0.697496834387728  0.9603275473952597  1.0000
  C   C66       1.0  0.822694584103587  0.6471203066863324  0.9290397450918919  1.0000
  I   I1        1.0  0.8414702995581038  0.6580191879891332  0.739740623660076  1.0000
  I   I2        1.0  0.4777645733997248  0.6963713550649473  0.9020350070170979  1.0000
  I   I3        1.0  0.841452544845218  0.4814986339508849  0.5030466474391277  1.0000
  O   O1        1.0  0.5741476997776545  0.472670332669594  0.5637828710097353  1.0000
  O   O2        1.0  0.6833976398511794  0.08997378548577473  0.10365434713548193  1.0000
  O   O3        1.0  0.42555036737011415  0.0695153070653092  0.016942241285576577  1.0000
  O   O4        1.0  0.5316540773795494  0.0745401154370455  0.12304493240684877  1.0000
  O   O5        1.0  0.40166093818780985  0.8962345210263932  0.9884665345971231  1.0000
  O   O6        1.0  0.5094960648679817  0.9130808215377257  0.10414967063248075  1.0000
  O   O7        1.0  0.4490023116731194  0.9029839723899328  0.8565553094406797  1.0000
  O   O8        1.0  0.5535016061330822  0.9021877096615399  0.960241004782411  1.0000
  O   O9        1.0  0.06890206443684128  0.5865844557692841  0.9862040453394486  1.0000
  O   O10       1.0  0.07739941866293526  0.6798034084639683  0.10566905141199369  1.0000
  O   O11       1.0  0.8948152619574827  0.4474128045562509  0.852681523306636  1.0000
  O   O12       1.0  0.6692277067078223  0.58734135666149  0.5669290095830777  1.0000
  O   O13       1.0  0.890013777682796  0.5374199427342744  0.9638986986775964  1.0000
  O   O14       1.0  0.9103723896208819  0.3913436639358423  0.9861793816222004  1.0000
  O   O15       1.0  0.9144008355971992  0.48903629463428183  0.09999076715575238  1.0000
  O   O16       1.0  0.08712451117823153  0.44323628371243723  0.002143086414804392  1.0000
  O   O17       1.0  0.09246720874332225  0.5397060165827694  0.11752450112037138  1.0000
  O   O18       1.0  0.43162005436190043  0.3399273794452499  0.3892729210311928  1.0000
  O   O19       1.0  0.5262059312259452  0.4488123612802538  0.3848927614886648  1.0000
  O   O20       1.0  0.38252794873507406  0.47343911504594166  0.3982633349657122  1.0000
  O   O21       1.0  0.4837644829375805  0.5868163354632898  0.40429251457813825  1.0000
  O   O22       1.0  0.4218757561543498  0.4969344980906811  0.5701065880132178  1.0000
  O   O23       1.0  0.5217239254242827  0.6118882666626392  0.5774088883398253  1.0000
  O   O24       1.0  0.5785022987518643  0.0836137433550661  0.9943553387733035  1.0000
