data_image0
_chemical_formula_structural       Cu3H20C16N2O20
_chemical_formula_sum              "Cu3 H20 C16 N2 O20"
_cell_length_a       7.271777386168038
_cell_length_b       8.032924369085535
_cell_length_c       10.842818363865646
_cell_angle_alpha    77.86030804836875
_cell_angle_beta     85.7634445425053
_cell_angle_gamma    75.69935187750657

_space_group_name_H-M_alt    "P 1"
_space_group_IT_number       1

loop_
  _space_group_symop_operation_xyz
  'x, y, z'

loop_
  _atom_site_type_symbol
  _atom_site_label
  _atom_site_symmetry_multiplicity
  _atom_site_fract_x
  _atom_site_fract_y
  _atom_site_fract_z
  _atom_site_occupancy
  Cu  Cu1       1.0  0.4999994543812603  0.4999966573037043  0.500000261445436  1.0000
  Cu  Cu2       1.0  0.5969661179976811  0.1307578916795222  0.680992373365747  1.0000
  Cu  Cu3       1.0  0.4030289928212909  0.8692393628719444  0.3190085924437085  1.0000
  H   H1        1.0  0.4211391538545469  0.3101614815418898  0.020630598969773876  1.0000
  H   H2        1.0  0.5788559401156236  0.6898410962817536  0.9793712753600943  1.0000
  H   H3        1.0  0.22910139995632045  0.4313671204355956  0.193969774058246  1.0000
  H   H4        1.0  0.7709022862707896  0.5686395817692967  0.8060336568229759  1.0000
  H   H5        1.0  0.9834791179884874  0.716211719688019  0.14102059800396197  1.0000
  H   H6        1.0  0.01652797215439249  0.2837975030988318  0.8589785062321199  1.0000
  H   H7        1.0  0.10888156665645693  0.7137595481039869  0.4955184596344679  1.0000
  H   H8        1.0  0.8911135061585469  0.2862428912732398  0.5044797497170066  1.0000
  H   H9        1.0  0.08490143438554297  0.6461699332964557  0.37332680100433174  1.0000
  H   H10       1.0  0.9150894844621007  0.35383772172507827  0.6266707239971722  1.0000
  H   H11       1.0  0.41342873707252187  0.22493242062653  0.48395339277750077  1.0000
  H   H12       1.0  0.5865656997028097  0.7750622004996754  0.5160480749528205  1.0000
  H   H13       1.0  0.39413552321387607  0.9108478784553428  0.7593670368050099  1.0000
  H   H14       1.0  0.605869578495714  0.0891427975113714  0.24063175615282967  1.0000
  H   H15       1.0  0.4280150298542153  0.9824910373283303  0.8779978994834609  1.0000
  H   H16       1.0  0.5719880001604878  0.017502281072140104  0.1220014675439955  1.0000
  H   H17       1.0  0.7369981292461747  0.0182569724112369  0.4825165383474399  1.0000
  H   H18       1.0  0.2629993818651002  0.981741618055196  0.517484056692183  1.0000
  H   H19       1.0  0.8295189912770483  0.8785659244205777  0.6037873091021168  1.0000
  H   H20       1.0  0.17047917801148327  0.12143519563630177  0.3962100352828486  1.0000
  C   C1        1.0  0.4197737217419188  0.4460742449389982  0.7736290669907008  1.0000
  C   C2        1.0  0.5802203642984125  0.5539216864990666  0.22637218971565426  1.0000
  C   C3        1.0  0.29904091776406005  0.5266543781536654  0.8743023641944775  1.0000
  C   C4        1.0  0.700963821650511  0.47334296600868  0.1256980425044176  1.0000
  C   C5        1.0  0.3190380508855882  0.43602326966498584  0.9995475352278689  1.0000
  C   C6        1.0  0.6809629011630063  0.5639780836646227  0.0004551468788137002  1.0000
  C   C7        1.0  0.21051197645640227  0.5038605688011942  0.0970236294094349  1.0000
  C   C8        1.0  0.7894906744144733  0.4961447410670842  0.9029782598794895  1.0000
  C   C9        1.0  0.07507752379828493  0.6607495013366602  0.06865101884222467  1.0000
  C   C10       1.0  0.9249254450924199  0.33925971765713575  0.9313492412572728  1.0000
  C   C11       1.0  0.052707682285358645  0.749498385875178  0.9428228211421157  1.0000
  C   C12       1.0  0.9472973751490416  0.2505028674126848  0.05717595636735237  1.0000
  C   C13       1.0  0.16601024020703645  0.688647329865752  0.8432315045837556  1.0000
  C   C14       1.0  0.8339927729588652  0.3113513118068951  0.1567687709641135  1.0000
  C   C15       1.0  0.14006753199739555  0.7842005832666529  0.7067687655882722  1.0000
  C   C16       1.0  0.8599382153470144  0.21580340728127825  0.2932322587341361  1.0000
  N   N1        1.0  0.898751913264199  0.9065764481992035  0.9173187273263536  1.0000
  N   N2        1.0  0.10125003711907961  0.09342605518580169  0.08267908266042671  1.0000
  O   O1        1.0  0.4388745357395578  0.5500858845088814  0.6704821718514893  1.0000
  O   O2        1.0  0.5611161146522363  0.44990731867760303  0.3295179140324009  1.0000
  O   O3        1.0  0.49318329617657497  0.28168046665078356  0.8014990820829198  1.0000
  O   O4        1.0  0.506809424927681  0.7183155212089289  0.19850408698557226  1.0000
  O   O5        1.0  0.23150953449185607  0.9005193211882272  0.6659470636424983  1.0000
  O   O6        1.0  0.7684886665294287  0.09948200653827403  0.3340557782100575  1.0000
  O   O7        1.0  0.02760678540833779  0.7362139924055529  0.6446518348527022  1.0000
  O   O8        1.0  0.9723923918100323  0.26379377403691256  0.3553461271557765  1.0000
  O   O9        1.0  0.8806818619744518  0.9935997285503861  0.807214961209418  1.0000
  O   O10       1.0  0.1193232123087498  0.006396201465300103  0.1927829077796375  1.0000
  O   O11       1.0  0.7915787595651056  0.9468004917436091  0.006817911839000577  1.0000
  O   O12       1.0  0.2084255752441067  0.0532032437215477  0.9931767786441483  1.0000
  O   O13       1.0  0.172292201040662  0.6904760341194345  0.4140735075003761  1.0000
  O   O14       1.0  0.8277018469956874  0.3095250821443899  0.5859249927479979  1.0000
  O   O15       1.0  0.42224524598319146  0.2840128928958165  0.5530461895034335  1.0000
  O   O16       1.0  0.5777557282029946  0.7159831717732176  0.44695650032743117  1.0000
  O   O17       1.0  0.49650700808201964  0.9246638081895141  0.8116624768704668  1.0000
  O   O18       1.0  0.5034998030274309  0.0753308935390749  0.18833735575881147  1.0000
  O   O19       1.0  0.7066085159648309  0.9606933185661009  0.5717035811032218  1.0000
  O   O20       1.0  0.2933900040587147  0.039306491178926706  0.4282939743057028  1.0000
