data_image0
_chemical_formula_structural       CoH32C34N4O10
_chemical_formula_sum              "Co1 H32 C34 N4 O10"
_cell_length_a       8.7918916898257
_cell_length_b       9.732932503933869
_cell_length_c       9.714978114983825
_cell_angle_alpha    93.80046535913955
_cell_angle_beta     112.39830959363715
_cell_angle_gamma    103.79007817244049

_space_group_name_H-M_alt    "P 1"
_space_group_IT_number       1

loop_
  _space_group_symop_operation_xyz
  'x, y, z'

loop_
  _atom_site_type_symbol
  _atom_site_label
  _atom_site_symmetry_multiplicity
  _atom_site_fract_x
  _atom_site_fract_y
  _atom_site_fract_z
  _atom_site_occupancy
  Co  Co1       1.0  2.5417345880351873e-06  0.5000012861300717  0.5000008801006076  1.0000
  H   H1        1.0  0.005978064309111583  0.48856287999615916  0.8001732338707158  1.0000
  H   H2        1.0  0.9940313616953277  0.5114422793564514  0.19982569341062367  1.0000
  H   H3        1.0  0.04473953624988517  0.6629632450032118  0.018240290413935187  1.0000
  H   H4        1.0  0.9552573917051319  0.3370377365186385  0.9817592868370327  1.0000
  H   H5        1.0  0.021672765221239714  0.9856059893076857  0.7323930767350149  1.0000
  H   H6        1.0  0.97831840795277  0.014396119787697597  0.2676066473213723  1.0000
  H   H7        1.0  0.0006864230385516748  0.803588960492405  0.5330158428767505  1.0000
  H   H8        1.0  0.9993123325606774  0.1964173417166037  0.4669815485963725  1.0000
  H   H9        1.0  0.1912968489914704  0.013709359148059295  0.08247597546029795  1.0000
  H   H10       1.0  0.8086928210787931  0.9862884183733127  0.9175209496016877  1.0000
  H   H11       1.0  0.02896100607005536  0.8903584029939394  0.1097242898225801  1.0000
  H   H12       1.0  0.971025710202852  0.109641517674639  0.8902707056778852  1.0000
  H   H13       1.0  0.7620984025408291  0.9550826783375115  0.4912015264864849  1.0000
  H   H14       1.0  0.23790044066333138  0.044920345793819594  0.5087926360703747  1.0000
  H   H15       1.0  0.6248432291443463  0.481290036013874  0.8014252547632739  1.0000
  H   H16       1.0  0.3751587020398119  0.5187076521474197  0.198572776185074  1.0000
  H   H17       1.0  0.2576709715345443  0.40144770605812136  0.6232161966571469  1.0000
  H   H18       1.0  0.7423324720688953  0.5985543307281631  0.37678566683485565  1.0000
  H   H19       1.0  0.10079772842742328  0.3452946693050976  0.6753167780719664  1.0000
  H   H20       1.0  0.8992069627131442  0.6547073977624149  0.32468757317193553  1.0000
  H   H21       1.0  0.48137795607243555  0.6281542594349574  0.635589031232783  1.0000
  H   H22       1.0  0.5186236319401729  0.3718424055112379  0.3644119173893259  1.0000
  H   H23       1.0  0.4221917501850782  0.8403098195704214  0.7368285044416681  1.0000
  H   H24       1.0  0.5778094946559804  0.15968582216067517  0.2631753618542021  1.0000
  H   H25       1.0  0.6839233281901754  0.756730158268219  0.18687316753448602  1.0000
  H   H26       1.0  0.31608073626561856  0.24326653313848812  0.8131306894929368  1.0000
  H   H27       1.0  0.730415345314526  0.5449377775740344  0.06594045008365863  1.0000
  H   H28       1.0  0.26958989215407303  0.45505880770613044  0.9340576263017014  1.0000
  H   H29       1.0  0.6200985695119525  0.9822170259257844  0.15755240393943373  1.0000
  H   H30       1.0  0.37990020820146947  0.017778606395772598  0.8424495875003758  1.0000
  H   H31       1.0  0.399260330705033  0.8947096993124714  0.06829357728187795  1.0000
  H   H32       1.0  0.600739248903025  0.10528475251452109  0.9317024505418844  1.0000
  C   C1        1.0  0.01614748109601286  0.6009206955653993  0.7917105911530343  1.0000
  C   C2        1.0  0.983853096315002  0.3990802062904065  0.20828611386118465  1.0000
  C   C3        1.0  0.033509447364600854  0.698484314133786  0.9115739154048726  1.0000
  C   C4        1.0  0.9664849948316884  0.30151662387657296  0.08842171989153498  1.0000
  C   C5        1.0  0.03744776407807377  0.8414928600245231  0.8961837112586793  1.0000
  C   C6        1.0  0.962542161558801  0.1585092187896322  0.10381352504580114  1.0000
  C   C7        1.0  0.024263634895035486  0.8778263957864066  0.7557471395127139  1.0000
  C   C8        1.0  0.9757271485297279  0.12217460483901732  0.24425033447120376  1.0000
  C   C9        1.0  0.010804245655073357  0.7754504416993554  0.6419526386333843  1.0000
  C   C10       1.0  0.9891914254472737  0.22455049249028747  0.3580434173164377  1.0000
  C   C11       1.0  0.05575860685581092  0.9487080164106345  0.024687237089388196  1.0000
  C   C12       1.0  0.9442289578894361  0.05129080901824069  0.975306962541261  1.0000
  C   C13       1.0  0.654917099175165  0.11199904803861929  0.5578546259735759  1.0000
  C   C14       1.0  0.3450872301627754  0.8880019617118435  0.442150575845595  1.0000
  C   C15       1.0  0.5056577898794998  0.13633599028426593  0.563013806421573  1.0000
  C   C16       1.0  0.4943451856852973  0.863668233160709  0.43699006946346236  1.0000
  C   C17       1.0  0.6473572742312113  0.9754526535709753  0.4958771415748587  1.0000
  C   C18       1.0  0.3526465404903901  0.024550457583323696  0.5041249048911141  1.0000
  C   C19       1.0  0.8154023628298858  0.2330798116086825  0.5973656779408998  1.0000
  C   C20       1.0  0.18460194787697753  0.7669211640398358  0.4026374567797788  1.0000
  C   C21       1.0  0.5069938944211998  0.27884570834486055  0.634265168808831  1.0000
  C   C22       1.0  0.49300461492696007  0.7211563096223372  0.3657329449710359  1.0000
  C   C23       1.0  0.5256941494939226  0.6627484467098482  0.7565539630289635  1.0000
  C   C24       1.0  0.47430856118872095  0.3372514583913784  0.24344856806432352  1.0000
  C   C25       1.0  0.4933157752596244  0.7807326020881432  0.8158351762834428  1.0000
  C   C26       1.0  0.5066869261074842  0.21926728596211117  0.18416632126059804  1.0000
  C   C27       1.0  0.5486505925541322  0.8174648949799063  0.9725675161678283  1.0000
  C   C28       1.0  0.45135418619137363  0.18253389400992148  0.027433606159817655  1.0000
  C   C29       1.0  0.6380191761632616  0.7326668757244406  0.06454090384205811  1.0000
  C   C30       1.0  0.36198561189777917  0.26733193031635943  0.9354612520348269  1.0000
  C   C31       1.0  0.6661372315128843  0.6161145656106723  0.9994684476422009  1.0000
  C   C32       1.0  0.33386717611445244  0.3838831490111402  0.0005324917114676757  1.0000
  C   C33       1.0  0.513461829794373  0.9399710456193802  0.04579204400078404  1.0000
  C   C34       1.0  0.4865393871000734  0.060024544958800184  0.9542087216473549  1.0000
  N   N1        1.0  0.007653960814010818  0.637838068550735  0.6576689562531471  1.0000
  N   N2        1.0  0.9923465196765308  0.3621660943317833  0.3423299441280819  1.0000
  N   N3        1.0  0.6105162435325581  0.5838311726356405  0.8484883630223338  1.0000
  N   N4        1.0  0.3894881734103137  0.4161665590371442  0.15151360988058124  1.0000
  O   O1        1.0  0.7956105556918941  0.33830380266501675  0.5290359066084351  1.0000
  O   O2        1.0  0.2043974137865021  0.6616971103684435  0.470965389424734  1.0000
  O   O3        1.0  0.9595955963658013  0.21788020608159536  0.6857272355988115  1.0000
  O   O4        1.0  0.04041083829715567  0.7821197557613713  0.314280691651689  1.0000
  O   O5        1.0  0.6385968596861673  0.3429776598844042  0.7559948718440737  1.0000
  O   O6        1.0  0.3613990576672563  0.6570275585470498  0.24400046179899704  1.0000
  O   O7        1.0  0.3767546644127009  0.322720203384577  0.5710841370494323  1.0000
  O   O8        1.0  0.6232414840438236  0.6772785611973473  0.42891094005659625  1.0000
  O   O9        1.0  0.1759665094741649  0.4345623905768434  0.6578440722633943  1.0000
  O   O10       1.0  0.8240353341050553  0.5654385756621423  0.3421571876012167  1.0000
