data_image0
_chemical_formula_structural       Cu4H12C20S4I4N12
_chemical_formula_sum              "Cu4 H12 C20 S4 I4 N12"
_cell_length_a       7.443560934525618
_cell_length_b       10.38205763930004
_cell_length_c       11.120792621667931
_cell_angle_alpha    106.64078555162438
_cell_angle_beta     89.99988117143101
_cell_angle_gamma    89.99715048868806

_space_group_name_H-M_alt    "P 1"
_space_group_IT_number       1

loop_
  _space_group_symop_operation_xyz
  'x, y, z'

loop_
  _atom_site_type_symbol
  _atom_site_label
  _atom_site_symmetry_multiplicity
  _atom_site_fract_x
  _atom_site_fract_y
  _atom_site_fract_z
  _atom_site_occupancy
  Cu  Cu1       1.0  0.34346474165976565  0.048470087323778395  0.5621227328079499  1.0000
  Cu  Cu2       1.0  0.8434889139985131  0.9515245429145835  0.9378811423545134  1.0000
  Cu  Cu3       1.0  0.656521399137624  0.9515250667596716  0.43788412081101324  1.0000
  Cu  Cu4       1.0  0.1565079741539037  0.0484764804441937  0.06211552464854012  1.0000
  H   H1        1.0  0.4949515533366764  0.2410733561938514  0.437885194188681  1.0000
  H   H2        1.0  0.9949554663076511  0.7589121151768694  0.062118720331334004  1.0000
  H   H3        1.0  0.5050520526936638  0.7589094235410556  0.56209600613429  1.0000
  H   H4        1.0  0.0050454518667991  0.24109709933416912  0.9378908372200884  1.0000
  H   H5        1.0  0.8524978546019  0.32692097779352736  0.4349269639116785  1.0000
  H   H6        1.0  0.35249848504733455  0.67309241635499  0.0650304034506632  1.0000
  H   H7        1.0  0.14751246753701963  0.6730922200840012  0.5650809165824668  1.0000
  H   H8        1.0  0.6475064641432908  0.3268983927118256  0.9349519552427311  1.0000
  H   H9        1.0  0.9769559725102966  0.162381112098906  0.5418064015005372  1.0000
  H   H10       1.0  0.4769707102869845  0.8376350231587464  0.9581712714486134  1.0000
  H   H11       1.0  0.023044945366457605  0.8376362313841665  0.4582115342407533  1.0000
  H   H12       1.0  0.5230315520569065  0.16235475583068393  0.0418090247008607  1.0000
  C   C1        1.0  0.3513233371614178  0.2616693196704034  0.43917776596794783  1.0000
  C   C2        1.0  0.851321977849686  0.7383236331094026  0.060819329306646415  1.0000
  C   C3        1.0  0.6486816120835358  0.7383195910096562  0.5608121997997417  1.0000
  C   C4        1.0  0.14867491013986717  0.2616815481234767  0.9391882953646586  1.0000
  C   C5        1.0  0.27944061989728664  0.35405559158486  0.3823089295867846  1.0000
  C   C6        1.0  0.779438826685336  0.6459432270475887  0.11769339436123268  1.0000
  C   C7        1.0  0.7205589553995609  0.6459383328792683  0.617681421770314  1.0000
  C   C8        1.0  0.22056074800864425  0.354067005167586  0.8823173232813845  1.0000
  C   C9        1.0  0.9966969678370958  0.30809521128608  0.4363389471535727  1.0000
  C   C10       1.0  0.4967016593235983  0.6919177158199048  0.0636270359906987  1.0000
  C   C11       1.0  0.0033066373488211003  0.691910862976485  0.5636608127970676  1.0000
  C   C12       1.0  0.5033006028967365  0.30807519091391095  0.936362155267304  1.0000
  C   C13       1.0  0.06505053885624082  0.21694948159500171  0.4952433257841167  1.0000
  C   C14       1.0  0.5650583191619134  0.7830573527183589  0.004737154271829543  1.0000
  C   C15       1.0  0.9349503791927277  0.7830636417552412  0.5047591399067032  1.0000
  C   C16       1.0  0.43493856917773144  0.21693858225056317  0.9952537123147709  1.0000
  C   C17       1.0  0.7019119464312952  0.0653741375936434  0.7303185724260006  1.0000
  C   C18       1.0  0.20191915279382042  0.934620125557302  0.7696962527624295  1.0000
  C   C19       1.0  0.29809568911366574  0.9346309687194247  0.26968363732341055  1.0000
  C   C20       1.0  0.7980696749327337  0.06537320479752398  0.2303236227736677  1.0000
  S   S1        1.0  0.6398815396931923  0.13597812443488522  0.6225769209065393  1.0000
  S   S2        1.0  0.13990812163428504  0.864020490619474  0.8774337345215529  1.0000
  S   S3        1.0  0.36010325725481346  0.8640289554202666  0.37742309676162483  1.0000
  S   S4        1.0  0.8600793625686834  0.1359756811157737  0.12257427917279531  1.0000
  I   I1        1.0  0.45075685033566515  0.46247062608264145  0.29500057721732287  1.0000
  I   I2        1.0  0.9507207186517945  0.5375298598479503  0.20502345110423198  1.0000
  I   I3        1.0  0.5492480986546511  0.5375253585362428  0.7049938992276239  1.0000
  I   I4        1.0  0.049257360822778706  0.4624835503372893  0.7949997716791587  1.0000
  N   N1        1.0  0.2434753639637748  0.19362979655296902  0.4965279192031107  1.0000
  N   N2        1.0  0.7435003251434936  0.8063693302801341  0.003468252899047315  1.0000
  N   N3        1.0  0.7565309285632082  0.8063632595232805  0.5034721017484857  1.0000
  N   N4        1.0  0.2565019369158533  0.1936277218760409  0.9965309935507636  1.0000
  N   N5        1.0  0.10386927634293393  0.37717293096420684  0.3800839849580414  1.0000
  N   N6        1.0  0.6038650630379296  0.6228323913085205  0.1198960383340548  1.0000
  N   N7        1.0  0.8961410462809098  0.6228270495514322  0.6199097169297829  1.0000
  N   N8        1.0  0.39613451174776065  0.37717569348500035  0.8801042368539956  1.0000
  N   N9        1.0  0.7478579490761845  0.016225129687804  0.8088649189094356  1.0000
  N   N10       1.0  0.2478525618676315  0.9837712650659469  0.6911431762580095  1.0000
  N   N11       1.0  0.25215506018280115  0.9837818998108289  0.191131488686942  1.0000
  N   N12       1.0  0.752147013386228  0.016222945788314295  0.30886793205726804  1.0000
