data_image0
_chemical_formula_structural       Zn2H36C56N8O8
_chemical_formula_sum              "Zn2 H36 C56 N8 O8"
_cell_length_a       14.443524182470119
_cell_length_b       15.66941754144578
_cell_length_c       15.669085347514446
_cell_angle_alpha    80.59978126329348
_cell_angle_beta     82.57548193430952
_cell_angle_gamma    82.57734776675025

_space_group_name_H-M_alt    "P 1"
_space_group_IT_number       1

loop_
  _space_group_symop_operation_xyz
  'x, y, z'

loop_
  _atom_site_type_symbol
  _atom_site_label
  _atom_site_symmetry_multiplicity
  _atom_site_fract_x
  _atom_site_fract_y
  _atom_site_fract_z
  _atom_site_occupancy
  Zn  Zn1       1.0  0.5848491102703264  0.5285803274833043  0.5136981747396162  1.0000
  Zn  Zn2       1.0  0.41515233478740027  0.48630178880189584  0.47141814160326595  1.0000
  H   H1        1.0  0.6675243081450688  0.9412793898622526  0.6718041700515158  1.0000
  H   H2        1.0  0.2653811349242119  0.06821705260480118  0.4294568436584782  1.0000
  H   H3        1.0  0.3324802465065702  0.3281998887790962  0.0587277668439867  1.0000
  H   H4        1.0  0.7346163089337093  0.5705714204230219  0.93176320755461  1.0000
  H   H5        1.0  0.5107118037932565  0.7818225192963267  0.5455320083568722  1.0000
  H   H6        1.0  0.4664710922751425  0.2276002571154407  0.49420049409071964  1.0000
  H   H7        1.0  0.48931563015877816  0.45444948444995953  0.21818019633494146  1.0000
  H   H8        1.0  0.5335233915662625  0.5058241374268846  0.7723884494764377  1.0000
  H   H9        1.0  0.7193120860132537  0.08646627312560903  0.671804387358449  1.0000
  H   H10       1.0  0.22954741168124576  0.9246724213272303  0.40734174192603934  1.0000
  H   H11       1.0  0.2806955015807233  0.32819570518446983  0.9135430775232222  1.0000
  H   H12       1.0  0.7704556302688629  0.592679140132212  0.07531100690905396  1.0000
  H   H13       1.0  0.5668336208992456  0.850986450420926  0.6203590100422574  1.0000
  H   H14       1.0  0.36801553425193134  0.15830661853955522  0.478173687518229  1.0000
  H   H15       1.0  0.4331744078471118  0.3796480877206109  0.14901336481101168  1.0000
  H   H16       1.0  0.6319740117804997  0.5218486429635193  0.8416776172430787  1.0000
  H   H17       1.0  0.04092694859283339  0.2889059863579035  0.4040677306935265  1.0000
  H   H18       1.0  0.9590672504492589  0.5959474226201635  0.7110903420120138  1.0000
  H   H19       1.0  0.7783989507881587  0.4618200838727092  0.47881082267485203  1.0000
  H   H20       1.0  0.22159564899102693  0.5212142998848961  0.5381518119770234  1.0000
  H   H21       1.0  0.6414725566184744  0.6354627786497319  0.6371894904743483  1.0000
  H   H22       1.0  0.3585293955097626  0.3628060760287966  0.3645341720362367  1.0000
  H   H23       1.0  0.2111051793895413  0.29786228958388955  0.3539754042259062  1.0000
  H   H24       1.0  0.7888922672068901  0.6460348689327517  0.7021338080339916  1.0000
  H   H25       1.0  0.8849524463616588  0.28461181121952717  0.4500929326681203  1.0000
  H   H26       1.0  0.8239687384497144  0.33552407833258974  0.53024700373296  1.0000
  H   H27       1.0  0.11505713442617348  0.5499325203272891  0.7153808304142186  1.0000
  H   H28       1.0  0.17603796147778888  0.46978129576675803  0.6644582471539379  1.0000
  H   H29       1.0  0.27792442067650563  0.6893259596656093  0.4160792259700515  1.0000
  H   H30       1.0  0.21147226643750366  0.7830128589919241  0.37102865101262233  1.0000
  H   H31       1.0  0.690500713083992  0.32219941822370396  0.6279505668684919  1.0000
  H   H32       1.0  0.747389893230043  0.23239118491419927  0.6861846648513888  1.0000
  H   H33       1.0  0.722077299964724  0.583914490382547  0.31067271618074704  1.0000
  H   H34       1.0  0.7885305127240017  0.6289846872446816  0.2169856314653771  1.0000
  H   H35       1.0  0.3094813353543344  0.3720595491920165  0.6778065285383549  1.0000
  H   H36       1.0  0.2526036320692668  0.31382133749624325  0.7676231982096482  1.0000
  C   C1        1.0  0.5681307574524512  0.5166811618104604  0.3293413110983606  1.0000
  C   C2        1.0  0.4360143996738445  0.47546590099798897  0.6585142099973069  1.0000
  C   C3        1.0  0.4318835856192536  0.6706626106768852  0.48330515946045693  1.0000
  C   C4        1.0  0.5639653627373704  0.3414804270008034  0.5245462445328286  1.0000
  C   C5        1.0  0.6127529759159955  0.971840960826235  0.6311572640389684  1.0000
  C   C6        1.0  0.32663139719750234  0.0375443170357102  0.4616076250724603  1.0000
  C   C7        1.0  0.3872585762052481  0.36883816569189776  0.02816068144299073  1.0000
  C   C8        1.0  0.6733602068337987  0.5384204131845678  0.9624378377190936  1.0000
  C   C9        1.0  0.21084163769943842  0.3463308143218811  0.3967052277436593  1.0000
  C   C10       1.0  0.7891522418985845  0.6032962240210935  0.6536680069940742  1.0000
  C   C11       1.0  0.2917547229300937  0.3819306971470978  0.40122346563939  1.0000
  C   C12       1.0  0.7082411592417515  0.5987677159153435  0.6180656278511094  1.0000
  C   C13       1.0  0.21521144148776022  0.46961546499673545  0.5011863056260708  1.0000
  C   C14       1.0  0.7847857231796028  0.4987960544386071  0.5304054951727507  1.0000
  C   C15       1.0  0.1293002042855278  0.4349892918324941  0.5045854152488047  1.0000
  C   C16       1.0  0.8706875176424377  0.4954050282232956  0.5650362321303389  1.0000
  C   C17       1.0  0.12621526110013553  0.373507128975504  0.4467468888347171  1.0000
  C   C18       1.0  0.8737788101541568  0.553254967807888  0.6265087308191822  1.0000
  C   C19       1.0  0.04365991913227421  0.46447938499779445  0.5554154148622173  1.0000
  C   C20       1.0  0.9563361417840427  0.44457898090690406  0.5355336427836476  1.0000
  C   C21       1.0  0.9570857255578032  0.3735771792081763  0.48569146189939966  1.0000
  C   C22       1.0  0.042913534407219296  0.5143211798918018  0.6264187931851382  1.0000
  C   C23       1.0  0.041036535488814294  0.3410537591509026  0.44252286485372144  1.0000
  C   C24       1.0  0.9589600260092793  0.5574902562645293  0.6589448071325136  1.0000
  C   C25       1.0  0.5819246280900429  0.2462387488598807  0.5553585938963863  1.0000
  C   C26       1.0  0.39453998368088616  0.7637437401556326  0.48413717777548027  1.0000
  C   C27       1.0  0.4180704692356443  0.4446554534958834  0.7537581460853744  1.0000
  C   C28       1.0  0.6054785046779969  0.5158552418223366  0.2362567542708049  1.0000
  C   C29       1.0  0.6633220518730952  0.11740796002806772  0.6325856788511786  1.0000
  C   C30       1.0  0.29036658201511045  0.8929957653167975  0.4396442732870298  1.0000
  C   C31       1.0  0.336684668753847  0.36741511371873503  0.8825977387266519  1.0000
  C   C32       1.0  0.7096450473886763  0.5603627856921848  0.10699750058041958  1.0000
  C   C33       1.0  0.6550587783957127  0.207495057362074  0.6077203872534368  1.0000
  C   C34       1.0  0.3110233864794765  0.8026304025602399  0.44608465255618773  1.0000
  C   C35       1.0  0.3449406927807743  0.3922811317500746  0.7925096763957811  1.0000
  C   C36       1.0  0.6889903045833492  0.5539203377668471  0.19736461006236541  1.0000
  C   C37       1.0  0.5207026388416339  0.19396390755573384  0.5334454838102403  1.0000
  C   C38       1.0  0.4474436293405263  0.8149433106204996  0.5188388641958569  1.0000
  C   C39       1.0  0.479289310941475  0.4665659854348263  0.8060295276518871  1.0000
  C   C40       1.0  0.5525727191147212  0.48115664521443346  0.1850552020097709  1.0000
  C   C41       1.0  0.5275583250674671  0.1034793491959647  0.558192247272693  1.0000
  C   C42       1.0  0.4251570727576209  0.9051807986632099  0.5163179132754223  1.0000
  C   C43       1.0  0.47243390734315943  0.44181555843051973  0.8965209947198005  1.0000
  C   C44       1.0  0.5748580768028975  0.48368742612266397  0.0948106702384592  1.0000
  C   C45       1.0  0.6023922919439924  0.06433207920712651  0.6082202765550447  1.0000
  C   C46       1.0  0.34583337892743055  0.9449171984019101  0.4722962447795638  1.0000
  C   C47       1.0  0.39760551963780705  0.3917873114151647  0.9356706922349287  1.0000
  C   C48       1.0  0.6541682419487103  0.5277308545893646  0.055072532122018465  1.0000
  C   C49       1.0  0.4645180235812774  0.050232483714552204  0.5325323071818318  1.0000
  C   C50       1.0  0.4820054408979503  0.9584413953092507  0.5504491700245494  1.0000
  C   C51       1.0  0.5354794541569561  0.4674789382113076  0.9497594783871008  1.0000
  C   C52       1.0  0.5180091317521162  0.44955556007680286  0.04155188464806509  1.0000
  C   C53       1.0  0.5560570033825128  0.9214666635541562  0.6021786120936313  1.0000
  C   C54       1.0  0.3844683270705928  0.08775927876362741  0.4889825787210853  1.0000
  C   C55       1.0  0.44395709711889003  0.39782448425658856  0.0785297279127022  1.0000
  C   C56       1.0  0.615524180504501  0.5110412901943135  0.9122282420899239  1.0000
  N   N1        1.0  0.2930377638156259  0.44462786979064367  0.4515248429331535  1.0000
  N   N2        1.0  0.7069579838899643  0.5484525119408943  0.5553835793984304  1.0000
  N   N3        1.0  0.8763797916955838  0.33835066178761514  0.47988796984655824  1.0000
  N   N4        1.0  0.1236217893905689  0.5201391071151348  0.6616375153968832  1.0000
  N   N5        1.0  0.2538962741527159  0.753299413499505  0.41611293709750186  1.0000
  N   N6        1.0  0.7176638594400373  0.2582224358910281  0.6310533051503882  1.0000
  N   N7        1.0  0.7461209334754102  0.5838828414810849  0.24670143567785624  1.0000
  N   N8        1.0  0.2823282882825922  0.3689532145619624  0.7417895526364902  1.0000
  O   O1        1.0  0.6254137369938417  0.5229374399610266  0.38384146255067714  1.0000
  O   O2        1.0  0.3842767888931816  0.4530636295804982  0.606952249210643  1.0000
  O   O3        1.0  0.3746025420176693  0.616158108125333  0.4770544748176775  1.0000
  O   O4        1.0  0.6156953875251503  0.3930518567870891  0.5469602563863347  1.0000
  O   O5        1.0  0.4804467236428209  0.5119905395687638  0.3487388908181046  1.0000
  O   O6        1.0  0.503352461639281  0.5216254507537385  0.6331149394464575  1.0000
  O   O7        1.0  0.5195757569763232  0.6512647716010277  0.4879812498942401  1.0000
  O   O8        1.0  0.49661804288390243  0.36687056814707114  0.478407821796388  1.0000
