data_image0
_chemical_formula_structural       Zn4H44C57N4O20
_chemical_formula_sum              "Zn4 H44 C57 N4 O20"
_cell_length_a       17.86257051910535
_cell_length_b       19.138042366420642
_cell_length_c       19.25504232858488
_cell_angle_alpha    94.78798473219965
_cell_angle_beta     99.00035910819923
_cell_angle_gamma    103.77290556090097

_space_group_name_H-M_alt    "P 1"
_space_group_IT_number       1

loop_
  _space_group_symop_operation_xyz
  'x, y, z'

loop_
  _atom_site_type_symbol
  _atom_site_label
  _atom_site_symmetry_multiplicity
  _atom_site_fract_x
  _atom_site_fract_y
  _atom_site_fract_z
  _atom_site_occupancy
  Zn  Zn1       1.0  0.5614917943612383  0.4488959952069678  0.4528006727990857  1.0000
  Zn  Zn2       1.0  0.4332064731924562  0.43233678937965453  0.5502165812089502  1.0000
  Zn  Zn3       1.0  0.4377447844931767  0.5421993861953922  0.43250311263432206  1.0000
  Zn  Zn4       1.0  0.5688620395633208  0.5777556880106404  0.575576342855314  1.0000
  H   H1        1.0  0.06418205976672912  0.5904391839222569  0.6775340756717088  1.0000
  H   H2        1.0  0.5740435644651856  0.9276732047039576  0.6225688318177165  1.0000
  H   H3        1.0  0.5768336876837027  0.7961352262261343  0.6157077414871922  1.0000
  H   H4        1.0  0.4185425370034039  0.8834206601119517  0.42097109036828334  1.0000
  H   H5        1.0  0.4748538886513316  0.08222100803767063  0.3646825420242551  1.0000
  H   H6        1.0  0.4175842709770025  0.7513892220183964  0.4161102043061789  1.0000
  H   H7        1.0  0.2039332266618672  0.36118904264463936  0.35793403288419523  1.0000
  H   H8        1.0  0.9298032132220798  0.32476487010650607  0.3681790515193057  1.0000
  H   H9        1.0  0.9466906174438777  0.6149716321173032  0.7017704456519596  1.0000
  H   H10       1.0  0.8028810215518973  0.6043768857293232  0.6668739828084328  1.0000
  H   H11       1.0  0.13872351379900755  0.5384634282247659  0.6007028749278903  1.0000
  H   H12       1.0  0.5656433162882949  0.39461117397181067  0.10833082047892627  1.0000
  H   H13       1.0  0.03571645592343493  0.204056147591345  0.28405785547755613  1.0000
  H   H14       1.0  0.12759136313070485  0.246212072168433  0.33991779919861653  1.0000
  H   H15       1.0  0.07110110254912173  0.2858938964534161  0.19271481539151844  1.0000
  H   H16       1.0  0.16491170158665375  0.32378735419680993  0.24484331344716287  1.0000
  H   H17       1.0  0.19159762915998613  0.19888972104692476  0.23998329356327736  1.0000
  H   H18       1.0  0.1705918309270444  0.22389043817217671  0.1537994990652223  1.0000
  H   H19       1.0  0.09777546646379423  0.16158327642535403  0.1864120251539774  1.0000
  H   H20       1.0  0.4647478242268053  0.38453438345450053  0.7140162724143126  1.0000
  H   H21       1.0  0.4948919380681644  0.40701864944062294  0.9598309217416274  1.0000
  H   H22       1.0  0.535957275003824  0.6864624181617531  0.8920336136953682  1.0000
  H   H23       1.0  0.5731354666372611  0.40895209938148014  0.24016945194715336  1.0000
  H   H24       1.0  0.38843831791403016  0.27431992117134746  0.3635587069286573  1.0000
  H   H25       1.0  0.3538834468229481  0.19660774559342536  0.2982459488701608  1.0000
  H   H26       1.0  0.481818247798799  0.33325980616474044  0.290710521569686  1.0000
  H   H27       1.0  0.4499145954929133  0.25692221540457894  0.2250134681541241  1.0000
  H   H28       1.0  0.313421169553756  0.2776350402127435  0.20409353373441522  1.0000
  H   H29       1.0  0.3847330695461793  0.35458395994253067  0.19001201163231232  1.0000
  H   H30       1.0  0.34606270872851047  0.35508564524560177  0.26930477474628844  1.0000
  H   H31       1.0  0.8064410702883792  0.4391307396501603  0.43496953115585774  1.0000
  H   H32       1.0  0.8312039724585104  0.35529356569966114  0.5408850874143951  1.0000
  H   H33       1.0  0.8335140635263018  0.2773380473439462  0.4838747733450506  1.0000
  H   H34       1.0  0.5281814842852341  0.6259488530990185  0.7821472231925811  1.0000
  H   H35       1.0  0.6982491068018251  0.35219212679021444  0.4747412423440808  1.0000
  H   H36       1.0  0.6997797474598499  0.27552131373903427  0.4171743187289749  1.0000
  H   H37       1.0  0.7085642568667013  0.2039431309753539  0.5226295152277558  1.0000
  H   H38       1.0  0.6234505479405997  0.2372104189203625  0.5122402914917928  1.0000
  H   H39       1.0  0.7053410469062483  0.28125765954681736  0.5789491577767053  1.0000
  H   H40       1.0  0.4591811039938778  0.5735752511517803  0.09306638498435406  1.0000
  H   H41       1.0  0.4601141253059851  0.5832122686828285  0.2243211106367795  1.0000
  H   H42       1.0  0.45815693775288224  0.22522805101133522  0.5861541402587137  1.0000
  H   H43       1.0  0.19871063592098898  0.5005827103336318  0.5418934260510824  1.0000
  H   H44       1.0  0.46880086233858986  0.09693936526755922  0.5881928968094458  1.0000
  C   C1        1.0  0.5027183938664095  0.5066951129702063  0.6921656636456676  1.0000
  C   C2        1.0  0.9183565073093831  0.4013701667386301  0.4494596750507399  1.0000
  C   C3        1.0  0.9608693077897357  0.36946400031308013  0.40911071603406424  1.0000
  C   C4        1.0  0.5152494387275227  0.5008100280729124  0.3170808891352125  1.0000
  C   C5        1.0  0.043590017260122245  0.39228388969325323  0.42124860228445027  1.0000
  C   C6        1.0  0.08292420774250087  0.445139145991668  0.48044962146862275  1.0000
  C   C7        1.0  0.08794672752502213  0.35991752175478814  0.3783362114376133  1.0000
  C   C8        1.0  0.16898747830359181  0.3824906731242593  0.3917291678534057  1.0000
  C   C9        1.0  0.1657751722951915  0.4626622402614444  0.4960269473569313  1.0000
  C   C10       1.0  0.5168979554646997  0.49677650155638986  0.23981248046568035  1.0000
  C   C11       1.0  0.4845070117940793  0.543203907952652  0.19847409840142663  1.0000
  C   C12       1.0  0.8341966939328672  0.5776984432858896  0.6332522335765491  1.0000
  C   C13       1.0  0.4833129870730914  0.5377081280163268  0.1259858933414648  1.0000
  C   C14       1.0  0.5124347028872194  0.48358791319409994  0.09365821931940135  1.0000
  C   C15       1.0  0.5435588633924908  0.43621931845321876  0.13454963714110593  1.0000
  C   C16       1.0  0.4706642928638233  0.30605280273228896  0.48214341681527645  1.0000
  C   C17       1.0  0.5476052305735095  0.4441321153631109  0.20746460297613117  1.0000
  C   C18       1.0  0.493497682696983  0.45026969251100735  0.8755444869305934  1.0000
  C   C19       1.0  0.48723406952634474  0.4447666186322365  0.8007032879897481  1.0000
  C   C20       1.0  0.5074837045629367  0.5195170737198043  0.9162338106771488  1.0000
  C   C21       1.0  0.5019995619542427  0.5092164149175034  0.7689365896672413  1.0000
  C   C22       1.0  0.5174659777572758  0.5779020650730473  0.8095534638745294  1.0000
  C   C23       1.0  0.8308758278458657  0.5050722818346499  0.5212998773310319  1.0000
  C   C24       1.0  0.5179634010237495  0.583493755968526  0.8814005996607934  1.0000
  C   C25       1.0  0.49748154348274914  0.7664594111103683  0.5154979287603967  1.0000
  C   C26       1.0  0.45233725378189155  0.7906638843952509  0.4605409830974241  1.0000
  C   C27       1.0  0.4526428625918158  0.863310706681304  0.4630693902225148  1.0000
  C   C28       1.0  0.49794519026438894  0.688373275219476  0.5117972175962464  1.0000
  C   C29       1.0  0.4972602086891059  0.9126531956982193  0.521613066041269  1.0000
  C   C30       1.0  0.5408561850138653  0.8883987597606833  0.5774615558112333  1.0000
  C   C31       1.0  0.5420491175514073  0.815828565205905  0.5737353623250456  1.0000
  C   C32       1.0  0.46875533618039367  0.12247007347629345  0.5397644099912285  1.0000
  C   C33       1.0  0.4624391202413279  0.19309345623898372  0.5381617041204267  1.0000
  C   C34       1.0  0.9105559600133831  0.50151330837182  0.5440485146540228  1.0000
  C   C35       1.0  0.4749712965837889  0.08303599786157892  0.47685163807482683  1.0000
  C   C36       1.0  0.4643073330515719  0.22661569238162113  0.47582771034669963  1.0000
  C   C37       1.0  0.4679070142992501  0.1857880237286622  0.41229883804094675  1.0000
  C   C38       1.0  0.472613759433351  0.11416982495592264  0.41351565167802573  1.0000
  C   C39       1.0  0.2946435452116134  0.45559884680326956  0.46731713502921945  1.0000
  C   C40       1.0  0.7062293014341776  0.5297614660711647  0.5512517230627552  1.0000
  C   C41       1.0  0.7921807531353908  0.5381899471182551  0.5680894418064144  1.0000
  C   C42       1.0  0.2072411236043479  0.43323813043879517  0.4516556496966757  1.0000
  C   C43       1.0  0.9128271406009248  0.5825725116449192  0.6526668577514132  1.0000
  C   C44       1.0  0.08252217786265703  0.2547253775590478  0.29760906856084557  1.0000
  C   C45       1.0  0.9516558508827943  0.5456783752620282  0.6090155040067913  1.0000
  C   C46       1.0  0.11673247292537783  0.2740914348776116  0.23198546613062382  1.0000
  C   C47       1.0  0.1457769757072569  0.21123961960138626  0.20130859199042564  1.0000
  C   C48       1.0  0.4050294807567312  0.2423645062337273  0.3209565331495342  1.0000
  C   C49       1.0  0.4305355386012551  0.28950862874990696  0.26515523412110303  1.0000
  C   C50       1.0  0.3649948225807266  0.3207986248350423  0.23029980771016773  1.0000
  C   C51       1.0  0.8087991872013306  0.3248126417601256  0.48755717320758424  1.0000
  C   C52       1.0  0.7200258711869979  0.3031064541049773  0.4717493841036601  1.0000
  C   C53       1.0  0.6877043783522084  0.2536013161802728  0.5243169283351322  1.0000
  C   C54       1.0  0.9535016782800199  0.461237390011796  0.5043764390811917  1.0000
  C   C55       1.0  0.03710187128697843  0.47800802014727145  0.5227888619419475  1.0000
  C   C56       1.0  0.07535716649520917  0.5263931203093649  0.5853726315874114  1.0000
  C   C57       1.0  0.0340942774025521  0.5559322952384775  0.6283251821238808  1.0000
  N   N1        1.0  0.5107426371074624  0.4729126767169163  0.02026815762131661  1.0000
  N   N2        1.0  0.5116285189079193  0.529443827649054  0.9885224808684968  1.0000
  N   N3        1.0  0.49904521423678744  0.9871332427879342  0.5289242126159623  1.0000
  N   N4        1.0  0.47971109061546696  0.0103326160068704  0.4707756014306739  1.0000
  O   O1        1.0  0.5003831320413425  0.5014926471813795  0.5031817130527827  1.0000
  O   O2        1.0  0.32774712454212823  0.44932791959859497  0.529576255690678  1.0000
  O   O3        1.0  0.6794043306010168  0.5792340967984517  0.5805830175931419  1.0000
  O   O4        1.0  0.3294075435379683  0.4789688712807633  0.41740762330117326  1.0000
  O   O5        1.0  0.664404718905196  0.47213572170725365  0.5123193602399995  1.0000
  O   O6        1.0  0.04487493278503511  0.3067973168544568  0.3256846031043282  1.0000
  O   O7        1.0  0.47002559902318114  0.37743680462732954  0.7650790102207524  1.0000
  O   O8        1.0  0.48492538190545537  0.38953515007380457  0.9062939134001271  1.0000
  O   O9        1.0  0.5295931996122436  0.6482278807478324  0.9226504994282936  1.0000
  O   O10       1.0  0.4690868719423023  0.21258412601233806  0.3486906198438008  1.0000
  O   O11       1.0  0.7921571301911216  0.4836423681824515  0.45434965872463823  1.0000
  O   O12       1.0  0.5179611111108643  0.3433563434487752  0.44801529598831996  1.0000
  O   O13       1.0  0.8374143157290207  0.3705555251914276  0.43501633340535767  1.0000
  O   O14       1.0  0.5495124804116075  0.6719660193420652  0.5567411134860336  1.0000
  O   O15       1.0  0.4723454763656889  0.4442760692800292  0.6537650440606485  1.0000
  O   O16       1.0  0.4731799621896045  0.5392481436944865  0.3409657129714248  1.0000
  O   O17       1.0  0.5326007668382148  0.5646188979635484  0.667855587583894  1.0000
  O   O18       1.0  0.555162175390798  0.464437524715777  0.3531616009180213  1.0000
  O   O19       1.0  0.4304565964480886  0.3303369732972925  0.523365861503315  1.0000
  O   O20       1.0  0.4467767016334962  0.6445119938506922  0.4636745450044658  1.0000
