data_image0
_chemical_formula_structural       Al2H8C18N2O14F2
_chemical_formula_sum              "Al2 H8 C18 N2 O14 F2"
_cell_length_a       6.86032014953002
_cell_length_b       11.23324417572374
_cell_length_c       11.17582011965025
_cell_angle_alpha    79.224082143211
_cell_angle_beta     72.16284049975762
_cell_angle_gamma    70.87717336097816

_space_group_name_H-M_alt    "P 1"
_space_group_IT_number       1

loop_
  _space_group_symop_operation_xyz
  'x, y, z'

loop_
  _atom_site_type_symbol
  _atom_site_label
  _atom_site_symmetry_multiplicity
  _atom_site_fract_x
  _atom_site_fract_y
  _atom_site_fract_z
  _atom_site_occupancy
  Al  Al1       1.0  0.509908283521959  0.4886930543884064  0.5009891250227271  1.0000
  Al  Al2       1.0  0.010328979166352746  0.48951751124112525  0.5003245639701108  1.0000
  H   H1        1.0  0.24057446528085083  0.6298355305871226  0.39658754411465214  1.0000
  H   H2        1.0  0.7612607240430904  0.3670434985854171  0.6271128582589257  1.0000
  H   H3        1.0  0.7829449572481691  0.10271369229983662  0.4601148204784806  1.0000
  H   H4        1.0  0.23678334447619423  0.8769396627415985  0.5388564247303905  1.0000
  H   H5        1.0  0.17802972250187574  0.7000180994624046  0.09922968785763693  1.0000
  H   H6        1.0  0.38199933694560434  0.5542601423650738  0.11119694734161102  1.0000
  H   H7        1.0  0.49575582881995234  0.5590078178121871  0.8727380644399363  1.0000
  H   H8        1.0  0.28725795202218046  0.7032140293722406  0.8634112292957284  1.0000
  C   C1        1.0  0.8770836919292434  0.4858520178158586  0.27780927419833296  1.0000
  C   C2        1.0  0.6316187192388937  0.7143159409140837  0.5066272370214904  1.0000
  C   C3        1.0  0.14516263749740688  0.48399111120892263  0.7253704419637402  1.0000
  C   C4        1.0  0.38778388456935176  0.264955255725539  0.49324106693983094  1.0000
  C   C5        1.0  0.5686253975860752  0.855482415247579  0.5066439231266671  1.0000
  C   C6        1.0  0.45106635845444026  0.12393878612004271  0.4920993880704715  1.0000
  C   C7        1.0  0.7184969186407029  0.9216244128417019  0.4864446391383982  1.0000
  C   C8        1.0  0.3011207355934076  0.0579122499391573  0.5123572404302337  1.0000
  C   C9        1.0  0.6641090090964994  0.05249714510290459  0.47789689721146555  1.0000
  C   C10       1.0  0.3558190448773784  0.9269946034009282  0.5208049945305007  1.0000
  C   C11       1.0  0.9485405780643532  0.4797740744705337  0.1387410746955382  1.0000
  C   C12       1.0  0.08094533141220951  0.4807936481854825  0.8654401683694604  1.0000
  C   C13       1.0  0.1073217235953336  0.5331870578187649  0.06173559453212363  1.0000
  C   C14       1.0  0.9231712950171058  0.4246584982435308  0.9424040127238342  1.0000
  C   C15       1.0  0.17076747911156082  0.5339481531953182  0.9307092803298006  1.0000
  C   C16       1.0  0.8591828554943888  0.42408881146272404  0.07412582473433106  1.0000
  C   C17       1.0  0.25673409413555953  0.6065736877583917  0.06327069694953744  1.0000
  C   C18       1.0  0.3275609691931081  0.608507918455267  0.9142290556677184  1.0000
  N   N1        1.0  0.9424104793504141  0.8521445140104474  0.4835295574712506  1.0000
  N   N2        1.0  0.07617652634119311  0.12623264987115593  0.5167787746950055  1.0000
  O   O1        1.0  0.6788976837670545  0.5015742239085128  0.33113368822971273  1.0000
  O   O2        1.0  0.8303578203656488  0.6592673695765117  0.49170206397975136  1.0000
  O   O3        1.0  0.9990871517804435  0.49657817198217913  0.6721950466902842  1.0000
  O   O4        1.0  0.5326603347785904  0.3153569694246202  0.4836542015229669  1.0000
  O   O5        1.0  0.342296827223798  0.47397641517279965  0.6720930905378779  1.0000
  O   O6        1.0  0.1891340570561439  0.32017370040018994  0.5086246240319953  1.0000
  O   O7        1.0  0.021825018219864427  0.48012260988789995  0.3295353090683122  1.0000
  O   O8        1.0  0.4863156925181825  0.6637239530480558  0.5173166285813836  1.0000
  O   O9        1.0  0.2574044230953802  0.5475444565975849  0.44539996577243113  1.0000
  O   O10       1.0  0.7619252383863184  0.432487753978819  0.5567848887642414  1.0000
  O   O11       1.0  0.979956474009249  0.8181103798066617  0.5880441900654889  1.0000
  O   O12       1.0  0.07656842626956005  0.8385736977992124  0.3798424794830454  1.0000
  O   O13       1.0  0.9432389930770101  0.1349646415352836  0.6208112400011746  1.0000
  O   O14       1.0  0.037635186555874604  0.16252622038732062  0.4126078089033812  1.0000
  F   F1        1.0  0.8316753065944553  0.36340800850995697  0.8913757061781241  1.0000
  F   F2        1.0  0.7116651843790223  0.3629405350335518  0.1381146378271652  1.0000
