data_image0
_chemical_formula_structural       Sm4H24C12N24O24
_chemical_formula_sum              "Sm4 H24 C12 N24 O24"
_cell_length_a       8.998706200579377
_cell_length_b       10.204228134238658
_cell_length_c       12.798822115179503
_cell_angle_alpha    90.00016348179615
_cell_angle_beta     90.00051580095744
_cell_angle_gamma    106.65460018459927

_space_group_name_H-M_alt    "P 1"
_space_group_IT_number       1

loop_
  _space_group_symop_operation_xyz
  'x, y, z'

loop_
  _atom_site_type_symbol
  _atom_site_label
  _atom_site_symmetry_multiplicity
  _atom_site_fract_x
  _atom_site_fract_y
  _atom_site_fract_z
  _atom_site_occupancy
  Sm  Sm1       1.0  0.22072954008916665  0.13126116021107484  0.3220328311596532  1.0000
  Sm  Sm2       1.0  0.720731206642931  0.13125618641768  0.677966377157702  1.0000
  Sm  Sm3       1.0  0.8552048164227626  0.573569013055163  0.17415144136034402  1.0000
  Sm  Sm4       1.0  0.3551918590365587  0.5735584572874612  0.8258520263336564  1.0000
  H   H1        1.0  0.8581530771103018  0.5170636016219986  0.42294615201225844  1.0000
  H   H2        1.0  0.3581454659748998  0.5170582641933235  0.5770540724043443  1.0000
  H   H3        1.0  0.8213797698214902  0.6578421574255342  0.3941083964367422  1.0000
  H   H4        1.0  0.3213722383257361  0.6578360050797298  0.6058981873445006  1.0000
  H   H5        1.0  0.9193408427336887  0.8514694293213336  0.2694888771588211  1.0000
  H   H6        1.0  0.4193400289076407  0.8514589130636875  0.7305156659356699  1.0000
  H   H7        1.0  0.7425187137192495  0.8371922901104655  0.2422350142575525  1.0000
  H   H8        1.0  0.2425211627659535  0.8371932434015433  0.7577707253430574  1.0000
  H   H9        1.0  0.8965239330317659  0.3516820953569634  0.0052615428862026  1.0000
  H   H10       1.0  0.39652814110447565  0.35168582709218293  0.9947424299894791  1.0000
  H   H11       1.0  0.9417997889361729  0.49717756152557485  0.9544453009643874  1.0000
  H   H12       1.0  0.4418027135913505  0.497183439217281  0.04555540193548071  1.0000
  H   H13       1.0  0.0823865586049806  0.4803091223380491  0.3074603828472533  1.0000
  H   H14       1.0  0.5823836760741372  0.4803033297569783  0.6925434862383071  1.0000
  H   H15       1.0  0.1582719352460983  0.47252947610878926  0.1980607012918796  1.0000
  H   H16       1.0  0.6582626630512819  0.4725205292050631  0.8019444079362543  1.0000
  H   H17       1.0  0.7011467489772939  0.6734093333984955  0.9814089566173507  1.0000
  H   H18       1.0  0.20114777592818456  0.673417111557235  0.0185930014369049  1.0000
  H   H19       1.0  0.8335230129720796  0.7923061467214153  0.0245316190884566  1.0000
  H   H20       1.0  0.333527696870199  0.7923055998562913  0.9754675529441387  1.0000
  H   H21       1.0  0.9965611977335769  0.12430950548202445  0.1392403182236279  1.0000
  H   H22       1.0  0.4965740118402237  0.12431409520463889  0.8607613908357905  1.0000
  H   H23       1.0  0.9215708850308885  0.1756736625109028  0.23813752629999393  1.0000
  H   H24       1.0  0.4215741654501953  0.1756705054679414  0.761863053528586  1.0000
  C   C1        1.0  0.45982507253970073  0.19607366553005076  0.521049632107129  1.0000
  C   C2        1.0  0.9598203008045089  0.19607970279998443  0.4789457685439871  1.0000
  C   C3        1.0  0.4306767482971167  0.046246157760513995  0.5071027634130658  1.0000
  C   C4        1.0  0.9306814472222272  0.046243842777123206  0.4928819344796551  1.0000
  C   C5        1.0  0.2650710834993075  0.9702160439229599  0.0956608094396358  1.0000
  C   C6        1.0  0.7650702953308794  0.9702148937021489  0.9043399243575863  1.0000
  C   C7        1.0  0.1536241923386895  0.8634599171171399  0.1578918376206389  1.0000
  C   C8        1.0  0.653622841823896  0.8634562488654819  0.8421087179869672  1.0000
  C   C9        1.0  0.5746177059483697  0.3058016377577174  0.24554508588348511  1.0000
  C   C10       1.0  0.07461915374258146  0.3057840368630308  0.7544567498835946  1.0000
  C   C11       1.0  0.4867945643687364  0.4039020824823467  0.2198785036585846  1.0000
  C   C12       1.0  0.9867967329843166  0.40389168397043546  0.7801152250927359  1.0000
  N   N1        1.0  0.3788051029565692  0.2716173842490476  0.47535151318692925  1.0000
  N   N2        1.0  0.8788083877791661  0.27162255499901977  0.5246474667163454  1.0000
  N   N3        1.0  0.437185510972995  0.398017795102099  0.513975716426593  1.0000
  N   N4        1.0  0.9371889518425858  0.3980216404155214  0.4860247177653392  1.0000
  N   N5        1.0  0.5511602708666246  0.3977716557913098  0.5795625789951799  1.0000
  N   N6        1.0  0.05116194824351785  0.397776266166275  0.42044011275866927  1.0000
  N   N7        1.0  0.5669869662637624  0.27202646696767363  0.5855224002906922  1.0000
  N   N8        1.0  0.06698927132048742  0.2720330796132373  0.4144777432015658  1.0000
  N   N9        1.0  0.29012665496188106  0.10279615466729551  0.12038008360504192  1.0000
  N   N10       1.0  0.790129543092675  0.10279370496488838  0.879614023475959  1.0000
  N   N11       1.0  0.38484835101917975  0.17267120063808508  0.046265052133435305  1.0000
  N   N12       1.0  0.884849058136396  0.17266935878892298  0.95373294532245  1.0000
  N   N13       1.0  0.41831181806121254  0.08439201977682838  0.9807088529014507  1.0000
  N   N14       1.0  0.9183078235010882  0.08438838908859479  0.0192930484114555  1.0000
  N   N15       1.0  0.3437083539624695  0.9566846166661095  0.009106981921164  1.0000
  N   N16       1.0  0.8437048556421585  0.9566821186637139  0.9908949954520027  1.0000
  N   N17       1.0  0.7264253644776983  0.3288513385132176  0.2277814568061416  1.0000
  N   N18       1.0  0.22642118345217446  0.32883605901743346  0.7722206088612894  1.0000
  N   N19       1.0  0.7575019551906975  0.2138336624233616  0.2583818877885875  1.0000
  N   N20       1.0  0.2575053374202554  0.21382519716622275  0.7416138449510186  1.0000
  N   N21       1.0  0.6296576693524044  0.12378989704132691  0.2918641452865671  1.0000
  N   N22       1.0  0.1296616703867031  0.12377807345765035  0.7081313464483259  1.0000
  N   N23       1.0  0.5128192596824944  0.18046031937860357  0.2845827072845069  1.0000
  N   N24       1.0  0.012818266855255389  0.18044350940253645  0.7154184365534916  1.0000
  O   O1        1.0  0.8323785121908144  0.5728259086596734  0.3650681559695101  1.0000
  O   O2        1.0  0.3323725507779968  0.5728168481893404  0.6349336036322059  1.0000
  O   O3        1.0  0.8170838803638529  0.7858689919122808  0.2527361532264223  1.0000
  O   O4        1.0  0.3170792436062655  0.7858628102431595  0.7472652437041846  1.0000
  O   O5        1.0  0.9014019926603468  0.4487556248908148  0.0198466114376146  1.0000
  O   O6        1.0  0.40140377296317803  0.44875930101940026  0.9801545014678937  1.0000
  O   O7        1.0  0.07901538782601845  0.5066792720546899  0.2314549724131467  1.0000
  O   O8        1.0  0.5790165352647136  0.5066822075564942  0.7685465952457875  1.0000
  O   O9        1.0  0.7945982223234932  0.6891634526090369  0.0250189168058057  1.0000
  O   O10       1.0  0.2945944346678431  0.68916412254282  0.9749781982625265  1.0000
  O   O11       1.0  0.014432266809599498  0.14633742437965216  0.2153708224057667  1.0000
  O   O12       1.0  0.5144420724236128  0.1463454404073801  0.7846318118197856  1.0000
  O   O13       1.0  0.33141203089314786  0.9893333678289834  0.4391168656613402  1.0000
  O   O14       1.0  0.8314045039942002  0.9893349315128644  0.5608741747104773  1.0000
  O   O15       1.0  0.5082763076162917  0.9915194252134891  0.567402667522785  1.0000
  O   O16       1.0  0.00827486127875678  0.9915241972990214  0.4326011893490715  1.0000
  O   O17       1.0  0.12355803266066086  0.9004127659388812  0.2484040230448841  1.0000
  O   O18       1.0  0.6235454294109387  0.9004024833323708  0.7515964325858705  1.0000
  O   O19       1.0  0.088610200302945  0.7475579026974513  0.1171150843592272  1.0000
  O   O20       1.0  0.5886039302613353  0.7475577441321163  0.8828785313141267  1.0000
  O   O21       1.0  0.5650953343280846  0.5137323473792887  0.1734472663180924  1.0000
  O   O22       1.0  0.06508900510313245  0.5137216483759203  0.8265511054427108  1.0000
  O   O23       1.0  0.34380426469000713  0.36945374179452267  0.24137452142226581  1.0000
  O   O24       1.0  0.8438054385468445  0.3694349582839251  0.7586205679938516  1.0000
