data_image0
_chemical_formula_structural       Nd4H16C24N8O28
_chemical_formula_sum              "Nd4 H16 C24 N8 O28"
_cell_length_a       6.826213914090231
_cell_length_b       11.335982103953993
_cell_length_c       13.338910109158089
_cell_angle_alpha    104.96626760907066
_cell_angle_beta     90.00201910386998
_cell_angle_gamma    107.56214250420975

_space_group_name_H-M_alt    "P 1"
_space_group_IT_number       1

loop_
  _space_group_symop_operation_xyz
  'x, y, z'

loop_
  _atom_site_type_symbol
  _atom_site_label
  _atom_site_symmetry_multiplicity
  _atom_site_fract_x
  _atom_site_fract_y
  _atom_site_fract_z
  _atom_site_occupancy
  Nd  Nd1       1.0  0.5794287308471411  0.30004253550105625  0.11909556380731345  1.0000
  Nd  Nd2       1.0  0.27924205951001824  0.6998897423721573  0.38092083800245996  1.0000
  Nd  Nd3       1.0  0.4205662556078025  0.6999560283991427  0.8809058034481296  1.0000
  Nd  Nd4       1.0  0.7207631894068384  0.30010883742201594  0.6190782837950194  1.0000
  H   H1        1.0  0.9977722222827693  0.12777403681581484  0.19566744637704392  1.0000
  H   H2        1.0  0.8703164909817788  0.8720769512063882  0.30421944790536054  1.0000
  H   H3        1.0  0.0022241858272238155  0.8722302939457264  0.8043352075736789  1.0000
  H   H4        1.0  0.12968480025717352  0.1279283552575734  0.695781174695142  1.0000
  H   H5        1.0  0.9176694412130074  0.1661123509846831  0.3873111660314023  1.0000
  H   H6        1.0  0.7519140932912408  0.8338414447821448  0.11258588097647497  1.0000
  H   H7        1.0  0.08233627774135498  0.8338871675845279  0.6126919136993009  1.0000
  H   H8        1.0  0.24809353510111262  0.16616481530595445  0.8874164538320598  1.0000
  H   H9        1.0  0.544568873707874  0.5690735359414703  0.17763851080430723  1.0000
  H   H10       1.0  0.9755736582893063  0.43084332477994963  0.3223241054688515  1.0000
  H   H11       1.0  0.45541487517093066  0.4309259908593148  0.8223623215087554  1.0000
  H   H12       1.0  0.024424750615608618  0.5691562234449987  0.67767373295964  1.0000
  H   H13       1.0  0.6714041414221794  0.567361828293265  0.2721081949532191  1.0000
  H   H14       1.0  0.10392862739681161  0.4327100249168295  0.22780375691000637  1.0000
  H   H15       1.0  0.32859129822812594  0.43264349471878916  0.7278894325156529  1.0000
  H   H16       1.0  0.8960673452632547  0.5672875826153642  0.7721966472766297  1.0000
  C   C1        1.0  0.3995870733240637  0.2737265238691649  0.3595160399780326  1.0000
  C   C2        1.0  0.12586695822313496  0.7261827189871255  0.1404199168617595  1.0000
  C   C3        1.0  0.6004167126956333  0.7262720600620296  0.6404823330365372  1.0000
  C   C4        1.0  0.8741304689130157  0.2738177945764518  0.8595773872478816  1.0000
  C   C5        1.0  0.6246421534831939  0.3391676188609408  0.3797377614302491  1.0000
  C   C6        1.0  0.28532225675046874  0.660750381723247  0.12020238273960619  1.0000
  C   C7        1.0  0.37535778219442767  0.6608291271914124  0.6202459572952179  1.0000
  C   C8        1.0  0.7146678093181292  0.33925005833386723  0.8798069000259827  1.0000
  C   C9        1.0  0.11322828886399351  0.17449558740848659  0.2615098735348482  1.0000
  C   C10       1.0  0.9389423169356022  0.8253931054418828  0.23837160650180783  1.0000
  C   C11       1.0  0.8867672177432765  0.8254981622096408  0.7384919189661259  1.0000
  C   C12       1.0  0.061060415470358  0.17461508014158506  0.7616304081847075  1.0000
  C   C13       1.0  0.24146935160509742  0.25875295518915203  0.42617519089661465  1.0000
  C   C14       1.0  0.9827956269916952  0.7411834208137049  0.07371076621772228  1.0000
  C   C15       1.0  0.7585378497583973  0.7412436715011947  0.5738287430077305  1.0000
  C   C16       1.0  0.017206657106910953  0.2588209427381969  0.9262866472324658  1.0000
  C   C17       1.0  0.23112783190298095  0.3079272573346613  0.5398331477041366  1.0000
  C   C18       1.0  0.9230127724801348  0.6920093393339852  0.9600631940383973  1.0000
  C   C19       1.0  0.7688769381036593  0.6920703657432198  0.46016501093545503  1.0000
  C   C20       1.0  0.07699093504005822  0.3079978674549152  0.0399416010484686  1.0000
  C   C21       1.0  0.566938354311894  0.9949462222910056  0.04532443728133019  1.0000
  C   C22       1.0  0.5718016602532643  0.005133072794521398  0.45461523483233873  1.0000
  C   C23       1.0  0.4330511091201429  0.005070574044921698  0.9546854960634616  1.0000
  C   C24       1.0  0.42819252492860477  0.9948434038480228  0.54537820559797  1.0000
  N   N1        1.0  0.31620468202267926  0.22170094355228534  0.2573572438873554  1.0000
  N   N2        1.0  0.09456660644362805  0.7781676531779734  0.24255675929354217  1.0000
  N   N3        1.0  0.6837971338049583  0.778299557600228  0.7426423065710138  1.0000
  N   N4        1.0  0.905433260922088  0.22183188193933023  0.7574433253055303  1.0000
  N   N5        1.0  0.06321674190590443  0.19511314122492956  0.36126909555020587  1.0000
  N   N6        1.0  0.868335821894213  0.804812281274685  0.13861139709792508  1.0000
  N   N7        1.0  0.9367758149587215  0.804883495438453  0.6387325913818811  1.0000
  N   N8        1.0  0.131659138845869  0.19519208502106977  0.8613852672130519  1.0000
  O   O1        1.0  0.7223829677620728  0.3504177861480428  0.2986269368312476  1.0000
  O   O2        1.0  0.3717700644571379  0.6494711997534421  0.20126767909749785  1.0000
  O   O3        1.0  0.27762031096272477  0.6495827108674418  0.701373362410031  1.0000
  O   O4        1.0  0.6282205443972161  0.35052739898438984  0.798727698340052  1.0000
  O   O5        1.0  0.058453694493046326  0.31566318634201446  0.5698572963760284  1.0000
  O   O6        1.0  0.7427050034805235  0.6845163714156256  0.930073272686485  1.0000
  O   O7        1.0  0.94155203953693  0.6843334355147305  0.43014738613307196  1.0000
  O   O8        1.0  0.2572923673379108  0.31549280985878875  0.06992296655712238  1.0000
  O   O9        1.0  0.7132851537949064  0.3810090622261696  0.47043084035770016  1.0000
  O   O10       1.0  0.33208723024583264  0.6190095399718485  0.029503562136952197  1.0000
  O   O11       1.0  0.28673131938901963  0.6189885277555331  0.52957330854516  1.0000
  O   O12       1.0  0.6679087841079863  0.38098522467164025  0.9704894605020796  1.0000
  O   O13       1.0  0.39123283603179715  0.3413812553991633  0.602422086776329  1.0000
  O   O14       1.0  0.04937521611457645  0.6582756882088814  0.8974842923015912  1.0000
  O   O15       1.0  0.6087748420237347  0.6586163235221602  0.3975835589797397  1.0000
  O   O16       1.0  0.9506261252392036  0.3417238651979631  0.10251279761121876  1.0000
  O   O17       1.0  0.6474465978373727  0.09530843428016307  0.11796030720204699  1.0000
  O   O18       1.0  0.5519158972299394  0.9047977842024296  0.3819828435067762  1.0000
  O   O19       1.0  0.3525367484125397  0.9046815084613228  0.8820338885746606  1.0000
  O   O20       1.0  0.4481005302755179  0.09520556780701378  0.6180233406961192  1.0000
  O   O21       1.0  0.6459826340375087  0.528239257680795  0.19594855985187817  1.0000
  O   O22       1.0  0.1178581607057438  0.4717604007461842  0.3039914269616872  1.0000
  O   O23       1.0  0.35400502905891057  0.4717593089632641  0.8040520582643537  1.0000
  O   O24       1.0  0.8821441601986139  0.5282381828367163  0.6960069459638091  1.0000
  O   O25       1.0  0.5842250417464926  0.8843937791054797  0.03749509395693452  1.0000
  O   O26       1.0  0.6994935944674976  0.11580405717362645  0.4623949328996061  1.0000
  O   O27       1.0  0.4157577750267264  0.11559803186716518  0.9625085149848187  1.0000
  O   O28       1.0  0.30051847938570114  0.88419645090223  0.5376038694884568  1.0000
