data_image0
_chemical_formula_structural       Na4H12C20N8O12
_chemical_formula_sum              "Na4 H12 C20 N8 O12"
_cell_length_a       4.467171100207672
_cell_length_b       11.537332205251383
_cell_length_c       11.716304577608275
_cell_angle_alpha    89.9972435988616
_cell_angle_beta     89.99967917134886
_cell_angle_gamma    98.27091869521556

_space_group_name_H-M_alt    "P 1"
_space_group_IT_number       1

loop_
  _space_group_symop_operation_xyz
  'x, y, z'

loop_
  _atom_site_type_symbol
  _atom_site_label
  _atom_site_symmetry_multiplicity
  _atom_site_fract_x
  _atom_site_fract_y
  _atom_site_fract_z
  _atom_site_occupancy
  Na  Na1       1.0  0.3295317111104978  0.6242735343168704  0.4754017970124664  1.0000
  Na  Na2       1.0  0.6706376277845222  0.8756672697572154  0.9751835978950963  1.0000
  Na  Na3       1.0  0.6705620557036696  0.375631599645267  0.5247437080989883  1.0000
  Na  Na4       1.0  0.3295077637776912  0.1243666271220079  0.0246503724287166  1.0000
  H   H1        1.0  0.10957714576498027  0.46421970204933416  0.6887922274189505  1.0000
  H   H2        1.0  0.8901010852469183  0.0357734020090135  0.18883248095382044  1.0000
  H   H3        1.0  0.8901106688913456  0.5356710902665682  0.3112448825155525  1.0000
  H   H4        1.0  0.10997872391831007  0.9642586847026279  0.8111943830689938  1.0000
  H   H5        1.0  0.2679359420474299  0.4980425393460024  0.8889567578087919  1.0000
  H   H6        1.0  0.7315349661600052  0.0018693468883696999  0.3889153148736639  1.0000
  H   H7        1.0  0.731657151569017  0.5018096511627163  0.110981345816441  1.0000
  H   H8        1.0  0.26848534110018096  0.9981591897854115  0.6110552175421587  1.0000
  H   H9        1.0  0.08696876057630468  0.6654995165466813  0.9976083977644308  1.0000
  H   H10       1.0  0.9131736872930603  0.8345338256932211  0.4975857704387181  1.0000
  H   H11       1.0  0.9133739853880128  0.3345170279286407  0.0023561600099384  1.0000
  H   H12       1.0  0.08680508046265349  0.1655463356919569  0.5024291433912609  1.0000
  C   C1        1.0  0.7536014664466818  0.697553393599108  0.7526056089159708  1.0000
  C   C2        1.0  0.24600584053511204  0.8023229125554682  0.2525330205858367  1.0000
  C   C3        1.0  0.24633145947831983  0.30241990702482713  0.2474238171941252  1.0000
  C   C4        1.0  0.7538096726626975  0.19763540713760358  0.7474554374566722  1.0000
  C   C5        1.0  0.8392327455613113  0.6060500215636537  0.6800191014085115  1.0000
  C   C6        1.0  0.1605830843287848  0.8939281932045731  0.1800234339942506  1.0000
  C   C7        1.0  0.1608832299193779  0.3940013597966683  0.3199394812022405  1.0000
  C   C8        1.0  0.8392020141698493  0.10600208298829729  0.8199402729147421  1.0000
  C   C9        1.0  0.03308052795490106  0.5351039573770321  0.7371403431226966  1.0000
  C   C10       1.0  0.9672549582462436  0.9650302775554777  0.2372078542419231  1.0000
  C   C11       1.0  0.9672658191214792  0.46500190230431565  0.2627627597040814  1.0000
  C   C12       1.0  0.0327870828482233  0.0349781377590332  0.7627865769485284  1.0000
  C   C13       1.0  0.12112985162764286  0.5538090585570146  0.8485170731231974  1.0000
  C   C14       1.0  0.8793785469536033  0.9463800997179561  0.34863004228463973  1.0000
  C   C15       1.0  0.8791953748398739  0.4462880279687268  0.1513774948200748  1.0000
  C   C16       1.0  0.12079437052434369  0.05367395399524359  0.651384018445242  1.0000
  C   C17       1.0  0.01894575783089884  0.6464102006725695  0.909459115747957  1.0000
  C   C18       1.0  0.9811372349794921  0.8536039102880366  0.40945079995395867  1.0000
  C   C19       1.0  0.9809752973031252  0.35352456432841706  0.0905566551064965  1.0000
  C   C20       1.0  0.018809154673100202  0.14640004791171182  0.5905530200707786  1.0000
  N   N1        1.0  0.5579895027881392  0.7780974618294891  0.7142727082374876  1.0000
  N   N2        1.0  0.4418005017843214  0.7218238378899072  0.21421717855388783  1.0000
  N   N3        1.0  0.4420835824962167  0.22192848926453476  0.2857900034186969  1.0000
  N   N4        1.0  0.5580127833647809  0.2781467383372061  0.785769572177216  1.0000
  N   N5        1.0  0.8421272439027802  0.7153159254714722  0.8618716269842607  1.0000
  N   N6        1.0  0.15744058959208465  0.7845609493238966  0.3618205561713594  1.0000
  N   N7        1.0  0.15758039725521655  0.2845678779218588  0.1381859673694308  1.0000
  N   N8        1.0  0.8423618197871362  0.21541049309495722  0.638183264779677  1.0000
  O   O1        1.0  0.45939319893023606  0.7723815935296015  0.6137054036452767  1.0000
  O   O2        1.0  0.5407687772041853  0.7276527974054262  0.1136963310545838  1.0000
  O   O3        1.0  0.5406831322944895  0.22769602036345296  0.3863564532697268  1.0000
  O   O4        1.0  0.45927966609968246  0.2723608761768617  0.8863211448130882  1.0000
  O   O5        1.0  0.7618170508074937  0.584124323144934  0.5755558791123363  1.0000
  O   O6        1.0  0.23813256025994167  0.9159643571897146  0.07558546078604418  1.0000
  O   O7        1.0  0.23809545231162588  0.41590324870421813  0.42442660260225307  1.0000
  O   O8        1.0  0.7619075676809004  0.0840510610252991  0.9244200658889666  1.0000
  O   O9        1.0  0.4886546430558312  0.8539666378743007  0.7822019574137967  1.0000
  O   O10       1.0  0.5115864951696522  0.6460829351272609  0.2822164509175238  1.0000
  O   O11       1.0  0.5115303980161842  0.1460532758677928  0.21788209205156756  1.0000
  O   O12       1.0  0.48841078823044637  0.35395608772859793  0.7178317508152362  1.0000
