data_image0
_chemical_formula_structural       Cu12H42C120N24
_chemical_formula_sum              "Cu12 H42 C120 N24"
_cell_length_a       33.80482491169141
_cell_length_b       33.962144650216615
_cell_length_c       34.92276111116933
_cell_angle_alpha    89.99585154131297
_cell_angle_beta     89.87937311614583
_cell_angle_gamma    89.92141273600909

_space_group_name_H-M_alt    "P 1"
_space_group_IT_number       1

loop_
  _space_group_symop_operation_xyz
  'x, y, z'

loop_
  _atom_site_type_symbol
  _atom_site_label
  _atom_site_symmetry_multiplicity
  _atom_site_fract_x
  _atom_site_fract_y
  _atom_site_fract_z
  _atom_site_occupancy
  Cu  Cu1       1.0  0.2173383314174515  0.21792309639522506  0.15534914252480553  1.0000
  Cu  Cu2       1.0  0.21740602539576062  0.15146978862649263  0.21932832733039484  1.0000
  Cu  Cu3       1.0  0.15018535176080408  0.2175505159101405  0.21897257686688934  1.0000
  Cu  Cu4       1.0  0.7828779816255889  0.21788568637700934  0.8451698338747776  1.0000
  Cu  Cu5       1.0  0.7828932017758135  0.15130958182631105  0.7812072098585716  1.0000
  Cu  Cu6       1.0  0.8496254232268612  0.21765764768304763  0.7812593634115998  1.0000
  Cu  Cu7       1.0  0.21693318215218227  0.7825867578544746  0.8451053595265067  1.0000
  Cu  Cu8       1.0  0.21730718661032  0.8489650257606343  0.7808381155781419  1.0000
  Cu  Cu9       1.0  0.15034347235209822  0.7828029258232975  0.7813961885221445  1.0000
  Cu  Cu10      1.0  0.7828864929033656  0.7824982370681255  0.1551000940892209  1.0000
  Cu  Cu11      1.0  0.7829651273260296  0.8491401751362275  0.21902722591322998  1.0000
  Cu  Cu12      1.0  0.8495049877938214  0.7823915390939575  0.2189032062438088  1.0000
  H   H1        1.0  0.2869461951916108  0.18769859360736527  0.101853110841212  1.0000
  H   H2        1.0  0.2869427743817212  0.0964694322481492  0.18872218182885797  1.0000
  H   H3        1.0  0.0948482280302798  0.2866676505420855  0.18838417450844963  1.0000
  H   H4        1.0  0.1875133159078786  0.28775778398096463  0.1023526951705875  1.0000
  H   H5        1.0  0.1876988586000721  0.09799777531790001  0.28806981249127966  1.0000
  H   H6        1.0  0.0959853991974029  0.18739643598835443  0.2871685680746694  1.0000
  H   H7        1.0  0.7139740429925042  0.18733994960894051  0.8991634922480785  1.0000
  H   H8        1.0  0.7136819963828884  0.0962624630236633  0.8121387034724564  1.0000
  H   H9        1.0  0.9046566653727198  0.2870564673477887  0.8113430267503574  1.0000
  H   H10       1.0  0.8124281633420551  0.28805499693235254  0.8978224312891641  1.0000
  H   H11       1.0  0.8126899824458107  0.09797054192638652  0.7122458235625688  1.0000
  H   H12       1.0  0.9039873283661493  0.1875293522686619  0.713185084074688  1.0000
  H   H13       1.0  0.28503781431034275  0.8137958205690694  0.8993861160618623  1.0000
  H   H14       1.0  0.2861778857204271  0.9042809857080131  0.8117830614770085  1.0000
  H   H15       1.0  0.0954207730550465  0.7131677813057066  0.8114481967279303  1.0000
  H   H16       1.0  0.18785667904680284  0.7116697439968007  0.897333498518762  1.0000
  H   H17       1.0  0.1882058941273357  0.9016808466799944  0.7112550752855853  1.0000
  H   H18       1.0  0.09581581607581309  0.8132627862143877  0.7137933554664144  1.0000
  H   H19       1.0  0.7138899696960195  0.8132280457495046  0.10146069873045603  1.0000
  H   H20       1.0  0.7137159555943954  0.9043603777609662  0.1884207629413837  1.0000
  H   H21       1.0  0.9043190237438238  0.7125697967673831  0.1888569473452009  1.0000
  H   H22       1.0  0.8125252631514854  0.7122444846117164  0.1023104806420037  1.0000
  H   H23       1.0  0.8129440953226563  0.9025771527508725  0.2876337407840666  1.0000
  H   H24       1.0  0.9039199192237248  0.8124247211673393  0.286732275910353  1.0000
  H   H25       1.0  0.9557249142725794  0.9539517119811978  0.47402821118483734  1.0000
  H   H26       1.0  0.044278434986821893  0.04517941120578681  0.4741857242805452  1.0000
  H   H27       1.0  0.044238202462743494  0.9538771599852612  0.5257345112936632  1.0000
  H   H28       1.0  0.955752966326742  0.0454089466569911  0.5256983331972052  1.0000
  H   H29       1.0  0.00044252701842139973  0.9995850278025529  0.366995600643989  1.0000
  H   H30       1.0  0.00021903773371430014  0.00012934070342400002  0.6328332007460202  1.0000
  H   H31       1.0  0.47308489412720434  0.9565799797355015  0.9546387513848343  1.0000
  H   H32       1.0  0.4733933886826165  0.04292251183213121  0.04509341920875439  1.0000
  H   H33       1.0  0.5267006670605383  0.04300616911658041  0.9547489191714575  1.0000
  H   H34       1.0  0.5265007527818852  0.9565211847718021  0.045071570815956405  1.0000
  H   H35       1.0  0.36255561758025573  0.00021825263685570004  0.0001753911098419  1.0000
  H   H36       1.0  0.637281215254795  0.00046139615803040006  0.0006913413585323  1.0000
  H   H37       1.0  0.9574056097159911  0.47334637977946414  0.953962867176351  1.0000
  H   H38       1.0  0.0426152250860667  0.4732095263046079  0.0455977871884485  1.0000
  H   H39       1.0  0.9574894662634891  0.5264641178390195  0.0458025501477906  1.0000
  H   H40       1.0  0.0426199667031426  0.5263573294809234  0.9537777656399696  1.0000
  H   H41       1.0  0.9999840077468674  0.3631068784353317  0.9997632463841839  1.0000
  H   H42       1.0  0.00022418735197499924  0.6365812277186296  0.9999259486953563  1.0000
  C   C1        1.0  0.28194072451567104  0.16909573454128696  0.12663141692442542  1.0000
  C   C2        1.0  0.2999823257941188  0.13294349616663234  0.1362013106188726  1.0000
  C   C3        1.0  0.28192207506561573  0.12232461876155307  0.17115058470798064  1.0000
  C   C4        1.0  0.12104979513863871  0.2819183688534252  0.1710023555244078  1.0000
  C   C5        1.0  0.1320940388094556  0.3002758726385508  0.13636161326655133  1.0000
  C   C6        1.0  0.16855306233686207  0.28247664499020425  0.12690613657159125  1.0000
  C   C7        1.0  0.16889518303678844  0.1233373511038351  0.2828983833780185  1.0000
  C   C8        1.0  0.13288863575944282  0.13377478224215622  0.3007008124859354  1.0000
  C   C9        1.0  0.1218849107410307  0.169150278465473  0.28240093755147194  1.0000
  C   C10       1.0  0.7188639295117057  0.16876099481870455  0.8743389160037367  1.0000
  C   C11       1.0  0.7008116520295573  0.13265425939628986  0.8647913794930773  1.0000
  C   C12       1.0  0.7187241246471601  0.12207829941539221  0.8297403613274597  1.0000
  C   C13       1.0  0.8785642487274926  0.28229350256160046  0.8288549895920667  1.0000
  C   C14       1.0  0.8675956930307578  0.3006691395005277  0.8635178726875311  1.0000
  C   C15       1.0  0.8312906479827973  0.28278513475212463  0.8731821880407084  1.0000
  C   C16       1.0  0.8313748596043598  0.1233387617037778  0.717437984492399  1.0000
  C   C17       1.0  0.867335972742687  0.13383352743719001  0.6996201319657304  1.0000
  C   C18       1.0  0.8781895978170625  0.16921083539264004  0.7179423493111017  1.0000
  C   C19       1.0  0.2803598453235097  0.8322152722265842  0.8744272666797385  1.0000
  C   C20       1.0  0.29853381992740685  0.8682400871799559  0.864722262765909  1.0000
  C   C21       1.0  0.2809626950469308  0.8785813954432486  0.8295186240438568  1.0000
  C   C22       1.0  0.12153750827364722  0.717861913461185  0.8288384708319184  1.0000
  C   C23       1.0  0.1326215920890732  0.6992208998101221  0.8632951014647219  1.0000
  C   C24       1.0  0.1689257010092788  0.7170900861855998  0.8728512446122567  1.0000
  C   C25       1.0  0.1692142527962517  0.8766165756880896  0.7168679649754068  1.0000
  C   C26       1.0  0.1330642353843743  0.8663599711021633  0.699436549469084  1.0000
  C   C27       1.0  0.12188020813675142  0.8312815493783179  0.7181719483758044  1.0000
  C   C28       1.0  0.7188111949349434  0.831805371583485  0.12625074631709046  1.0000
  C   C29       1.0  0.7007752343687059  0.8679710568254039  0.13587067697586264  1.0000
  C   C30       1.0  0.7187398823394561  0.8785240005050243  0.1708069188910528  1.0000
  C   C31       1.0  0.8783348429208858  0.7175159537057639  0.1713279702489245  1.0000
  C   C32       1.0  0.8674814213885115  0.6992450189581731  0.1366318444744152  1.0000
  C   C33       1.0  0.8312775116136351  0.7173599011497985  0.12697229880990343  1.0000
  C   C34       1.0  0.8315562361801697  0.8770811358760897  0.28246744125837614  1.0000
  C   C35       1.0  0.8674679715438031  0.8664202978909259  0.3001940317885143  1.0000
  C   C36       1.0  0.8781903216899279  0.830887378005997  0.2819849292634942  1.0000
  C   C37       1.0  0.9752034470911681  0.9739168134771179  0.45848455776037156  1.0000
  C   C38       1.0  1.5122852211399834e-05  0.9995306238864081  0.4785649051483176  1.0000
  C   C39       1.0  0.0249349984893925  0.0252024822773294  0.4585725510240124  1.0000
  C   C40       1.0  0.0253699020298441  0.025426342650810303  0.4181541727154823  1.0000
  C   C41       1.0  0.00032156561434959984  0.9995744504633919  0.3981810588749043  1.0000
  C   C42       1.0  0.9750795572081973  0.9737404217606953  0.4180589311684457  1.0000
  C   C43       1.0  0.9999561430493886  0.9995889827801249  0.5212593715045841  1.0000
  C   C44       1.0  0.0248597051243564  0.9739656249951242  0.5413080168395439  1.0000
  C   C45       1.0  0.025237703681511903  0.9739490952861307  0.5817296130399187  1.0000
  C   C46       1.0  0.0001547129814340996  0.9999742828371798  0.6016457464008625  1.0000
  C   C47       1.0  0.9749673296206184  0.025798059949963204  0.5817073226666238  1.0000
  C   C48       1.0  0.9751587679334435  0.025415704083663105  0.5412839656805205  1.0000
  C   C49       1.0  0.45709316208017736  0.9756117690312606  0.974477930849595  1.0000
  C   C50       1.0  0.4778761075892178  0.9997538864702664  0.9998539931213628  1.0000
  C   C51       1.0  0.45723861341969035  0.02404839554965581  0.025336262826840504  1.0000
  C   C52       1.0  0.415477888780444  0.024505353345077207  0.025644151871425398  1.0000
  C   C53       1.0  0.3947748979129031  7.225596502280005e-05  9.25139370693e-05  1.0000
  C   C54       1.0  0.41531815550985124  0.9754852486996416  0.9744146168287385  1.0000
  C   C55       1.0  0.5219677206223566  0.9997420276494966  0.9998833047251524  1.0000
  C   C56       1.0  0.5427341714832323  0.02410866652309811  0.9746143344859635  1.0000
  C   C57       1.0  0.5844996592073458  0.024651244158874906  0.9747074973049195  1.0000
  C   C58       1.0  0.6050644195883095  0.00025384165384420007  0.0004491562023076999  1.0000
  C   C59       1.0  0.5843828451972186  0.975542842744403  0.025856664631938  1.0000
  C   C60       1.0  0.5426196911183467  0.9755759970219063  0.0253867650709907  1.0000
  C   C61       1.0  0.9761458431122491  0.45733797918675384  0.973998391779368  1.0000
  C   C62       1.0  2.8890591842399355e-05  0.47791429109538824  0.9997658581321645  1.0000
  C   C63       1.0  0.0238893713721779  0.45725379213048717  0.025546931008221897  1.0000
  C   C64       1.0  0.024238602880196004  0.41568110591342844  0.025663168362697795  1.0000
  C   C65       1.0  0.9999954069893064  0.39518139867272595  0.9997608438597609  1.0000
  C   C66       1.0  0.9757628957487725  0.41577256229111015  0.9738634738422435  1.0000
  C   C67       1.0  4.240284367539912e-05  0.5217810506031527  0.9997834545300109  1.0000
  C   C68       1.0  0.9762097864548168  0.5424402148837545  0.0256838114212385  1.0000
  C   C69       1.0  0.9759051451398407  0.5840124688392977  0.0258693854415526  1.0000
  C   C70       1.0  0.00017650830074699946  0.6045097145248947  0.9998808166377203  1.0000
  C   C71       1.0  0.024378130233238  0.583940421719568  0.9738380164834126  1.0000
  C   C72       1.0  0.0239281304386125  0.5423697428414231  0.9739255864163923  1.0000
  C   C73       1.0  0.3276333350797316  0.11146929649164151  0.1147340395010374  1.0000
  C   C74       1.0  0.35032710957149504  0.09191080692841781  0.09487185573637191  1.0000
  C   C75       1.0  0.3737174821385736  0.06965993368802262  0.0721924593548735  1.0000
  C   C76       1.0  0.39411203204844014  0.04906853020018081  0.051046029499978815  1.0000
  C   C77       1.0  0.6731361940646181  0.1112681268210878  0.8862518157871975  1.0000
  C   C78       1.0  0.6502284957406915  0.09186062567050611  0.9059663484808098  1.0000
  C   C79       1.0  0.6266479414940564  0.0697244343358321  0.9285175248272424  1.0000
  C   C80       1.0  0.6060326063466945  0.049235444904660114  0.9495113705228705  1.0000
  C   C81       1.0  0.3262056192981646  0.8895772279556483  0.8861073277488458  1.0000
  C   C82       1.0  0.3491451015982888  0.908868532103391  0.905795824554879  1.0000
  C   C83       1.0  0.3729192132050798  0.930785606317322  0.9282629294380059  1.0000
  C   C84       1.0  0.39369598836380965  0.9511184327117309  0.9491647614764815  1.0000
  C   C85       1.0  0.6730361029568641  0.8893480289152081  0.11452534861871301  1.0000
  C   C86       1.0  0.6501151228488453  0.9086873680037117  0.0947954501540949  1.0000
  C   C87       1.0  0.6264780681166755  0.9307364242169882  0.0722620636552662  1.0000
  C   C88       1.0  0.6058531853846887  0.9511290574093818  0.0512264070917681  1.0000
  C   C89       1.0  0.1107181143086464  0.3279813028917715  0.1150170268041038  1.0000
  C   C90       1.0  0.09120436985573831  0.35064107781946063  0.09519046298290591  1.0000
  C   C91       1.0  0.06907560381983302  0.3739912953241173  0.07244431297218773  1.0000
  C   C92       1.0  0.0485694968704848  0.3942907687769335  0.0512047668749318  1.0000
  C   C93       1.0  0.8889200331266663  0.6714815661712593  0.1153233394214723  1.0000
  C   C94       1.0  0.9085944804073165  0.6488676981248531  0.09551951061484232  1.0000
  C   C95       1.0  0.9309114199526364  0.625589839963773  0.0727874977355611  1.0000
  C   C96       1.0  0.951538795547414  0.6053685576315786  0.05150483788956  1.0000
  C   C97       1.0  0.8889827509648924  0.32835891931234334  0.8847874761422503  1.0000
  C   C98       1.0  0.9085593472700708  0.35096329450716013  0.9045465391762946  1.0000
  C   C99       1.0  0.9307761576855  0.374220747186243  0.9272231218590861  1.0000
  C   C100      1.0  0.951360997561196  0.3944825250928973  0.9483683289934746  1.0000
  C   C101      1.0  0.1112796109862444  0.6713631962514129  0.8845027394702498  1.0000
  C   C102      1.0  0.09169227750570738  0.6486738698342762  0.9042460717313645  1.0000
  C   C103      1.0  0.0694120422599553  0.6253983793985257  0.926953744350584  1.0000
  C   C104      1.0  0.048820913213333504  0.6052028447780061  0.948241431687144  1.0000
  C   C105      1.0  0.1119442186769462  0.1128066197775723  0.3286811422613525  1.0000
  C   C106      1.0  0.0927859555472281  0.09361380823382602  0.3520135721159647  1.0000
  C   C107      1.0  0.0707556527226529  0.07159432011055601  0.37608733830220603  1.0000
  C   C108      1.0  0.0503086826107264  0.050906350587794705  0.3970576774649786  1.0000
  C   C109      1.0  0.11211738579415712  0.8872029529763952  0.6713949055132531  1.0000
  C   C110      1.0  0.09285185267351179  0.9062144956206385  0.6480388070659373  1.0000
  C   C111      1.0  0.0707458728566479  0.9280836659599461  0.6239339824049639  1.0000
  C   C112      1.0  0.0502162867619802  0.9485765764766686  0.6028800202431412  1.0000
  C   C113      1.0  0.8885157682076752  0.8872279837952991  0.3281446684951206  1.0000
  C   C114      1.0  0.9077547116563451  0.9061893441771361  0.3515073604255718  1.0000
  C   C115      1.0  0.9297737417473044  0.9279718145326259  0.3757079142869699  1.0000
  C   C116      1.0  0.9501849318717958  0.9484110899809933  0.3968582979670643  1.0000
  C   C117      1.0  0.8883528711412013  0.11296944441892984  0.6715586919812537  1.0000
  C   C118      1.0  0.907576053740584  0.0939087129695864  0.6481391601374895  1.0000
  C   C119      1.0  0.9296353359453349  0.07196158697026792  0.6239607332744725  1.0000
  C   C120      1.0  0.9500688296241508  0.0513383173463922  0.6028606879301678  1.0000
  N   N1        1.0  0.2552225223974034  0.14985679708164673  0.1811899389220102  1.0000
  N   N2        1.0  0.2552373174938509  0.17881973892127687  0.1536132477152989  1.0000
  N   N3        1.0  0.1780547884624397  0.2556338682563606  0.1536603264793897  1.0000
  N   N4        1.0  0.14863739003288856  0.25528182989058484  0.1809736788579599  1.0000
  N   N5        1.0  0.1491106888974869  0.1786544927841192  0.255851556614374  1.0000
  N   N6        1.0  0.1782188794243211  0.15027336435880304  0.2561524328726676  1.0000
  N   N7        1.0  0.7453194857722992  0.14960671390117142  0.8196016242619706  1.0000
  N   N8        1.0  0.7453913618076485  0.17851660470601166  0.8472257309474643  1.0000
  N   N9        1.0  0.821787579889488  0.2558868797534828  0.8465138511798215  1.0000
  N   N10       1.0  0.8510620953092171  0.2555754730045977  0.8190592136676713  1.0000
  N   N11       1.0  0.8509374749254661  0.17865333699469943  0.7445097667126106  1.0000
  N   N12       1.0  0.8219495967644408  0.15023016685012183  0.7442166396484567  1.0000
  N   N13       1.0  0.2544737584486043  0.8509733888089955  0.8194220779795527  1.0000
  N   N14       1.0  0.2541215099322542  0.8222514210873514  0.8472361768118049  1.0000
  N   N15       1.0  0.17829738049309193  0.7442568169629099  0.846347870219532  1.0000
  N   N16       1.0  0.148949933923987  0.7447307107615514  0.8190807856783664  1.0000
  N   N17       1.0  0.14914669993973462  0.8217668827691897  0.744590144532374  1.0000
  N   N18       1.0  0.1784608957019387  0.8498539063577583  0.7437971155750418  1.0000
  N   N19       1.0  0.7453641980451094  0.850938918429975  0.18081040198924817  1.0000
  N   N20       1.0  0.7454035055167054  0.8220056062662312  0.1532054812533943  1.0000
  N   N21       1.0  0.8217388539002997  0.7442988926819183  0.1536621896496513  1.0000
  N   N22       1.0  0.8508787837995797  0.7443970496777155  0.1811383938522511  1.0000
  N   N23       1.0  0.8509099222923737  0.8215027880848211  0.2555590113486089  1.0000
  N   N24       1.0  0.8220350241770901  0.8501228283945893  0.2558429047418046  1.0000
