data_image0
_chemical_formula_structural       Cu12H24C48N24
_chemical_formula_sum              "Cu12 H24 C48 N24"
_cell_length_a       32.75892244729121
_cell_length_b       32.797237614565795
_cell_length_c       32.76189636446743
_cell_angle_alpha    109.51840971805406
_cell_angle_beta     109.44554255213338
_cell_angle_gamma    109.3989511615479

_space_group_name_H-M_alt    "P 1"
_space_group_IT_number       1

loop_
  _space_group_symop_operation_xyz
  'x, y, z'

loop_
  _atom_site_type_symbol
  _atom_site_label
  _atom_site_symmetry_multiplicity
  _atom_site_fract_x
  _atom_site_fract_y
  _atom_site_fract_z
  _atom_site_occupancy
  Cu  Cu1       1.0  0.93193870606887  0.965794170795057  0.7154195825286821  1.0000
  Cu  Cu2       1.0  0.03426251186938607  0.965094594759755  0.749632649634748  1.0000
  Cu  Cu3       1.0  0.03414072027054261  0.0685219820482459  0.7845495586460987  1.0000
  Cu  Cu4       1.0  0.751083366467505  0.5341264009198312  0.46620582059475885  1.0000
  Cu  Cu5       1.0  0.7843964001378868  0.5347931263088626  0.5692554354732169  1.0000
  Cu  Cu6       1.0  0.7159304794878808  0.43138001418560623  0.4656777596813982  1.0000
  Cu  Cu7       1.0  0.5675661860032835  0.2839000812050969  0.033882809171863884  1.0000
  Cu  Cu8       1.0  0.46526078039371305  0.21502134191234032  0.9309403194750419  1.0000
  Cu  Cu9       1.0  0.46524272916087045  0.250177427566868  0.03455212141011541  1.0000
  Cu  Cu10      1.0  0.7503730124884245  0.2165338236577838  0.7842552449083657  1.0000
  Cu  Cu11      1.0  0.7158283222607127  0.2849262884239963  0.7503602890659311  1.0000
  Cu  Cu12      1.0  0.7842293147299632  0.24973297552033813  0.7151747548600229  1.0000
  H   H1        1.0  0.8543118129168124  0.8498082952422336  0.6502167324063778  1.0000
  H   H2        1.0  0.9934255677842787  0.8474636538100667  0.6967431406941813  1.0000
  H   H3        1.0  0.9932188604027066  0.1453656099277154  0.7972533925475888  1.0000
  H   H4        1.0  0.8541645405654706  0.004256248698609999  0.7024597529433692  1.0000
  H   H5        1.0  0.1509945360778175  0.0050366258098151  0.8019205456120349  1.0000
  H   H6        1.0  0.15076453643178672  0.145134017470852  0.8491674962656577  1.0000
  H   H7        1.0  0.8024325682340888  0.6501975874300499  0.5046878011794432  1.0000
  H   H8        1.0  0.847802550664639  0.6523392925532575  0.64602096945427  1.0000
  H   H9        1.0  0.6505772205502894  0.3545694140227412  0.347902633677677  1.0000
  H   H10       1.0  0.700228147164083  0.49568953607849403  0.3499771571210388  1.0000
  H   H11       1.0  0.7965442460204744  0.49488339771927053  0.6460264895518578  1.0000
  H   H12       1.0  0.7037620551127478  0.3547340160534916  0.505790682288641  1.0000
  H   H13       1.0  0.6452569538124708  0.2965020301509185  0.9951835114714529  1.0000
  H   H14       1.0  0.5060525375461682  0.20252123617351708  0.8539985151109165  1.0000
  H   H15       1.0  0.5060494982996744  0.3036955940938881  0.1523044049903462  1.0000
  H   H16       1.0  0.6452141046229088  0.3492226141251891  0.15011246267653178  1.0000
  H   H17       1.0  0.3486288123981822  0.15029987244902543  0.8542521554168587  1.0000
  H   H18       1.0  0.3484547629029395  0.1978143798706498  0.9945172326081606  1.0000
  H   H19       1.0  0.6993168107654597  0.20407398403558116  0.8494420390691461  1.0000
  H   H20       1.0  0.6509109028770299  0.2969516893345556  0.8031824057250605  1.0000
  H   H21       1.0  0.8480001605372111  0.19570696663564038  0.7019890661378626  1.0000
  H   H22       1.0  0.8014340372985775  0.15135197884629295  0.7967720849358745  1.0000
  H   H23       1.0  0.7038117603626477  0.3496346711564867  0.6984261704212857  1.0000
  H   H24       1.0  0.7965380111788889  0.30201352161675027  0.6507490942061979  1.0000
  C   C1        1.0  0.8928463768735426  0.8581877856805206  0.6660764868478921  1.0000
  C   C2        1.0  0.9119488822286927  0.8252607188844648  0.6616651948701533  1.0000
  C   C3        1.0  0.9641410718425973  0.8571142369832426  0.6899904785903104  1.0000
  C   C4        1.0  0.9639578585210631  0.10651251737191103  0.7741595820296896  1.0000
  C   C5        1.0  0.9117577231526541  0.08629129852629089  0.7498114750091105  1.0000
  C   C6        1.0  0.8926867250739081  0.0343259740780937  0.7256646016666509  1.0000
  C   C7        1.0  0.14194158935005421  0.0347302516374057  0.8089187286837857  1.0000
  C   C8        1.0  0.17431956914388996  0.08679607300549462  0.8372718258066599  1.0000
  C   C9        1.0  0.14182799043928182  0.10645031844103409  0.8331587854889478  1.0000
  C   C10       1.0  0.809092859581334  0.6417390231542156  0.5347869571827959  1.0000
  C   C11       1.0  0.8365316096699262  0.6746144230354434  0.5868076406236257  1.0000
  C   C12       1.0  0.8323177349700901  0.6427260896462174  0.6071079297770084  1.0000
  C   C13       1.0  0.6672100005412606  0.39342133177650146  0.35749368386495217  1.0000
  C   C14       1.0  0.6637342744419359  0.41364168113287286  0.3255151100239999  1.0000
  C   C15       1.0  0.6925912047743169  0.4656079677271309  0.358415627378328  1.0000
  C   C16       1.0  0.7738743982740889  0.46517756490452905  0.6072910915274223  1.0000
  C   C17       1.0  0.7501682218863908  0.4131154183939217  0.5876276135776026  1.0000
  C   C18       1.0  0.7264064619737169  0.39344214650228804  0.5354843248007556  1.0000
  C   C19       1.0  0.606689999989783  0.27349724153229  0.9651443675294477  1.0000
  C   C20       1.0  0.5875492384444386  0.2495602117976929  0.9130963444955074  1.0000
  C   C21       1.0  0.5353608888425114  0.22541158092718658  0.8928948243591819  1.0000
  C   C22       1.0  0.5353560085341016  0.3101720981183646  0.14268868300420223  1.0000
  C   C23       1.0  0.5875484159479928  0.3383814037049291  0.17462816017582142  1.0000
  C   C24       1.0  0.6066677617875841  0.33357578990572995  0.1416822174442203  1.0000
  C   C25       1.0  0.35759551606227563  0.16640604064293998  0.8929918450335779  1.0000
  C   C26       1.0  0.3251263772325645  0.1623197258839966  0.9126732067894567  1.0000
  C   C27       1.0  0.3575269328412034  0.19076886393027342  0.9648095157104637  1.0000
  C   C28       1.0  0.6919818505922564  0.22683870171622544  0.8336717634241495  1.0000
  C   C29       1.0  0.663500728579635  0.2504081281575807  0.8381310648557163  1.0000
  C   C30       1.0  0.6672177730010277  0.2743559534630009  0.8098889974073488  1.0000
  C   C31       1.0  0.8322170042434326  0.18956736961346368  0.7251328395590166  1.0000
  C   C32       1.0  0.8361780437458821  0.16158892316158807  0.749350593383838  1.0000
  C   C33       1.0  0.8083918980679388  0.16674753990477598  0.7736205214121556  1.0000
  C   C34       1.0  0.7264446195297725  0.3335171065454007  0.691291265173817  1.0000
  C   C35       1.0  0.750197355854397  0.3375661186051531  0.662889932769865  1.0000
  C   C36       1.0  0.7738770315950207  0.3091000314017193  0.6668501116429228  1.0000
  C   C37       1.0  0.8624802342187509  0.7271589802337033  0.612650029787176  1.0000
  C   C38       1.0  0.8852645410482868  0.7727164894640738  0.6352968425431414  1.0000
  C   C39       1.0  0.6372154118997815  0.2500576873125127  0.8644894842944738  1.0000
  C   C40       1.0  0.6142677673813637  0.24983975727504057  0.8871771049519808  1.0000
  C   C41       1.0  0.8621925823684508  0.1349786852412578  0.7494503870989179  1.0000
  C   C42       1.0  0.8850324216494062  0.11219197281188537  0.7495775332831159  1.0000
  C   C43       1.0  0.6142968543199389  0.36493122014621093  0.22726433083222736  1.0000
  C   C44       1.0  0.6373566336141253  0.3877356852281935  0.27288070069476333  1.0000
  C   C45       1.0  0.2725150200602401  0.1359466234872357  0.8863590054080178  1.0000
  C   C46       1.0  0.22692704310370007  0.1131008958063475  0.8635816663659882  1.0000
  C   C47       1.0  0.7502150642883549  0.3867974827980446  0.6139212444237999  1.0000
  C   C48       1.0  0.7502301644507415  0.363943834438892  0.6366543818180406  1.0000
  N   N1        1.0  0.9749728807164647  0.9050402218397906  0.709586171966031  1.0000
  N   N2        1.0  0.9307755879863893  0.9056613975157219  0.6947176946566674  1.0000
  N   N3        1.0  0.9306413825895278  0.024706879326515694  0.7350430626118867  1.0000
  N   N4        1.0  0.9748192655738639  0.0694118942372626  0.7650662771164608  1.0000
  N   N5        1.0  0.09409743132040665  0.06895588656211521  0.8046668045945753  1.0000
  N   N6        1.0  0.09416621780999183  0.024496771791085295  0.7896164344244883  1.0000
  N   N7        1.0  0.8046299123221773  0.5948242511717012  0.5699927439052958  1.0000
  N   N8        1.0  0.7902265132044735  0.5942488934246555  0.5252028842685236  1.0000
  N   N9        1.0  0.7115644052793968  0.47521792485085257  0.40598455696684976  1.0000
  N   N10       1.0  0.695832873096329  0.4305125588133976  0.4054583416639091  1.0000
  N   N11       1.0  0.7354009145332586  0.4309165157493382  0.5252122920089806  1.0000
  N   N12       1.0  0.7647992303622501  0.4753847982876067  0.5697311924027346  1.0000
  N   N13       1.0  0.524569354823335  0.2344218255925625  0.9300833655632561  1.0000
  N   N14       1.0  0.5687861717911249  0.2641939067402106  0.97483741739282  1.0000
  N   N15       1.0  0.5687578728046534  0.3048354395120896  0.0941279947627437  1.0000
  N   N16       1.0  0.5245479980165797  0.29027903673181743  0.09470980504808311  1.0000
  N   N17       1.0  0.4053001411475209  0.21011064886463524  0.9750568809922273  1.0000
  N   N18       1.0  0.4053352361055219  0.19497015211248941  0.9305305996070248  1.0000
  N   N19       1.0  0.6956217264422693  0.265588371041666  0.7903073452828765  1.0000
  N   N20       1.0  0.7109694126942827  0.2361698610629972  0.8050832731969709  1.0000
  N   N21       1.0  0.7895681243709095  0.19548226112650718  0.7644333247903179  1.0000
  N   N22       1.0  0.804337577574579  0.2096713424496315  0.7344148012753069  1.0000
  N   N23       1.0  0.7647818857353388  0.2897782766375983  0.695286449278008  1.0000
  N   N24       1.0  0.7354090366446544  0.30494554267155394  0.7104617376714588  1.0000
