data_image0
_chemical_formula_structural       Cu2H40C34N4O10
_chemical_formula_sum              "Cu2 H40 C34 N4 O10"
_cell_length_a       6.753220947106088
_cell_length_b       7.350877670341449
_cell_length_c       17.544721755525124
_cell_angle_alpha    89.998670136153
_cell_angle_beta     90.00061622672331
_cell_angle_gamma    86.68845310912525

_space_group_name_H-M_alt    "P 1"
_space_group_IT_number       1

loop_
  _space_group_symop_operation_xyz
  'x, y, z'

loop_
  _atom_site_type_symbol
  _atom_site_label
  _atom_site_symmetry_multiplicity
  _atom_site_fract_x
  _atom_site_fract_y
  _atom_site_fract_z
  _atom_site_occupancy
  Cu  Cu1       1.0  0.9384090683397802  0.14145201866431725  0.6435229353726941  1.0000
  Cu  Cu2       1.0  0.061571789062782  0.8585369204021872  0.14352686820276264  1.0000
  H   H1        1.0  0.839039098426987  0.2076411124956508  0.5059180670417336  1.0000
  H   H2        1.0  0.16095762648907197  0.7923727089542825  0.005923040193806602  1.0000
  H   H3        1.0  0.6177934312274048  0.3779819627511429  0.6357643964807809  1.0000
  H   H4        1.0  0.3821990047610909  0.6220083896465028  0.13576392983600274  1.0000
  H   H5        1.0  0.771056626975323  0.5245357727614035  0.6595620312089283  1.0000
  H   H6        1.0  0.22894251407702632  0.4754530233013838  0.15956351620241804  1.0000
  H   H7        1.0  0.3533593466019341  0.9039143120580491  0.629911119933425  1.0000
  H   H8        1.0  0.6466398281685884  0.09609655634072567  0.12991682125380075  1.0000
  H   H9        1.0  0.434227289915313  0.7403024159382525  0.6998539096133742  1.0000
  H   H10       1.0  0.565732960508967  0.2596922091395655  0.19985370789077458  1.0000
  H   H11       1.0  0.4436394022604659  0.6766545828221452  0.6033095319003864  1.0000
  H   H12       1.0  0.5563431139914456  0.3233365567796938  0.10331437379454664  1.0000
  H   H13       1.0  0.21485009421607507  0.2456312087056531  0.4615391857483291  1.0000
  H   H14       1.0  0.7851584404425863  0.7543580296548882  0.9615395134350497  1.0000
  H   H15       1.0  0.91577239810551  0.8836929871305513  0.5208863896706578  1.0000
  H   H16       1.0  0.08420692130322749  0.1163246522948  0.02088565670585751  1.0000
  H   H17       1.0  0.16920173630730068  0.9291047548623651  0.5233634852270728  1.0000
  H   H18       1.0  0.8307768928308549  0.0708828330121634  0.023359338013023007  1.0000
  H   H19       1.0  0.9548172196550411  0.5336679796189685  0.5473639374958597  1.0000
  H   H20       1.0  0.04521221973400459  0.4663329112888163  0.04736819660465843  1.0000
  H   H21       1.0  0.16247553128560815  0.5704499866419183  0.48906942982772267  1.0000
  H   H22       1.0  0.8375473090904679  0.429534513264791  0.9890782533186174  1.0000
  H   H23       1.0  0.7490230313567919  0.9861586511830537  0.2528328606429398  1.0000
  H   H24       1.0  0.25096853421405996  0.013834688967975203  0.7528371099423412  1.0000
  H   H25       1.0  0.7233904407187738  0.03469409460810619  0.3933338187139556  1.0000
  H   H26       1.0  0.2765924746453904  0.9652862085131775  0.8933391834345916  1.0000
  H   H27       1.0  0.34988923919244286  0.8821972482901188  0.40781878214200884  1.0000
  H   H28       1.0  0.6501066187717586  0.1178185541640602  0.9078105069486004  1.0000
  H   H29       1.0  0.6330581645199942  0.5284245791225286  0.4942761286628043  1.0000
  H   H30       1.0  0.36697205899380253  0.4716301417356447  0.9942758228915455  1.0000
  H   H31       1.0  0.34955199963136613  0.8449916272552044  0.2657927714187239  1.0000
  H   H32       1.0  0.6504382450921045  0.15501191564581523  0.7657858459640042  1.0000
  H   H33       1.0  0.41195827862622997  0.5511675563828008  0.3818708298646671  1.0000
  H   H34       1.0  0.5880699040071137  0.44888809341510677  0.8818693489266497  1.0000
  H   H35       1.0  0.5519730957546543  0.5366871999426054  0.2508688174903711  1.0000
  H   H36       1.0  0.44802714135526134  0.4633127675992057  0.7508632165901477  1.0000
  H   H37       1.0  0.1386101167673175  0.45319739198446024  0.34497305279771256  1.0000
  H   H38       1.0  0.8614144251516365  0.5467760835431648  0.844980262270504  1.0000
  H   H39       1.0  0.9184814627658825  0.47951181457743536  0.233311840555274  1.0000
  H   H40       1.0  0.08150424891542943  0.5204528783855551  0.7333144787616777  1.0000
  C   C1        1.0  0.6713200606001735  0.8547405830045847  0.6387231913167785  1.0000
  C   C2        1.0  0.32866492764469507  0.1452552922737027  0.13872714395089505  1.0000
  C   C3        1.0  0.4619914340352905  0.7914634454782644  0.6421833804194252  1.0000
  C   C4        1.0  0.5379936665789843  0.20853223217440592  0.14218185505138345  1.0000
  C   C5        1.0  0.12739867180658848  0.2903982531164003  0.5118895492185731  1.0000
  C   C6        1.0  0.8726166246134638  0.7095901270554066  0.011891901429500307  1.0000
  C   C7        1.0  0.025525396030147394  0.974344057065558  0.49846774162708146  1.0000
  C   C8        1.0  0.9744633517245519  0.025653288861796894  0.9984724879233798  1.0000
  C   C9        1.0  0.26850174155107703  0.29659036375529274  0.5804038543366874  1.0000
  C   C10       1.0  0.7314890246982486  0.7033977058626275  0.08040513273374474  1.0000
  C   C11       1.0  0.0365125089736793  0.4836629008129734  0.4966029196208554  1.0000
  C   C12       1.0  0.9635073838236041  0.5163307989671112  0.9966102631565623  1.0000
  C   C13       1.0  0.8786072462090431  0.9682015133427626  0.28950577477547074  1.0000
  C   C14       1.0  0.1213779996100399  0.03179406103093639  0.7895076216919821  1.0000
  C   C15       1.0  0.9024525039970045  0.4942690519446131  0.42786996622804463  1.0000
  C   C16       1.0  0.09757385813227872  0.5057364531212301  0.9278796514615028  1.0000
  C   C17       1.0  0.035618603887833396  0.9607147294999905  0.4128221266522021  1.0000
  C   C18       1.0  0.9643658774175704  0.03928756090200381  0.9128261301494833  1.0000
  C   C19       1.0  0.8661748549451573  0.9928388989786399  0.3678539801777988  1.0000
  C   C20       1.0  0.1338141935993491  0.007161680380519903  0.867859536032498  1.0000
  C   C21       1.0  0.2133324544078405  0.9100484176209562  0.3755864577853744  1.0000
  C   C22       1.0  0.7866684819229093  0.08996086033387478  0.8755852687902962  1.0000
  C   C23       1.0  0.6966991704223561  0.5198243008475458  0.4372015822853543  1.0000
  C   C24       1.0  0.3033371306005109  0.4802116488615838  0.9372032185608323  1.0000
  C   C25       1.0  0.2154005582358138  0.8888205847907147  0.2967879372298797  1.0000
  C   C26       1.0  0.784586309933374  0.11117860985149258  0.7967831138603929  1.0000
  C   C27       1.0  0.5717412632628864  0.53139183099686  0.3736454094908198  1.0000
  C   C28       1.0  0.4282871376462296  0.4686438622680811  0.8736459476926445  1.0000
  C   C29       1.0  0.6500401179442435  0.52014001180261  0.30008845523754263  1.0000
  C   C30       1.0  0.34997454708658177  0.4798784895424575  0.8000897111409702  1.0000
  C   C31       1.0  0.9791592555063248  0.47631532058547077  0.3536889220276934  1.0000
  C   C32       1.0  0.020861185755542497  0.5236550801729009  0.8536975563820025  1.0000
  C   C33       1.0  0.8549555869839339  0.49025004184745313  0.2902917614236317  1.0000
  C   C34       1.0  0.14505341074449524  0.5097447035291224  0.7902930478761265  1.0000
  N   N1        1.0  0.9732488453502839  0.1602096811233622  0.527698335469154  1.0000
  N   N2        1.0  0.026743044196308588  0.8397867502855835  0.02769661160649411  1.0000
  N   N3        1.0  0.0501550532775141  0.9162036150272852  0.2546369052177938  1.0000
  N   N4        1.0  0.9498394395031441  0.08379360950583249  0.7546347183693033  1.0000
  O   O1        1.0  0.21050431106174736  0.22866564256981545  0.643710287621062  1.0000
  O   O2        1.0  0.7894968922271062  0.7713403027045018  0.14371740734284805  1.0000
  O   O3        1.0  0.6829282201451435  0.0281393281913722  0.6298624566887627  1.0000
  O   O4        1.0  0.31707724090811945  0.9718563671131477  0.12987941881402076  1.0000
  O   O5        1.0  0.7389768863674745  0.3943379390866539  0.6668132134522085  1.0000
  O   O6        1.0  0.2610196864794716  0.6056437315216384  0.16681869114655976  1.0000
  O   O7        1.0  0.8195289918289176  0.7432938263891273  0.644982321504202  1.0000
  O   O8        1.0  0.180450527212848  0.25669099295296854  0.14498573868553424  1.0000
  O   O9        1.0  0.4277681124195496  0.3722226675914158  0.5710454349835745  1.0000
  O   O10       1.0  0.5722394647633918  0.6277939459734015  0.07105365138586003  1.0000
