data_image0
_chemical_formula_structural       ZnH28C30N8O6
_chemical_formula_sum              "Zn1 H28 C30 N8 O6"
_cell_length_a       5.446500467098523
_cell_length_b       11.570435486031215
_cell_length_c       11.80452456071203
_cell_angle_alpha    66.65704609473963
_cell_angle_beta     85.7833496286928
_cell_angle_gamma    82.93225441713291

_space_group_name_H-M_alt    "P 1"
_space_group_IT_number       1

loop_
  _space_group_symop_operation_xyz
  'x, y, z'

loop_
  _atom_site_type_symbol
  _atom_site_label
  _atom_site_symmetry_multiplicity
  _atom_site_fract_x
  _atom_site_fract_y
  _atom_site_fract_z
  _atom_site_occupancy
  Zn  Zn1       1.0  0.999999727331975  0.9999963534970107  0.9999980646059612  1.0000
  H   H1        1.0  0.8815706800844508  0.6346020562987816  0.5744792321562359  1.0000
  H   H2        1.0  0.1184366406521065  0.36541074667492524  0.42552239928966884  1.0000
  H   H3        1.0  0.8920850531504527  0.854225961573249  0.5585482712137094  1.0000
  H   H4        1.0  0.10791454899165132  0.14578876493633428  0.4414528207984888  1.0000
  H   H5        1.0  0.5392272509715639  0.9583069260282571  0.6409522916905247  1.0000
  H   H6        1.0  0.46073217979554937  0.0417069260178948  0.3590426989401224  1.0000
  H   H7        1.0  0.1777464190159677  0.8415261685668796  0.7425948549844109  1.0000
  H   H8        1.0  0.8222476968411386  0.15846869324786184  0.2574117598199521  1.0000
  H   H9        1.0  0.16309763593700669  0.6223367709866636  0.754678334137509  1.0000
  H   H10       1.0  0.8369163143617442  0.3776599418585819  0.24533035256158092  1.0000
  H   H11       1.0  0.8777924475907639  0.4050101605429148  0.6238925082282095  1.0000
  H   H12       1.0  0.12219912724786033  0.5949997081919703  0.3760980430774554  1.0000
  H   H13       1.0  0.7409291867231645  0.21891591540108385  0.5379591666571956  1.0000
  H   H14       1.0  0.25906631074998643  0.7810817441534609  0.46204375282108173  1.0000
  H   H15       1.0  0.4909572560655988  0.14394939123106812  0.6331919408996144  1.0000
  H   H16       1.0  0.5090330359580975  0.8560559198193688  0.3668131699062727  1.0000
  H   H17       1.0  0.6478472386479979  0.8504493273217477  0.9128676102161465  1.0000
  H   H18       1.0  0.3521362888620843  0.14954448038616866  0.08712787264323653  1.0000
  H   H19       1.0  0.6519190557187287  0.6436037441978258  0.9010050600293698  1.0000
  H   H20       1.0  0.34807655989410335  0.3563834927164605  0.09900030856198336  1.0000
  H   H21       1.0  0.33767157706751055  0.5303622665136131  0.0994439032586102  1.0000
  H   H22       1.0  0.6623339267984177  0.46963237199435776  0.9005489113373462  1.0000
  H   H23       1.0  0.31131769528271747  0.7460943231567042  0.09485182363160058  1.0000
  H   H24       1.0  0.6886732513341797  0.2538985734680849  0.9051488879878992  1.0000
  H   H25       1.0  0.768481388852798  0.9747820181548408  0.19511733415732382  1.0000
  H   H26       1.0  0.23152718005039213  0.0252146407432576  0.8048856008791107  1.0000
  H   H27       1.0  0.5444774621819661  0.9484073888390938  0.12763513518921613  1.0000
  H   H28       1.0  0.4555317342564678  0.0515863762212234  0.8723646967325821  1.0000
  C   C1        1.0  0.5200767657186135  0.6140055834468541  0.6650597181072302  1.0000
  C   C2        1.0  0.4799204985381209  0.3859912545978687  0.3349536433331225  1.0000
  C   C3        1.0  0.7277883514845555  0.679542966417074  0.6119278395079776  1.0000
  C   C4        1.0  0.2722264570979434  0.3204593828055806  0.388076037724048  1.0000
  C   C5        1.0  0.7343120850186438  0.8026552013619579  0.6037853006302002  1.0000
  C   C6        1.0  0.2656600775117041  0.19736733621614636  0.3962236533972075  1.0000
  C   C7        1.0  0.5360570212502226  0.8612023636554228  0.6500921348500912  1.0000
  C   C8        1.0  0.4639348122103825  0.13879530041448618  0.34991004284053434  1.0000
  C   C9        1.0  0.33199408915019285  0.7956953684962328  0.7064279803474849  1.0000
  C   C10       1.0  0.6679849113482562  0.20431096855305242  0.2935795944218711  1.0000
  C   C11       1.0  0.32395532469318766  0.6729739358638299  0.7136968571858663  1.0000
  C   C12       1.0  0.6760643127061242  0.3270123089279835  0.2863124392288371  1.0000
  C   C13       1.0  0.5003766652648167  0.48929640805740593  0.6649444167636817  1.0000
  C   C14       1.0  0.49962187558946886  0.5107144972195955  0.33505483779706685  1.0000
  C   C15       1.0  0.6794420475910529  0.4049665360567547  0.6407777594087066  1.0000
  C   C16       1.0  0.32058328449915763  0.5950394630295506  0.3592175797026017  1.0000
  C   C17       1.0  0.6522724427627509  0.1936982835620924  0.629745765445492  1.0000
  C   C18       1.0  0.34772604178712657  0.8063031452871882  0.37025556684800887  1.0000
  C   C19       1.0  0.8366974183924611  0.10920367221638831  0.7289263645752941  1.0000
  C   C20       1.0  0.1632884346973141  0.8907959628118719  0.2710794401055169  1.0000
  C   C21       1.0  0.7997555448066295  0.7773099669812  0.9524491776383714  1.0000
  C   C22       1.0  0.20025364391242556  0.22268465597137066  0.047543535294103406  1.0000
  C   C23       1.0  0.8021364982087674  0.6588065503901674  0.9478450210018465  1.0000
  C   C24       1.0  0.19786842602045598  0.3411814503276887  0.0521487571858756  1.0000
  C   C25       1.0  0.9954099336572213  0.563982783928516  0.0009944812401272128  1.0000
  C   C26       1.0  0.0046170086090314005  0.4360060255093217  0.9989949417819236  1.0000
  C   C27       1.0  0.18092272612871338  0.597382783783871  0.055393876877033746  1.0000
  C   C28       1.0  0.8190848077290838  0.4026117475860857  0.944591295827067  1.0000
  C   C29       1.0  0.1672894473367634  0.7184966355267477  0.05436883386167324  1.0000
  C   C30       1.0  0.8327263507903878  0.2815017742852675  0.9456247205759215  1.0000
  N   N1        1.0  0.2787577604867337  0.4376984766509366  0.6862567772965776  1.0000
  N   N2        1.0  0.7212432580487445  0.5623086691183232  0.31374644230710674  1.0000
  N   N3        1.0  0.3119489946819769  0.3279226684199655  0.6761429279185194  1.0000
  N   N4        1.0  0.6880568950379812  0.6720882167862641  0.3238569667663996  1.0000
  N   N5        1.0  0.5553091821618921  0.3076316930640246  0.648090135530012  1.0000
  N   N6        1.0  0.4446905095599334  0.69237347973759  0.35190713005707164  1.0000
  N   N7        1.0  0.979542113693732  0.8081324970266478  0.004556111317249624  1.0000
  N   N8        1.0  0.020452635100447484  0.1918611756947826  0.9954323189427117  1.0000
  O   O1        1.0  0.7659565714391833  0.08767791756633872  0.8410840585109299  1.0000
  O   O2        1.0  0.2340347032253121  0.9123130976734117  0.1589182393203501  1.0000
  O   O3        1.0  0.03855207821260356  0.06742568258983542  0.6938039653641824  1.0000
  O   O4        1.0  0.9614549623748871  0.9325794701410073  0.3061939403470718  1.0000
  O   O5        1.0  0.6836958915175089  0.0006538024302500002  0.11409735836870995  1.0000
  O   O6        1.0  0.3163074287530422  0.9993418783882432  0.8859018832876446  1.0000
