data_image0
_chemical_formula_structural       Al4H28C56N8O24
_chemical_formula_sum              "Al4 H28 C56 N8 O24"
_cell_length_a       6.668672988107609
_cell_length_b       23.201707147980713
_cell_length_c       26.12271383552772
_cell_angle_alpha    100.54989174878435
_cell_angle_beta     90.00028174987067
_cell_angle_gamma    90.0005122664963

_space_group_name_H-M_alt    "P 1"
_space_group_IT_number       1

loop_
  _space_group_symop_operation_xyz
  'x, y, z'

loop_
  _atom_site_type_symbol
  _atom_site_label
  _atom_site_symmetry_multiplicity
  _atom_site_fract_x
  _atom_site_fract_y
  _atom_site_fract_z
  _atom_site_occupancy
  Al  Al1       1.0  0.7891198557720572  0.7487953413173685  0.2513225484224789  1.0000
  Al  Al2       1.0  0.21087435076793068  0.2511995223648569  0.7486748001720755  1.0000
  Al  Al3       1.0  0.289122341510172  0.7512008502661159  0.248676286388644  1.0000
  Al  Al4       1.0  0.7108778632851411  0.24879630433810723  0.7513237850447894  1.0000
  H   H1        1.0  0.6935376752563871  0.9541103949075521  0.45583506165012727  1.0000
  H   H2        1.0  0.3064610300487444  0.04589222412911907  0.5441622739058828  1.0000
  H   H3        1.0  0.1935375533701489  0.5458854318035905  0.04416321330703  1.0000
  H   H4        1.0  0.806456653181705  0.4541109120739009  0.9558329642183736  1.0000
  H   H5        1.0  0.6629154807337728  0.0345425650396294  0.5333310266775442  1.0000
  H   H6        1.0  0.3370892228019926  0.9654609712892892  0.46666864450083506  1.0000
  H   H7        1.0  0.16291060216436654  0.4654571845655581  0.9666662975852559  1.0000
  H   H8        1.0  0.8370911021160694  0.5345379478368812  0.0333302715108559  1.0000
  H   H9        1.0  0.28812761306022594  0.1020271468468792  0.942885451764212  1.0000
  H   H10       1.0  0.7118800896414044  0.8979784927622773  0.05711811114576189  1.0000
  H   H11       1.0  0.7881276037664904  0.397977825072914  0.557116761968338  1.0000
  H   H12       1.0  0.21187709976713623  0.602024393204303  0.44288485905972413  1.0000
  H   H13       1.0  0.6750100927053566  0.05362308640907538  0.9057378059329719  1.0000
  H   H14       1.0  0.32499611040399395  0.9463783002493642  0.09426810128771727  1.0000
  H   H15       1.0  0.17501870649905274  0.4463772156417106  0.594266160995133  1.0000
  H   H16       1.0  0.8249919952408933  0.55362551456885  0.40573584870396223  1.0000
  H   H17       1.0  0.6737179120776065  0.12099710144151743  0.8406199082306784  1.0000
  H   H18       1.0  0.3262882908892166  0.8789980610519021  0.15938094561157357  1.0000
  H   H19       1.0  0.17372566510710646  0.3790019297071083  0.6593821108900215  1.0000
  H   H20       1.0  0.8262730402170818  0.6210000453458591  0.34061834196189283  1.0000
  H   H21       1.0  0.4229151629959631  0.16726248114277817  0.9010657428296156  1.0000
  H   H22       1.0  0.5770880409650375  0.8327403000441364  0.0989323715109407  1.0000
  H   H23       1.0  0.9229169250523627  0.3327390897898326  0.5989308747782971  1.0000
  H   H24       1.0  0.07707878114833733  0.6672621301188998  0.4010680212344582  1.0000
  H   H25       1.0  0.5464430920371584  0.8263209533563585  0.2526020390339169  1.0000
  H   H26       1.0  0.453563110952615  0.17367523298593576  0.7473995921396936  1.0000
  H   H27       1.0  0.046441672736136815  0.6736768085936049  0.2473990858172144  1.0000
  H   H28       1.0  0.9535630307247587  0.32632067030442613  0.7526025431813039  1.0000
  C   C1        1.0  0.5337343176350728  0.6855947777466724  0.313254271233255  1.0000
  C   C2        1.0  0.46626588716237904  0.31440369490925246  0.6867438503504956  1.0000
  C   C3        1.0  0.03372409915808561  0.8144043455796106  0.1867452704857726  1.0000
  C   C4        1.0  0.9662596105867891  0.1855925657847736  0.813253632762148  1.0000
  C   C5        1.0  0.5396680516020851  0.674312488355362  0.17253183280055848  1.0000
  C   C6        1.0  0.46033515222220706  0.32568256297752635  0.8274643469066304  1.0000
  C   C7        1.0  0.0396517954148052  0.8256808082801823  0.3274665607441348  1.0000
  C   C8        1.0  0.9603364129730994  0.1743163717999749  0.6725315630026713  1.0000
  C   C9        1.0  0.8097929045147084  0.01920044107856002  0.5184743164299305  1.0000
  C   C10       1.0  0.1901998026206613  0.9808045198497835  0.4815218466024048  1.0000
  C   C11       1.0  0.3097932718149962  0.4808002820519449  0.981521710768682  1.0000
  C   C12       1.0  0.6902024342688406  0.5191945005607225  0.0184752484369355  1.0000
  C   C13       1.0  0.9829434331547588  0.0454436781785432  0.5437487873167371  1.0000
  C   C14       1.0  0.0170522730926166  0.9545615259695952  0.4562485438890747  1.0000
  C   C15       1.0  0.4829440244388509  0.45455852733094554  0.9562459889441114  1.0000
  C   C16       1.0  0.5170531811905903  0.5454365239930326  0.043750190757727084  1.0000
  C   C17       1.0  0.17335309253873282  0.025499980547600404  0.5244836763663583  1.0000
  C   C18       1.0  0.8266441132110744  0.9745022076341885  0.4755136599128988  1.0000
  C   C19       1.0  0.6733482079748256  0.47449904490850514  0.9755121096744048  1.0000
  C   C20       1.0  0.3266429994729806  0.5254968681118797  0.024484068572910196  1.0000
  C   C21       1.0  0.9680825125199563  0.09080332901099548  0.5878962255626732  1.0000
  C   C22       1.0  0.0319071953892518  0.9091937144215622  0.41209917172901106  1.0000
  C   C23       1.0  0.4680823900826425  0.409201123286401  0.912101247028083  1.0000
  C   C24       1.0  0.5319133160474793  0.5907966752948397  0.0878957071054316  1.0000
  C   C25       1.0  0.03928102340369582  0.8702824217084596  0.3738811630697612  1.0000
  C   C26       1.0  0.9607071850767782  0.12972079030884487  0.6261169505328326  1.0000
  C   C27       1.0  0.5392800520308257  0.6297126272955469  0.1261215116421113  1.0000
  C   C28       1.0  0.46071265490697744  0.3702813445948436  0.8738715536581622  1.0000
  C   C29       1.0  0.1528189217558307  0.1435180776164628  0.8836908672930619  1.0000
  C   C30       1.0  0.8471812831087038  0.856483116805201  0.1163099763996271  1.0000
  C   C31       1.0  0.6528262345975977  0.35648299016475  0.6163087738668267  1.0000
  C   C32       1.0  0.3471784689002462  0.6435183108291226  0.3836905115442093  1.0000
  C   C33       1.0  0.15307211391652234  0.10634794041079944  0.920247347487795  1.0000
  C   C34       1.0  0.8469310901239951  0.8936564877055061  0.0797566069821869  1.0000
  C   C35       1.0  0.6530798899837578  0.3936560931039566  0.5797561844037986  1.0000
  C   C36       1.0  0.34692781269493617  0.6063485226563331  0.4202466011748101  1.0000
  C   C37       1.0  0.9828499717940675  0.07398124481554189  0.9283629963215956  1.0000
  C   C38       1.0  0.0171532322690027  0.9260232388787983  0.0716432952145851  1.0000
  C   C39       1.0  0.48285754007368104  0.42602263744049657  0.5716419046503418  1.0000
  C   C40       1.0  0.5171501626164812  0.5739824902442267  0.42836126959394955  1.0000
  C   C41       1.0  0.8069677178889805  0.0792205892784921  0.8997366762886543  1.0000
  C   C42       1.0  0.1930399847677293  0.9207814158721278  0.10026806131340041  1.0000
  C   C43       1.0  0.30697115805310915  0.4207802922023235  0.6002663570728403  1.0000
  C   C44       1.0  0.6930350450309747  0.5792222758579938  0.3997348738417088  1.0000
  C   C45       1.0  0.8069844487741167  0.11636685981528669  0.863680388640887  1.0000
  C   C46       1.0  0.193017255617157  0.8836317239989455  0.1363224070765838  1.0000
  C   C47       1.0  0.30699191583331503  0.38363154317078607  0.6363210908158976  1.0000
  C   C48       1.0  0.6930112881154287  0.6163687895500232  0.3636797543286434  1.0000
  C   C49       1.0  0.9771356520008682  0.14868083014268763  0.854355073906362  1.0000
  C   C50       1.0  0.022869051476746404  0.8513182100223913  0.14564577341326407  1.0000
  C   C51       1.0  0.4771437989981423  0.3513181035405495  0.6456447613229627  1.0000
  C   C52       1.0  0.5228609045094288  0.6486833595968876  0.3543553028686119  1.0000
  C   C53       1.0  0.008691528526277602  0.9653349556130025  0.0334904317677385  1.0000
  C   C54       1.0  0.991314674680112  0.03467157578354126  0.9665174144338452  1.0000
  C   C55       1.0  0.5086909586851149  0.5346709105333431  0.46651489673294577  1.0000
  C   C56       1.0  0.4913167439918241  0.4653333554460773  0.5334882789605189  1.0000
  N   N1        1.0  0.8265468211276857  0.0024013189027556076  0.9725168822669374  1.0000
  N   N2        1.0  0.1734578825004292  0.9976037577900315  0.027490187326527905  1.0000
  N   N3        1.0  0.32654977042896866  0.49760218033257075  0.5274881293399218  1.0000
  N   N4        1.0  0.6734579322364951  0.502401573722409  0.4725146576878601  1.0000
  N   N5        1.0  0.835602449391267  0.9671631369096049  0.0065854412934883  1.0000
  N   N6        1.0  0.1644022542319874  0.03284185871140719  0.9934212389097111  1.0000
  N   N7        1.0  0.3356027710066485  0.5328407904786661  0.49341891700778007  1.0000
  N   N8        1.0  0.6644049316522073  0.46716253272366254  0.506583870744592  1.0000
  O   O1        1.0  0.3680736384202987  0.6932865033293965  0.18913917802585442  1.0000
  O   O2        1.0  0.6319115708194332  0.3067085479767755  0.8108570016652833  1.0000
  O   O3        1.0  0.8680785361403025  0.8067101913914316  0.31085901808856414  1.0000
  O   O4        1.0  0.1319156704790245  0.19328984252263842  0.6891383218109439  1.0000
  O   O5        1.0  0.7082833582867636  0.6988299517968812  0.2989875704393441  1.0000
  O   O6        1.0  0.2917138474490386  0.30116943813794  0.7010128867587471  1.0000
  O   O7        1.0  0.20829399180716732  0.8011688026215039  0.20101423171434618  1.0000
  O   O8        1.0  0.7917122112598067  0.19883123590093277  0.7989893406139145  1.0000
  O   O9        1.0  0.7096783092798873  0.6895478242553211  0.192759019850925  1.0000
  O   O10       1.0  0.29031439761610056  0.3104422444674384  0.8072359996465507  1.0000
  O   O11       1.0  0.20968670174149653  0.8104452220609558  0.3072381200757661  1.0000
  O   O12       1.0  0.7903150025990302  0.18955123298374582  0.6927627315887149  1.0000
  O   O13       1.0  0.8692695991123501  0.8002128577117772  0.2054733938944153  1.0000
  O   O14       1.0  0.1307396028560461  0.19978006486048366  0.7945208417651272  1.0000
  O   O15       1.0  0.3692518624094561  0.6997843779446029  0.2945232453224591  1.0000
  O   O16       1.0  0.6307453433183742  0.3002151996275231  0.7054760429802373  1.0000
  O   O17       1.0  0.5405957259917217  0.784907822796498  0.2537378146807682  1.0000
  O   O18       1.0  0.45939848056283955  0.2150872841010667  0.7462607020845836  1.0000
  O   O19       1.0  0.04059855697798301  0.7150887358056933  0.24626174363405076  1.0000
  O   O20       1.0  0.9594031473479563  0.2849074760236618  0.7537379398596187  1.0000
  O   O21       1.0  0.31945069360123324  0.1750019610776121  0.8767566911654397  1.0000
  O   O22       1.0  0.6805510108009329  0.8249996896926745  0.12324220412807559  1.0000
  O   O23       1.0  0.819458667487183  0.3249997080228368  0.6232416888806893  1.0000
  O   O24       1.0  0.1805400377959714  0.6750003004041645  0.37675759869876657  1.0000
