data_image0
_chemical_formula_structural       V8Zn4H28C32N12O24
_chemical_formula_sum              "V8 Zn4 H28 C32 N12 O24"
_cell_length_a       8.479916083336901
_cell_length_b       10.365237336797081
_cell_length_c       15.439451459626653
_cell_angle_alpha    92.88472039737316
_cell_angle_beta     105.73751571602796
_cell_angle_gamma    111.966052784137

_space_group_name_H-M_alt    "P 1"
_space_group_IT_number       1

loop_
  _space_group_symop_operation_xyz
  'x, y, z'

loop_
  _atom_site_type_symbol
  _atom_site_label
  _atom_site_symmetry_multiplicity
  _atom_site_fract_x
  _atom_site_fract_y
  _atom_site_fract_z
  _atom_site_occupancy
  V   V1        1.0  0.9196028665341842  0.5527725975688184  0.3939072154350499  1.0000
  V   V2        1.0  0.08039491216319312  0.44722713764053895  0.606092825531448  1.0000
  V   V3        1.0  0.08155530844046412  0.4488948783174821  0.10657380743894153  1.0000
  V   V4        1.0  0.9184408529230977  0.5511016989789183  0.8934271895720656  1.0000
  V   V5        1.0  0.518180316532806  0.5461564623427292  0.39201745398507637  1.0000
  V   V6        1.0  0.4818239789999197  0.45384642638512684  0.6079817151299666  1.0000
  V   V7        1.0  0.48241845118449317  0.45580663138034067  0.10839690768943912  1.0000
  V   V8        1.0  0.5175768822822067  0.5441931218150984  0.8916053592857835  1.0000
  Zn  Zn1       1.0  0.7492777484641239  0.26441410282711797  0.20220181686420358  1.0000
  Zn  Zn2       1.0  0.25071812110045494  0.7355866924800837  0.7977986193593481  1.0000
  Zn  Zn3       1.0  0.2523410000659325  0.7378976489718595  0.29841523568503453  1.0000
  Zn  Zn4       1.0  0.7476620728514547  0.26210524874903735  0.7015850464343674  1.0000
  H   H1        1.0  0.5419482365330311  0.7393444726674758  0.1647062371815764  1.0000
  H   H2        1.0  0.45804831438319843  0.2606552534905262  0.8352923246690055  1.0000
  H   H3        1.0  0.4555876795362225  0.2630534148372163  0.33404369937012046  1.0000
  H   H4        1.0  0.5444160798986174  0.7369484317788774  0.6659573004965866  1.0000
  H   H5        1.0  0.09846730336283113  0.32365599683621576  0.3798461683985864  1.0000
  H   H6        1.0  0.9015311579776507  0.6763426737350499  0.6201526462250087  1.0000
  H   H7        1.0  0.22512074134415627  0.17608627121323647  0.474745858557128  1.0000
  H   H8        1.0  0.7748770373532209  0.8239134639961279  0.5252541824093697  1.0000
  H   H9        1.0  0.06473959021426598  0.9093855277146472  0.43159920708009747  1.0000
  H   H10       1.0  0.9352581897745651  0.0906142120058178  0.5684014819164744  1.0000
  H   H11       1.0  0.7848452731675053  0.8054248306345498  0.30041196125058894  1.0000
  H   H12       1.0  0.21515304550211306  0.1945759602198649  0.6995881930544527  1.0000
  H   H13       1.0  0.3510386392348935  0.0324204620667885  0.03950369836122292  1.0000
  H   H14       1.0  0.6489585956158874  0.9675782039642227  0.9604942851765232  1.0000
  H   H15       1.0  0.2838101131519862  0.7469562485320367  0.03292524601753397  1.0000
  H   H16       1.0  0.7161878069248004  0.25304136188307785  0.9670728072374503  1.0000
  H   H17       1.0  0.9025520643179376  0.6765217801369586  0.1208426472552659  1.0000
  H   H18       1.0  0.09745238034290785  0.32347901086323816  0.8791584223286721  1.0000
  H   H19       1.0  0.7744376231129878  0.8222775612154506  0.02501437214158392  1.0000
  H   H20       1.0  0.22556804674610484  0.1777232298139069  0.9749868804981433  1.0000
  H   H21       1.0  0.9332674573206321  0.0892644707274641  0.0668953049530998  1.0000
  H   H22       1.0  0.06673644607651828  0.9107352601165813  0.9331050032622343  1.0000
  H   H23       1.0  0.21359295679086895  0.19507729393877327  0.19767510983547257  1.0000
  H   H24       1.0  0.7864114891614308  0.8049235015725315  0.8023266077785396  1.0000
  H   H25       1.0  0.64970857418006  0.9729375122231826  0.4611842612358076  1.0000
  H   H26       1.0  0.35029327741344224  0.027065399001855894  0.5388177819180201  1.0000
  H   H27       1.0  0.713674851859423  0.2575429997804192  0.46658225618173793  1.0000
  H   H28       1.0  0.28632415332765493  0.7424567399691994  0.533418615870616  1.0000
  C   C1        1.0  0.03336841366523659  0.20886795726865873  0.36456751391043  1.0000
  C   C2        1.0  0.9666318128457334  0.7911317689768254  0.6354315971074911  1.0000
  C   C3        1.0  0.10337035141979099  0.12556376394769583  0.41691723994598834  1.0000
  C   C4        1.0  0.8966286537672873  0.8744359758019228  0.5830836321063587  1.0000
  C   C5        1.0  0.014198370505866257  0.9789435398436054  0.39352503861884003  1.0000
  C   C6        1.0  0.9857987216740585  0.021057246470555003  0.6064742846003528  1.0000
  C   C7        1.0  0.8577004209826882  0.9195837799055582  0.3196928244281311  1.0000
  C   C8        1.0  0.14229789768693027  0.0804170109488567  0.6803073298769179  1.0000
  C   C9        1.0  0.7963925987383293  0.010614060887050398  0.27099588094757376  1.0000
  C   C10       1.0  0.20360395088644598  0.9893856607598576  0.7290020328729341  1.0000
  C   C11       1.0  0.6347476754105086  0.9642788850392205  0.19329024661453073  1.0000
  C   C12       1.0  0.36524887679717477  0.0357208456298821  0.8067089632661182  1.0000
  C   C13       1.0  0.4235820584388178  0.9809857214774523  0.08285730651288498  1.0000
  C   C14       1.0  0.5764139512137164  0.019012944524398296  0.917140493969079  1.0000
  C   C15       1.0  0.3889139753667692  0.8393216650608509  0.0795803547429372  1.0000
  C   C16       1.0  0.6110850246544928  0.1606780566443717  0.9204179251891277  1.0000
  C   C17       1.0  0.9669860986193585  0.7913333301586717  0.13561140626580234  1.0000
  C   C18       1.0  0.03301780348633799  0.20866639617428012  0.8643882539194578  1.0000
  C   C19       1.0  0.8961261070203433  0.8737134189699843  0.08274347233155051  1.0000
  C   C20       1.0  0.10388010022808912  0.1262884186822291  0.9172565975865795  1.0000
  C   C21       1.0  0.9844372567938607  0.020431047671785097  0.10544787055722082  1.0000
  C   C22       1.0  0.015570178235719665  0.9795707990317906  0.8945536784768251  1.0000
  C   C23       1.0  0.14113641321139173  0.0808109727199735  0.17909882456731913  1.0000
  C   C24       1.0  0.8588674940601208  0.9191887716573744  0.8209034277382231  1.0000
  C   C25       1.0  0.20323116755588425  0.9906379062437906  0.22839778708686248  1.0000
  C   C26       1.0  0.7967715119344732  0.0093618290822022  0.7716029861027567  1.0000
  C   C27       1.0  0.36489408263435047  0.0380645114852456  0.30612627724346453  1.0000
  C   C28       1.0  0.635108598147461  0.9619352283518409  0.6938751439762286  1.0000
  C   C29       1.0  0.5763622737248183  0.023340411976207096  0.41730828725324204  1.0000
  C   C30       1.0  0.42363918185874644  0.976659327831726  0.5826929509106691  1.0000
  C   C31       1.0  0.6095291792812033  0.16469378366463158  0.42000611500574797  1.0000
  C   C32       1.0  0.3904756613895728  0.8353101787526781  0.5799957595681207  1.0000
  N   N1        1.0  0.8838690330119761  0.15289443919112236  0.29304185659016474  1.0000
  N   N2        1.0  0.1161317347626819  0.8471063472105057  0.7069580157963744  1.0000
  N   N3        1.0  0.5765522797865259  0.057185308175320394  0.1536342448437651  1.0000
  N   N4        1.0  0.42344196469552026  0.942812302152319  0.8463632592438728  1.0000
  N   N5        1.0  0.5229133377592347  0.8312057561233316  0.1499402310241891  1.0000
  N   N6        1.0  0.4770832144484487  0.16879397454577832  0.8500589788564598  1.0000
  N   N7        1.0  0.11652181191374929  0.8482613436526094  0.20704960970182645  1.0000
  N   N8        1.0  0.8834808688680625  0.15173839618448426  0.7929518115178669  1.0000
  N   N9        1.0  0.4240496297835392  0.9459994364051739  0.3464045059899732  1.0000
  N   N10       1.0  0.5759541296513078  0.05400241021092  0.6535964938767338  1.0000
  N   N11       1.0  0.47539336495804463  0.17155482247817844  0.3491724989481001  1.0000
  N   N12       1.0  0.5246068654272803  0.8284449173005939  0.6508285561600291  1.0000
  O   O1        1.0  0.5000028342838193  0.5000003932591283  0.5000003023048266  1.0000
  O   O2        1.0  0.4999963108467896  0.5000016013313768  8.281757927889945e-07  1.0000
  O   O3        1.0  0.5953195460418711  0.6012742926037332  0.1850756003968215  1.0000
  O   O4        1.0  0.4046775500124085  0.39872650724372244  0.8149256669125791  1.0000
  O   O5        1.0  0.4042941835775978  0.4018265283604238  0.31443724686584323  1.0000
  O   O6        1.0  0.5957170671346717  0.5981731891252764  0.6855622155939616  1.0000
  O   O7        1.0  0.44007143339506877  0.6702875536695886  0.3678336458687994  1.0000
  O   O8        1.0  0.5599300092739696  0.32971214102735047  0.6321611119944067  1.0000
  O   O9        1.0  0.5615817715695925  0.3325561065479477  0.1335440351585291  1.0000
  O   O10       1.0  0.43841424066584983  0.667442568476105  0.8664550613835759  1.0000
  O   O11       1.0  2.2060074584156313e-06  0.49999786577784266  0.5000000820448847  1.0000
  O   O12       1.0  0.9999970856683688  0.5000020220628159  1.6528444959012443e-06  1.0000
  O   O13       1.0  0.9118510885976293  0.31805013872019566  0.12565108127898136  1.0000
  O   O14       1.0  0.08814654355453638  0.6819517032390152  0.8743483552787552  1.0000
  O   O15       1.0  0.08971507553189169  0.6838146282143285  0.37518263748749814  1.0000
  O   O16       1.0  0.9102854453609555  0.316180889042549  0.6248183303780196  1.0000
  O   O17       1.0  0.16904540666646992  0.5874265998692323  0.18926893644852075  1.0000
  O   O18       1.0  0.8309511545813777  0.41257316237756914  0.8107348096426181  1.0000
  O   O19       1.0  0.8328017447433639  0.4147914768898247  0.31096352123127974  1.0000
  O   O20       1.0  0.1671937262283834  0.5852061379780694  0.6890348139422147  1.0000
  O   O21       1.0  0.7548910108735996  0.6147940756746095  0.40344564133960154  1.0000
  O   O22       1.0  0.2451125994331207  0.38520986866913637  0.5965534580582031  1.0000
  O   O23       1.0  0.24570015108857043  0.3863252654956639  0.0968980821237935  1.0000
  O   O24       1.0  0.7542969462571634  0.6136755388628928  0.9031038332156812  1.0000
