data_image0
_chemical_formula_structural       CuH12C6O6
_chemical_formula_sum              "Cu1 H12 C6 O6"
_cell_length_a       3.7562964074135965
_cell_length_b       4.914217700746843
_cell_length_c       11.226765632045485
_cell_angle_alpha    88.37899415564121
_cell_angle_beta     90.25191020870733
_cell_angle_gamma    82.54294053054154

_space_group_name_H-M_alt    "P 1"
_space_group_IT_number       1

loop_
  _space_group_symop_operation_xyz
  'x, y, z'

loop_
  _atom_site_type_symbol
  _atom_site_label
  _atom_site_symmetry_multiplicity
  _atom_site_fract_x
  _atom_site_fract_y
  _atom_site_fract_z
  _atom_site_occupancy
  Cu  Cu1       1.0  0.49999966239298027  0.9999929470485609  0.4999982673456742  1.0000
  H   H1        1.0  0.4041088124343021  0.35906607757652154  0.8049340393468256  1.0000
  H   H2        1.0  0.5958888644018644  0.6409469969089941  0.19507109896128583  1.0000
  H   H3        1.0  0.8204948557525357  0.4766041461154487  0.8185472591268592  1.0000
  H   H4        1.0  0.1795065171601493  0.5234003871540764  0.18145454255876098  1.0000
  H   H5        1.0  0.5807889014807159  0.795783103022913  0.9790547756896401  1.0000
  H   H6        1.0  0.41921747670443915  0.20422587668183217  0.020951307926921493  1.0000
  H   H7        1.0  0.15570754251309887  0.6902627201599572  0.9640278771789355  1.0000
  H   H8        1.0  0.8442988356720634  0.30974625954478807  0.03597820643762619  1.0000
  H   H9        1.0  0.2577457114171012  0.5914512106548814  0.40167149205075253  1.0000
  H   H10       1.0  0.7422490830197076  0.40854290077169964  0.598328006481701  1.0000
  H   H11       1.0  0.03574412439490255  0.8788768332968148  0.34675307790315196  1.0000
  H   H12       1.0  0.9642601416488361  0.1211092362351849  0.6532492635759155  1.0000
  C   C1        1.0  0.4133543011434212  0.7621038831967868  0.7348717475695139  1.0000
  C   C2        1.0  0.5866583169170596  0.2378914933729135  0.2651204321117149  1.0000
  C   C3        1.0  0.5313046681160999  0.5408036725067761  0.8282853357196983  1.0000
  C   C4        1.0  0.4686925599211378  0.4592112975661637  0.1717179649272893  1.0000
  C   C5        1.0  0.44393509899565214  0.6194576661080832  0.9560741311794912  1.0000
  C   C6        1.0  0.556066494505238  0.38056341207905586  0.043928947211242096  1.0000
  O   O1        1.0  0.5537383902566687  0.7196736988598788  0.6299189725444947  1.0000
  O   O2        1.0  0.4462504717314815  0.28030344629716814  0.3700739585557713  1.0000
  O   O3        1.0  0.1914803183834195  0.9663470129011529  0.758929667196746  1.0000
  O   O4        1.0  0.8085259713677289  0.0336707977523858  0.2410600962154348  1.0000
  O   O5        1.0  0.15822010663772088  0.7851704305629427  0.42113349875522493  1.0000
  O   O6        1.0  0.8417740820819046  0.21480910950293725  0.5788637742530298  1.0000
