data_image0
_chemical_formula_structural       Cd4H28C12N4Cl8O8
_chemical_formula_sum              "Cd4 H28 C12 N4 Cl8 O8"
_cell_length_a       6.807657781063964
_cell_length_b       7.745824418074598
_cell_length_c       13.266272226008017
_cell_angle_alpha    89.99997927663145
_cell_angle_beta     89.99990318392823
_cell_angle_gamma    89.99950291493504

_space_group_name_H-M_alt    "P 1"
_space_group_IT_number       1

loop_
  _space_group_symop_operation_xyz
  'x, y, z'

loop_
  _atom_site_type_symbol
  _atom_site_label
  _atom_site_symmetry_multiplicity
  _atom_site_fract_x
  _atom_site_fract_y
  _atom_site_fract_z
  _atom_site_occupancy
  Cd  Cd1       1.0  0.1763016154338359  0.1489684710038404  0.27865093780903283  1.0000
  Cd  Cd2       1.0  0.8237014984807518  0.6489784035089485  0.7213583511174804  1.0000
  Cd  Cd3       1.0  0.3237129700427844  0.6489802546217476  0.7786428824087961  1.0000
  Cd  Cd4       1.0  0.6762960196536056  0.14896145580186024  0.2213566072295379  1.0000
  H   H1        1.0  0.47840989211212565  0.1659192944438104  0.9741054346008509  1.0000
  H   H2        1.0  0.5215842390480175  0.6659038966655402  0.025898577240816695  1.0000
  H   H3        1.0  0.021589036885544012  0.665926180522625  0.4740962385869451  1.0000
  H   H4        1.0  0.9784168457202541  0.16590475665486792  0.5259017429206807  1.0000
  H   H5        1.0  0.3461727295406477  0.3375490580996825  0.9391529286724278  1.0000
  H   H6        1.0  0.6538182186504572  0.8375274597841624  0.060851831398601085  1.0000
  H   H7        1.0  0.15382756586601687  0.8375691488741385  0.4391489220172032  1.0000
  H   H8        1.0  0.8461824781951253  0.3375603006802237  0.5608596070029535  1.0000
  H   H9        1.0  0.27822811603207503  0.2244463086164217  0.0411064031977091  1.0000
  H   H10       1.0  0.7217492722416525  0.7244541555599469  0.9588915764220188  1.0000
  H   H11       1.0  0.22177052707233003  0.724454987320776  0.5411051991207358  1.0000
  H   H12       1.0  0.7782318330383617  0.2244570959297008  0.45888448878675087  1.0000
  H   H13       1.0  0.9585202859102824  0.28052508822213446  0.8910548153015013  1.0000
  H   H14       1.0  0.04146829381407001  0.7805209595288717  0.1089544693658837  1.0000
  H   H15       1.0  0.5414708187631235  0.7805408615686671  0.3910584206288448  1.0000
  H   H16       1.0  0.4585265743417466  0.28054778974544803  0.6089561405737385  1.0000
  H   H17       1.0  0.8984640398189115  0.06316692466895552  0.8737734202919327  1.0000
  H   H18       1.0  0.10153993110855451  0.5631636146177996  0.12621250388667699  1.0000
  H   H19       1.0  0.6015410575757374  0.563195155583621  0.37377095569137697  1.0000
  H   H20       1.0  0.3984687888113286  0.0631805693024319  0.6262398435959966  1.0000
  H   H21       1.0  0.24571516517818284  0.10944982860709021  0.8293074885342618  1.0000
  H   H22       1.0  0.7542868747013146  0.6094196014843547  0.17068898722283166  1.0000
  H   H23       1.0  0.2542893255875072  0.6094691623474021  0.3293086921882135  1.0000
  H   H24       1.0  0.7457274034610534  0.10943512517992102  0.6706862759809553  1.0000
  H   H25       1.0  0.22923509483929652  0.9689748650772572  0.9344085948221944  1.0000
  H   H26       1.0  0.7707824505186951  0.4689684426332478  0.0655743010335001  1.0000
  H   H27       1.0  0.27078153456802323  0.46900368209012566  0.43439623557115675  1.0000
  H   H28       1.0  0.7292139764597039  0.9690015945721414  0.5655919368295911  1.0000
  C   C1        1.0  0.9128006887692309  0.14377207278418072  0.028874424622529198  1.0000
  C   C2        1.0  0.0872112906548494  0.6437872695770961  0.9711175272705217  1.0000
  C   C3        1.0  0.5872064806087138  0.6437727284189592  0.5288823547570516  1.0000
  C   C4        1.0  0.41277758912474394  0.14376595774353265  0.4711329646744673  1.0000
  C   C5        1.0  0.9867772917373899  0.1498984560693444  0.9209170024907891  1.0000
  C   C6        1.0  0.013215530372278302  0.6499100666794105  0.07907796437508809  1.0000
  C   C7        1.0  0.5132208713065795  0.6499183153767235  0.4209251491921506  1.0000
  C   C8        1.0  0.4867881090952936  0.1498914983362027  0.579057757008286  1.0000
  C   C9        1.0  0.20242115216882442  0.10132169607572189  0.9085332252873783  1.0000
  C   C10       1.0  0.7975750930344817  0.601318344733592  0.0914542052395717  1.0000
  C   C11       1.0  0.2975786895477199  0.6013445766406775  0.40853063144426466  1.0000
  C   C12       1.0  0.7024572168005748  0.101305792158449  0.5914673521470277  1.0000
  N   N1        1.0  0.3365400142902715  0.21457056052378934  0.9686208954007184  1.0000
  N   N2        1.0  0.6634477552522711  0.7145592514888507  0.031374069370969  1.0000
  N   N3        1.0  0.16345698224048283  0.71458283261142  0.4686191437699562  1.0000
  N   N4        1.0  0.8365278493762531  0.2145508524559929  0.5313946657840347  1.0000
  Cl  Cl1       1.0  0.39672472850830337  0.9133201525673158  0.199183163419498  1.0000
  Cl  Cl2       1.0  0.603269869593163  0.4133322256172677  0.800820840402558  1.0000
  Cl  Cl3       1.0  0.10326844515396522  0.4133264215586935  0.699186576419187  1.0000
  Cl  Cl4       1.0  0.8967305597498055  0.9133246655894  0.3008204425664616  1.0000
  Cl  Cl5       1.0  0.40749175902585233  0.37931627419641256  0.19154349414792188  1.0000
  Cl  Cl6       1.0  0.5925002408242367  0.87932397622766  0.8084612645684925  1.0000
  Cl  Cl7       1.0  0.09250913010674111  0.8793233449479203  0.691536344959296  1.0000
  Cl  Cl8       1.0  0.9074828697731622  0.3793143234445679  0.30846012205334  1.0000
  O   O1        1.0  0.03437787481308871  0.17105068301853518  0.0991966537751665  1.0000
  O   O2        1.0  0.9656250183849411  0.6711019443724384  0.9008005737749016  1.0000
  O   O3        1.0  0.4656357536030171  0.6710872175038104  0.5992035806344944  1.0000
  O   O4        1.0  0.5343436367101475  0.1710486267327198  0.400805707583693  1.0000
  O   O5        1.0  0.7287183915698279  0.1159835910837188  0.045248339409283696  1.0000
  O   O6        1.0  0.27129239640241565  0.6160051655326839  0.954748136132302  1.0000
  O   O7        1.0  0.7712860506724795  0.6159764044570512  0.5452508716468714  1.0000
  O   O8        1.0  0.22870417234670984  0.1159787857521337  0.4547674638484551  1.0000
