data_image0
_chemical_formula_structural       Al6H11C60Cl3O28
_chemical_formula_sum              "Al6 H11 C60 Cl3 O28"
_cell_length_a       12.543462633449979
_cell_length_b       12.503977777431356
_cell_length_c       27.00404221244942
_cell_angle_alpha    97.95064280634509
_cell_angle_beta     90.35988036139784
_cell_angle_gamma    119.06725609859461

_space_group_name_H-M_alt    "P 1"
_space_group_IT_number       1

loop_
  _space_group_symop_operation_xyz
  'x, y, z'

loop_
  _atom_site_type_symbol
  _atom_site_label
  _atom_site_symmetry_multiplicity
  _atom_site_fract_x
  _atom_site_fract_y
  _atom_site_fract_z
  _atom_site_occupancy
  Al  Al1       1.0  0.41238882275346356  0.8144558958074551  0.48967492686079345  1.0000
  Al  Al2       1.0  0.664155736952921  0.07298858484548988  0.5023223923452278  1.0000
  Al  Al3       1.0  0.4289849620792978  0.08207251562713938  0.503492689343922  1.0000
  Al  Al4       1.0  0.9144484885468528  0.8374969448209767  0.021630048953042484  1.0000
  Al  Al5       1.0  0.9134284675305439  0.577132180572505  0.004002761208837994  1.0000
  Al  Al6       1.0  0.6706341574782967  0.5708772212847251  0.0025622413963474933  1.0000
  H   H1        1.0  0.8831510504580607  0.9088311474935296  0.8011113841380535  1.0000
  H   H2        1.0  0.49239350361672524  0.6656710237353279  0.7786874093494944  1.0000
  H   H3        1.0  0.49529079272363674  0.70153505299006  0.6898394365986675  1.0000
  H   H4        1.0  0.8799115448994782  0.4789438498551204  0.2275629204445977  1.0000
  H   H5        1.0  0.4937813938613189  0.21880257131501676  0.19535589546519816  1.0000
  H   H6        1.0  0.47814862149817117  0.1889295535008272  0.2847143438598394  1.0000
  H   H7        1.0  0.864241093614787  0.44890358793411883  0.31692146350984984  1.0000
  H   H8        1.0  1.713073969964334e-05  0.7018788711445295  0.6829719239070116  1.0000
  H   H9        1.0  0.8861376775665802  0.9445380206717285  0.7122851620247205  1.0000
  H   H10       1.0  0.30979972614754564  0.6090631564401008  0.44796735931280557  1.0000
  H   H11       1.0  0.016684254012666603  0.0420235624383665  0.0058383295295314  1.0000
  C   C1        1.0  0.6159693695288766  0.8939172828904843  0.4193143002544701  1.0000
  C   C2        1.0  0.13073094749438513  0.7963027503988941  0.18116363962167273  1.0000
  C   C3        1.0  0.15861156432092122  0.8170369693489475  0.2307707099662792  1.0000
  C   C4        1.0  0.621754376209836  0.2266276430957461  0.44613368084412036  1.0000
  C   C5        1.0  0.18129461332568306  0.8369184715164907  0.2767088713848835  1.0000
  C   C6        1.0  0.20826635523910403  0.85904164795393  0.3264238586364314  1.0000
  C   C7        1.0  0.2346889672232847  0.8798778170387178  0.3718773294941116  1.0000
  C   C8        1.0  0.6610448191193614  0.7677550615256268  0.1318892305432868  1.0000
  C   C9        1.0  0.6519796014094792  0.7864714497470469  0.17706399790487376  1.0000
  C   C10       1.0  0.6453303799372422  0.8067582909365854  0.2266445178747745  1.0000
  C   C11       1.0  0.6429220170122819  0.8255954352991708  0.2725774667206977  1.0000
  C   C12       1.0  0.5744336451658256  0.2687998143984203  0.2221042130344557  1.0000
  C   C13       1.0  0.6395407713018102  0.8467296377933448  0.32235648787317217  1.0000
  C   C14       1.0  0.6359898495990777  0.8670705554611258  0.3679008257187562  1.0000
  C   C15       1.0  0.6955416114339813  0.3711119029276374  0.8744206771372518  1.0000
  C   C16       1.0  0.2860891860501694  0.9039694120603484  0.4225802072117233  1.0000
  C   C17       1.0  0.6854650701297871  0.34961019661620435  0.8283662634948501  1.0000
  C   C18       1.0  0.6763527114337792  0.32963827079008456  0.7780441772232436  1.0000
  C   C19       1.0  0.669452169957431  0.3146308033402931  0.7317199535178034  1.0000
  C   C20       1.0  0.6587173031484853  0.29308616629090517  0.681382727315473  1.0000
  C   C21       1.0  0.6463890239235398  0.26943447367958123  0.635360129759114  1.0000
  C   C22       1.0  0.233358093831498  0.8914329307521809  0.6106768834173336  1.0000
  C   C23       1.0  0.5656732636621485  0.2522981283475758  0.27196508393695507  1.0000
  C   C24       1.0  0.06861063197280969  0.7615625916009634  0.713748807985354  1.0000
  C   C25       1.0  0.045553907620707365  0.7411895420061966  0.7627532765003339  1.0000
  C   C26       1.0  0.2466346246278022  0.9150413927037775  0.7929900015273574  1.0000
  C   C27       1.0  0.2704007247378755  0.9361663070864877  0.7436227893499705  1.0000
  C   C28       1.0  0.6353653162137219  0.8963065511908042  0.5595390973086225  1.0000
  C   C29       1.0  0.1811926156159274  0.8586052026788877  0.7034695682232268  1.0000
  C   C30       1.0  0.1338116337380911  0.816487576728413  0.803458792843756  1.0000
  C   C31       1.0  0.11032904439699817  0.7946199603469706  0.8531159804814835  1.0000
  C   C32       1.0  0.20709774695654204  0.8768397557308489  0.6534901887228628  1.0000
  C   C33       1.0  0.0889826808100409  0.7751318142143973  0.8958843531595093  1.0000
  C   C34       1.0  0.6701647656833176  0.31708900754560426  0.3067489768403888  1.0000
  C   C35       1.0  0.6732389534052388  0.8711198317636998  0.6046242681364973  1.0000
  C   C36       1.0  0.8006111823240688  0.8834807082909181  0.727078598425095  1.0000
  C   C37       1.0  0.7989550467688884  0.8638027440853473  0.7764109658010341  1.0000
  C   C38       1.0  0.577948143897153  0.726253296972608  0.7637951585239194  1.0000
  C   C39       1.0  0.5795282752768998  0.7460517485540733  0.7145317040772383  1.0000
  C   C40       1.0  0.6206653401841962  0.21824824428511386  0.5828242571233063  1.0000
  C   C41       1.0  0.6906487669850351  0.8262231039633151  0.6956960315666195  1.0000
  C   C42       1.0  0.6874205155821829  0.7860824748222086  0.7955738112237255  1.0000
  C   C43       1.0  0.6864083128244404  0.7698510326892034  0.8463261832659442  1.0000
  C   C44       1.0  0.6869947745893583  0.8512623028192935  0.6464678998009887  1.0000
  C   C45       1.0  0.6879398251107817  0.3506609357201782  0.2055154051139638  1.0000
  C   C46       1.0  0.6884852325024229  0.7586041233391753  0.8903830168537326  1.0000
  C   C47       1.0  0.04831752614076364  0.7560270374341724  0.08595043141273348  1.0000
  C   C48       1.0  0.7299263650767501  0.4356257898903236  0.0649687621612074  1.0000
  C   C49       1.0  0.6934857037246547  0.7444918150765576  0.08227228082958499  1.0000
  C   C50       1.0  0.04522968360507919  0.7511639471386288  0.9445060182898218  1.0000
  C   C51       1.0  0.7188920996483789  0.42321327333181097  0.9267828218808561  1.0000
  C   C52       1.0  0.28779336893986607  0.9111709296987556  0.5636133503907317  1.0000
  C   C53       1.0  0.7107404037215873  0.7439560331191261  0.9404803289283095  1.0000
  C   C54       1.0  0.648496276003357  0.2769153676821006  0.4004173309763104  1.0000
  C   C55       1.0  0.78363984598154  0.3989177782160879  0.290151761808616  1.0000
  C   C56       1.0  0.6975558331694246  0.3698597927463751  0.15488429188796  1.0000
  C   C57       1.0  0.7923744494721775  0.4154691061935479  0.2402950795795036  1.0000
  C   C58       1.0  0.6600684826500043  0.29751733619870174  0.3573258590903592  1.0000
  C   C59       1.0  0.7075720819832654  0.38943965477609777  0.1116574340556298  1.0000
  C   C60       1.0  0.10247581767345779  0.7778854768293894  0.13596180865962276  1.0000
  Cl  Cl1       1.0  0.9070652725510016  0.6215796041675289  0.7740958937415456  1.0000
  Cl  Cl2       1.0  0.3538952985046181  0.007605767317159001  0.8418328656720676  1.0000
  Cl  Cl3       1.0  0.40729499666624497  0.0545188509950805  0.7312417271415016  1.0000
  O   O1        1.0  0.3070295531652718  0.8226647476703804  0.43593413388164487  1.0000
  O   O2        1.0  0.6478520302040848  0.4525098084411282  0.04473260273257299  1.0000
  O   O3        1.0  0.6175036686608238  0.6406529471681424  0.05475690019279969  1.0000
  O   O4        1.0  0.5184928059911937  0.8151456806894114  0.4349571910006915  1.0000
  O   O5        1.0  0.8107475323972009  0.8264844394008786  0.9642553843655082  1.0000
  O   O6        1.0  0.028077046264044725  0.8322679708793856  0.9706365748754281  1.0000
  O   O7        1.0  0.02231654279288621  0.6457560718710553  0.9561241516848398  1.0000
  O   O8        1.0  0.8206663914738999  0.4482884861558746  0.9486986703698648  1.0000
  O   O9        1.0  0.6383559867053492  0.4465635234668568  0.9463253309762366  1.0000
  O   O10       1.0  0.629745512450711  0.6457232563022116  0.9565083221307306  1.0000
  O   O11       1.0  0.8319692892971561  0.6595222630666555  0.00877116636080189  1.0000
  O   O12       1.0  0.6961017695834643  0.18777980877371186  0.5629020599862145  1.0000
  O   O13       1.0  0.6975242905775332  0.9987158966516743  0.4442007892846576  1.0000
  O   O14       1.0  0.6998012393937146  0.20337665037536817  0.4660014501627572  1.0000
  O   O15       1.0  0.51812072001713  0.20220180950311573  0.4627325262228226  1.0000
  O   O16       1.0  0.31070127704002454  0.008510649838847  0.4490793555783057  1.0000
  O   O17       1.0  0.3132525988002043  0.8304830075468315  0.543187384718884  1.0000
  O   O18       1.0  0.5259635850421773  0.8238959036645211  0.5418621143220363  1.0000
  O   O19       1.0  0.7138726576411116  0.9930755394086433  0.5416900766961632  1.0000
  O   O20       1.0  0.5217296776124557  0.2018366508977038  0.561238480716952  1.0000
  O   O21       1.0  0.3104563033319181  0.012343981282562299  0.5477878385490059  1.0000
  O   O22       1.0  0.5025093079778955  0.9919462724270717  0.49815410244233504  1.0000
  O   O23       1.0  0.795657391952588  0.8249239894950474  0.07079628492953559  1.0000
  O   O24       1.0  0.011487483614189163  0.8294611195724424  0.07689214449038667  1.0000
  O   O25       1.0  0.038051051147213896  0.6615484230328263  0.055681732638689106  1.0000
  O   O26       1.0  0.8338492057162556  0.462611142365553  0.0479748579503365  1.0000
  O   O27       1.0  0.32801958809002235  0.652900164321494  0.48201215882006215  1.0000
  O   O28       1.0  0.9911859237164362  0.9992389699480311  0.03439324953156128  1.0000
