data_image0
_chemical_formula_structural       Hg4H36C48I8N8
_chemical_formula_sum              "Hg4 H36 C48 I8 N8"
_cell_length_a       7.982448812875665
_cell_length_b       13.069605393709981
_cell_length_c       14.175
_cell_angle_alpha    101.54532573544888
_cell_angle_beta     96.42558323014961
_cell_angle_gamma    104.21276378007632

_space_group_name_H-M_alt    "P 1"
_space_group_IT_number       1

loop_
  _space_group_symop_operation_xyz
  'x, y, z'

loop_
  _atom_site_type_symbol
  _atom_site_label
  _atom_site_symmetry_multiplicity
  _atom_site_fract_x
  _atom_site_fract_y
  _atom_site_fract_z
  _atom_site_occupancy
  Hg  Hg1       1.0  0.5193979213326969  0.8615750707380981  0.7864823771929892  1.0000
  Hg  Hg2       1.0  0.4806000024093536  0.1384242253259274  0.21351722096239462  1.0000
  Hg  Hg3       1.0  0.04848963506632487  0.8876302869597837  0.6797920917868154  1.0000
  Hg  Hg4       1.0  0.9515082886757256  0.1123690091042349  0.3202075063685684  1.0000
  H   H1        1.0  0.5686262108653821  0.8750957427049855  0.5678922328918432  1.0000
  H   H2        1.0  0.4313708130554375  0.1249043656553397  0.43210816391989226  1.0000
  H   H3        1.0  0.539231105759491  0.7591826848298595  0.4004591416338386  1.0000
  H   H4        1.0  0.4607697001648958  0.2408174235304728  0.5995421989947403  1.0000
  H   H5        1.0  0.3959732553051722  0.5572328271115694  0.3711274902319274  1.0000
  H   H6        1.0  0.604031693469409  0.44276809354505525  0.628872850450172  1.0000
  H   H7        1.0  0.2960694309676626  0.4831254107773262  0.5087044006091688  1.0000
  H   H8        1.0  0.7039335354458202  0.5168738852866994  0.491295515345506  1.0000
  H   H9        1.0  0.025338817869204885  0.48018895964123226  0.5755753130488658  1.0000
  H   H10       1.0  0.9746648702375184  0.5198119610153995  0.4244256536507791  1.0000
  H   H11       1.0  0.8904677792390673  0.280722291721851  0.5429353551102309  1.0000
  H   H12       1.0  0.10953374837856696  0.7192794412310802  0.45706350892645986  1.0000
  H   H13       1.0  0.027207750983599503  0.1691087181796007  0.6327124341217781  1.0000
  H   H14       1.0  0.9727898119118308  0.8308897655881253  0.36728416952531967  1.0000
  H   H15       1.0  0.2953560704189044  0.2571518898916736  0.7579384906590079  1.0000
  H   H16       1.0  0.7046423922977638  0.7428457815797458  0.24206013620122488  1.0000
  H   H17       1.0  0.4324413101296045  0.4563992378091868  0.7903598477132546  1.0000
  H   H18       1.0  0.5675564308938092  0.5435968090696264  0.20964055027149436  1.0000
  H   H19       1.0  0.9079144401910002  0.9016488965605447  0.8895674519252169  1.0000
  H   H20       1.0  0.09208384439767768  0.0983512117997805  0.1104330243363449  1.0000
  H   H21       1.0  0.10698138587849826  0.8561822355811016  0.013165024092380368  1.0000
  H   H22       1.0  0.893018881071278  0.1438194973718296  0.9868365823639778  1.0000
  H   H23       1.0  0.974231248126685  0.7246495320915899  0.1108238832244908  1.0000
  H   H24       1.0  0.02576703646198547  0.2753505762687425  0.8891758875696922  1.0000
  H   H25       1.0  0.6483300607636053  0.6452410700826121  0.07684324623949829  1.0000
  H   H26       1.0  0.3516685846716854  0.3547598505740197  0.923156697193491  1.0000
  H   H27       1.0  0.4540229812390352  0.8134578869212845  0.12563466296147396  1.0000
  H   H28       1.0  0.5459780074039886  0.18654547062425308  0.8743651723703678  1.0000
  H   H29       1.0  0.32238920596932996  0.7685460243169331  0.2674707569373567  1.0000
  H   H30       1.0  0.6776114218270665  0.231456520932305  0.7325296112230504  1.0000
  H   H31       1.0  0.13855843367097984  0.5804913071613171  0.256485595224774  1.0000
  H   H32       1.0  0.8614465151036086  0.4195096134953147  0.7435147454573254  1.0000
  H   H33       1.0  0.07949542066675966  0.4399526745581425  0.1017397140844665  1.0000
  H   H34       1.0  0.9205120494435377  0.5600482460984892  0.8982607854972784  1.0000
  H   H35       1.0  0.2004904472617781  0.4882445020801427  0.955911189349294  1.0000
  H   H36       1.0  0.7995157621806612  0.5117564185764891  0.04408993625000333  1.0000
  C   C1        1.0  0.5061287787843796  0.7878713656665469  0.5512014386117201  1.0000
  C   C2        1.0  0.4938720271400072  0.2121287426937783  0.4487984910821083  1.0000
  C   C3        1.0  0.4889274190288831  0.7226269142965975  0.4578199599652777  1.0000
  C   C4        1.0  0.5110708655597878  0.2773731940637276  0.5421776944267905  1.0000
  C   C5        1.0  0.41108521149416793  0.6118483813540436  0.44243492902229775  1.0000
  C   C6        1.0  0.5889184766125553  0.3881525393025882  0.5575639212752392  1.0000
  C   C7        1.0  0.3540854339878905  0.5699842544793228  0.5198650654215983  1.0000
  C   C8        1.0  0.6459178932722125  0.43001585388100233  0.4801322013023891  1.0000
  C   C9        1.0  0.37497368689111704  0.6401114189278516  0.6118063885118161  1.0000
  C   C10       1.0  0.6250280188545076  0.359887877136174  0.3881948589277826  1.0000
  C   C11       1.0  0.3244441976195276  0.598694055019898  0.6976138643416832  1.0000
  C   C12       1.0  0.6755575081260972  0.4013052410441277  0.3023887940326588  1.0000
  C   C13       1.0  0.23826942026379067  0.4815511805417074  0.6845151416712908  1.0000
  C   C14       1.0  0.7617301249927451  0.5184489278186177  0.3154861195074616  1.0000
  C   C15       1.0  0.084945201038586  0.4309223765553796  0.6149804278908206  1.0000
  C   C16       1.0  0.9150534443967046  0.5690785441012522  0.3850202210095333  1.0000
  C   C17       1.0  0.008457500808631765  0.3194866959035281  0.597522809323742  1.0000
  C   C18       1.0  0.9915411446266589  0.6805142247531037  0.4024785450439836  1.0000
  C   C19       1.0  0.08421984549211459  0.256789605740444  0.6488377173687355  1.0000
  C   C20       1.0  0.9157762786074672  0.7432113149161877  0.35116206716460857  1.0000
  C   C21       1.0  0.2348795987096253  0.3065825568307687  0.7191465628915239  1.0000
  C   C22       1.0  0.7651206636495118  0.6934134900480373  0.2808546994602422  1.0000
  C   C23       1.0  0.3113701645733684  0.4184446930418062  0.7377172734226463  1.0000
  C   C24       1.0  0.6886297415297876  0.5815562276148256  0.2622834549275339  1.0000
  C   C25       1.0  0.8554587357124248  0.8440530271816016  0.9322595592669884  1.0000
  C   C26       1.0  0.14453990972286587  0.1559478934750302  0.0677403841660009  1.0000
  C   C27       1.0  0.9662390416645225  0.8190919740803366  0.002136190528041513  1.0000
  C   C28       1.0  0.033756721588431994  0.1809081342799956  0.9978648323012395  1.0000
  C   C29       1.0  0.8924942314018837  0.7462931670905562  0.05535697136048162  1.0000
  C   C30       1.0  0.10750315336555623  0.2537077535660757  0.9446428926226815  1.0000
  C   C31       1.0  0.7114707535773661  0.7020782547143583  0.03663725774716648  1.0000
  C   C32       1.0  0.2885269920366937  0.2979234782385802  0.9633656007442893  1.0000
  C   C33       1.0  0.6078426331124901  0.7295631124296946  0.9644164329991085  1.0000
  C   C34       1.0  0.3921560123228075  0.2704378082269372  0.03558351043387378  1.0000
  C   C35       1.0  0.41519661612531417  0.6776622524325404  0.9459593171366691  1.0000
  C   C36       1.0  0.5848036508244547  0.3223394805203981  0.054040172917566985  1.0000
  C   C37       1.0  0.33628845409376135  0.6525801671820943  0.031435784607275294  1.0000
  C   C38       1.0  0.6637123518306252  0.3474199411782379  0.9685641450865532  1.0000
  C   C39       1.0  0.37166891912941935  0.7315491768910363  0.12001519225236729  1.0000
  C   C40       1.0  0.6283309869737295  0.2684517437655956  0.8799848306304413  1.0000
  C   C41       1.0  0.29857049674646413  0.7058497464501485  0.20007615421295094  1.0000
  C   C42       1.0  0.7014212971936474  0.294141426650846  0.7999257914590103  1.0000
  C   C43       1.0  0.19459781013723898  0.6007767827413204  0.1937423580400903  1.0000
  C   C44       1.0  0.8054038956083858  0.39922251332269804  0.8062574784647651  1.0000
  C   C45       1.0  0.16045745847379314  0.5217785303654665  0.10633129935123968  1.0000
  C   C46       1.0  0.8395446081184516  0.4782215779948586  0.8936701207271581  1.0000
  C   C47       1.0  0.2286171626107745  0.5481944061457824  0.025165725858322194  1.0000
  C   C48       1.0  0.771387247189196  0.4518081391034556  0.9748327642494417  1.0000
  I   I1        1.0  0.3072648881833331  0.9732186992435673  0.878051344474642  1.0000
  I   I2        1.0  0.6927350179198157  0.026782221413057496  0.1219486784081667  1.0000
  I   I3        1.0  0.804603363955799  0.0168705819213173  0.7460579803668921  1.0000
  I   I4        1.0  0.19539618130072964  0.9831295264390078  0.25394257534448167  1.0000
  I   I5        1.0  0.8892665604922882  0.6795938930415629  0.6859167767494583  1.0000
  I   I6        1.0  0.1107338845854784  0.3204054030224555  0.3140836857729425  1.0000
  I   I7        1.0  0.25387508664429953  0.9897538027916681  0.5677068852088709  1.0000
  I   I8        1.0  0.7461203157620346  0.010245493272357499  0.4322918485794959  1.0000
  N   N1        1.0  0.4510310818000746  0.7476838183616508  0.6252513126234973  1.0000
  N   N2        1.0  0.5489713456387975  0.2523171022949811  0.3747481636915849  1.0000
  N   N3        1.0  0.3673525644452411  0.6690795296928442  0.7815077142799751  1.0000
  N   N4        1.0  0.6326484196071362  0.330918141778568  0.2184910714799102  1.0000
  N   N5        1.0  0.3112267824652193  0.6432671900658136  0.861756820214218  1.0000
  N   N6        1.0  0.6887736626125475  0.356732105998212  0.1382429368408111  1.0000
  N   N7        1.0  0.6814644315132482  0.799899849324447  0.9127406149995777  1.0000
  N   N8        1.0  0.3185325924075642  0.200100259035878  0.0872604872795293  1.0000
