data_image0
_chemical_formula_structural       Al4H14C38N4O20
_chemical_formula_sum              "Al4 H14 C38 N4 O20"
_cell_length_a       6.716344049100166
_cell_length_b       19.536713938287708
_cell_length_c       21.37104308922496
_cell_angle_alpha    86.703687410566
_cell_angle_beta     89.2199263014404
_cell_angle_gamma    89.73996506632238

_space_group_name_H-M_alt    "P 1"
_space_group_IT_number       1

loop_
  _space_group_symop_operation_xyz
  'x, y, z'

loop_
  _atom_site_type_symbol
  _atom_site_label
  _atom_site_symmetry_multiplicity
  _atom_site_fract_x
  _atom_site_fract_y
  _atom_site_fract_z
  _atom_site_occupancy
  Al  Al1       1.0  0.7537709770297948  0.2648961243971257  0.2621042944485694  1.0000
  Al  Al2       1.0  0.24623358125672465  0.7351034184467478  0.7378949302915743  1.0000
  Al  Al3       1.0  0.2523598112199892  0.2647206398170852  0.26225758583373704  1.0000
  Al  Al4       1.0  0.747644757999069  0.7352783903246092  0.7377416641484443  1.0000
  H   H1        1.0  0.2421919132597949  0.09111861305403579  0.9712803506552774  1.0000
  H   H2        1.0  0.7578022110286254  0.9088814296138636  0.028718901907779985  1.0000
  H   H3        1.0  0.8393129257682118  0.1135466305906476  0.8899766599136213  1.0000
  H   H4        1.0  0.960702368372459  0.05544426794733678  0.8502237621758725  1.0000
  H   H5        1.0  0.1606752826321198  0.8864513557252779  0.110022255941665  1.0000
  H   H6        1.0  0.03928732168545681  0.9445542310948124  0.14977558885539824  1.0000
  H   H7        1.0  0.4669786496539317  0.9465435649080903  0.016327734296822896  1.0000
  H   H8        1.0  0.3613288144638318  0.8915630440651228  0.9691926576459124  1.0000
  H   H9        1.0  0.5330110767823512  0.05345339421182871  0.9836721604592785  1.0000
  H   H10       1.0  0.6386593684906713  0.10843596947084679  0.030805739726588403  1.0000
  H   H11       1.0  0.5045357977420935  0.17680884041158862  0.2532991242229414  1.0000
  H   H12       1.0  0.49546877505772347  0.8231901879144131  0.7467005937579644  1.0000
  H   H13       1.0  0.0015461181682852004  0.3520062335768727  0.2771233403307107  1.0000
  H   H14       1.0  0.9984584763063395  0.6479922765998791  0.7228778068884054  1.0000
  C   C1        1.0  0.5056385790993119  0.34871064928222484  0.1746344668840933  1.0000
  C   C2        1.0  0.4943615302531582  0.6512883717088725  0.8253657418376575  1.0000
  C   C3        1.0  0.4987085535484609  0.34532167634361594  0.34410310356523877  1.0000
  C   C4        1.0  0.5013049171194623  0.654678395687924  0.6558946464524597  1.0000
  C   C5        1.0  0.00016531745888669994  0.17816722945232039  0.347927877294417  1.0000
  C   C6        1.0  0.9998421568319174  0.8218353914684117  0.652071648830848  1.0000
  C   C7        1.0  0.007376302485454302  0.18401566242065565  0.1810715103470244  1.0000
  C   C8        1.0  0.9926342337036047  0.8159828623778009  0.8189277345543645  1.0000
  C   C9        1.0  0.9452481423778137  0.0333494825845335  0.9446355121333525  1.0000
  C   C10       1.0  0.05474304762201138  0.9666485055951737  0.0553638565592536  1.0000
  C   C11       1.0  0.13600283923225479  0.0500514510534202  0.9833897642135625  1.0000
  C   C12       1.0  0.8639883581193429  0.9499460262398002  0.016609161722350104  1.0000
  C   C13       1.0  0.009142835071529  0.135713140256172  0.13301879385687704  1.0000
  C   C14       1.0  0.9908557999751366  0.8642848571222147  0.8669805369321965  1.0000
  C   C15       1.0  0.8159761249612386  0.02846930116071889  0.007389241954065501  1.0000
  C   C16       1.0  0.18401504317351677  0.9715297124233474  0.9926100762544721  1.0000
  C   C17       1.0  0.0061398080160231005  0.046288692085091995  0.04571652299419781  1.0000
  C   C18       1.0  0.9938498856226586  0.953709805141365  0.9542832960358041  1.0000
  C   C19       1.0  0.009987576117431698  0.09397626587229978  0.0927068063838306  1.0000
  C   C20       1.0  0.9900065664552997  0.9060227532069259  0.9072920286645713  1.0000
  C   C21       1.0  0.0015837394240207957  0.87535852198441  0.6027752319052055  1.0000
  C   C22       1.0  0.9984236982981541  0.1246461461136619  0.397225129249378  1.0000
  C   C23       1.0  0.0017101495391501002  0.9231847426467396  0.5629942201800803  1.0000
  C   C24       1.0  0.9982928322777197  0.0768188999748318  0.4370048102045132  1.0000
  C   C25       1.0  0.0008201711671134048  0.9756957280436892  0.5197435009959861  1.0000
  C   C26       1.0  0.999175383696979  0.024307389045638696  0.48025652853161915  1.0000
  C   C27       1.0  0.5066431314282127  0.39532859672087994  0.11984654782718  1.0000
  C   C28       1.0  0.49335844883957963  0.6046709424435192  0.8801526920743825  1.0000
  C   C29       1.0  0.5046798214090414  0.43550768806048273  0.07358793437200718  1.0000
  C   C30       1.0  0.4953262185350765  0.5644923675096152  0.9264117255441278  1.0000
  C   C31       1.0  0.5016926350657229  0.4796131279760018  0.023132010927909605  1.0000
  C   C32       1.0  0.4983089050526814  0.5203884601814225  0.9768675960042402  1.0000
  C   C33       1.0  0.49667068932438246  0.3928704561497581  0.39317561821661684  1.0000
  C   C34       1.0  0.5033412340907262  0.6071321793686406  0.6068215451728918  1.0000
  C   C35       1.0  0.4973370969612886  0.43413793576220894  0.43431361443071376  1.0000
  C   C36       1.0  0.5026584437700236  0.5658646813347731  0.5656831643478455  1.0000
  C   C37       1.0  0.4988498802900025  0.479256106159994  0.4792983767921656  1.0000
  C   C38       1.0  0.5011217271563453  0.5207511012678977  0.52069689210321  1.0000
  N   N1        1.0  0.8690271136761893  0.0624776741691946  0.8877902908206465  1.0000
  N   N2        1.0  0.1309640544585591  0.9375213394148716  0.1122090273878911  1.0000
  N   N3        1.0  0.3711001266828048  0.9415006440738054  0.9802981079479879  1.0000
  N   N4        1.0  0.6288910559652408  0.0584978549923889  0.0197017035013118  1.0000
  O   O1        1.0  0.32986894878473544  0.3271231257265939  0.32457039530183357  1.0000
  O   O2        1.0  0.6701445181121598  0.6728774553757475  0.6754282654712824  1.0000
  O   O3        1.0  0.6751963324167176  0.3311807440971108  0.19625116709648444  1.0000
  O   O4        1.0  0.32480678021006065  0.668817760608519  0.8037509237007968  1.0000
  O   O5        1.0  0.8367038511070604  0.203613983127191  0.20031516020440418  1.0000
  O   O6        1.0  0.163303670684904  0.7963860779140217  0.799683556133573  1.0000
  O   O7        1.0  0.6696786899649894  0.3269182585670194  0.3246437194401963  1.0000
  O   O8        1.0  0.3303333461659789  0.6730797553689952  0.6753555431225138  1.0000
  O   O9        1.0  0.8306520307769603  0.19830822420879454  0.3280384598839561  1.0000
  O   O10       1.0  0.16935248755044088  0.8016928603730024  0.67195975313264  1.0000
  O   O11       1.0  0.33479623846426415  0.33064787026582115  0.196015068560655  1.0000
  O   O12       1.0  0.6652068673815208  0.6693496235609757  0.8039833287308794  1.0000
  O   O13       1.0  0.5035066262710755  0.22460652065677073  0.2632028194044125  1.0000
  O   O14       1.0  0.4964994283765947  0.7753925131403462  0.7367959549983354  1.0000
  O   O15       1.0  0.1712131206024523  0.19862473340657513  0.3286460596779436  1.0000
  O   O16       1.0  0.8287943717824077  0.8013773711805924  0.671354427686808  1.0000
  O   O17       1.0  0.1757844421387063  0.2026955381933178  0.2010023707320485  1.0000
  O   O18       1.0  0.8242216415355513  0.7973024665680553  0.7989973901522162  1.0000
  O   O19       1.0  0.002684412649671199  0.30607765754545824  0.26221878566546053  1.0000
  O   O20       1.0  0.9973216310654607  0.6939218889538451  0.7377799634952568  1.0000
