data_image0
_chemical_formula_structural       Al6H41C67NO30
_chemical_formula_sum              "Al6 H41 C67 N1 O30"
_cell_length_a       12.212554138089144
_cell_length_b       12.173263001484715
_cell_length_c       26.986036590428263
_cell_angle_alpha    82.38180656289407
_cell_angle_beta     82.24286574902553
_cell_angle_gamma    63.26298447384236

_space_group_name_H-M_alt    "P 1"
_space_group_IT_number       1

loop_
  _space_group_symop_operation_xyz
  'x, y, z'

loop_
  _atom_site_type_symbol
  _atom_site_label
  _atom_site_symmetry_multiplicity
  _atom_site_fract_x
  _atom_site_fract_y
  _atom_site_fract_z
  _atom_site_occupancy
  Al  Al1       1.0  0.40529843515400893  0.4031875190701443  0.5098784886353442  1.0000
  Al  Al2       1.0  0.6604090885023908  0.42510817640886245  0.4949886912993264  1.0000
  Al  Al3       1.0  0.4240838015003376  0.6600796095113424  0.497104908856585  1.0000
  Al  Al4       1.0  0.9303740620873461  0.9355700422338059  0.9788204031557869  1.0000
  Al  Al5       1.0  0.91496104573492  0.6766339559730526  0.9958206586885581  1.0000
  Al  Al6       1.0  0.6773574293448518  0.9097395181610325  0.9932590162483806  1.0000
  H   H1        1.0  0.2986456973676255  0.7249658961021906  0.17892316464973856  1.0000
  H   H2        1.0  0.8266390186245971  0.21543961498237252  0.2700792377834276  1.0000
  H   H3        1.0  0.3245820258460271  0.7291462615828549  0.26291163206087736  1.0000
  H   H4        1.0  0.8575854934379593  0.05867985697939559  0.2840399534876923  1.0000
  H   H5        1.0  0.8097465410608748  0.20638648373935814  0.1850843936595936  1.0000
  H   H6        1.0  0.6051505734444476  0.37499042778089386  0.2602086706431948  1.0000
  H   H7        1.0  0.5789432578561888  0.3394809079676833  0.18021963907006722  1.0000
  H   H8        1.0  0.8679507494765205  0.04499623674055189  0.1976586607311859  1.0000
  H   H9        1.0  0.5178694943544003  0.6493048362814803  0.8131235929233755  1.0000
  H   H10       1.0  0.48329541325771425  0.6791123549601039  0.7273237516856242  1.0000
  H   H11       1.0  0.7054938380702255  0.8118022553462083  0.6853508628125909  1.0000
  H   H12       1.0  0.38025708282709303  0.5671075525117573  0.2701627796412184  1.0000
  H   H13       1.0  0.5475245611178962  0.8483658743494333  0.6941167881478663  1.0000
  H   H14       1.0  0.9948761162003449  0.8024742559251905  0.30225064739381935  1.0000
  H   H15       1.0  0.6939858784427245  0.8411999076297646  0.7699658861732885  1.0000
  H   H16       1.0  0.8195509021978328  0.46889230098279455  0.7109653295982596  1.0000
  H   H17       1.0  0.867803068059885  0.582911428173503  0.6862364890181354  1.0000
  H   H18       1.0  0.8561766621140876  0.4985929516043511  0.7894473493963616  1.0000
  H   H19       1.0  0.5898962263184231  0.5222025091861652  0.7245130944189171  1.0000
  H   H20       1.0  0.6496134015928662  0.508581941607467  0.804908839944872  1.0000
  H   H21       1.0  0.09939039600288883  0.8677468431058486  0.2863048161999373  1.0000
  H   H22       1.0  0.07816475483708982  0.8754293852329694  0.2007534105383044  1.0000
  H   H23       1.0  0.3426917079916338  0.564677084163783  0.1876301620028045  1.0000
  H   H24       1.0  0.9632298216892109  0.8236829373053213  0.2175374482533101  1.0000
  H   H25       1.0  0.22959818233454854  0.47392334378242407  0.2951270086944362  1.0000
  H   H26       1.0  0.0733057386257272  0.5693586265602094  0.3117571782916642  1.0000
  H   H27       1.0  0.1803781289824685  0.48609043957124237  0.2128320236640846  1.0000
  H   H28       1.0  0.7084360799575576  0.8661908309966506  0.24061003116782592  1.0000
  H   H29       1.0  0.44825883610321443  0.8521330682935754  0.7811822585710005  1.0000
  H   H30       1.0  0.38262244150043756  0.059739869324978684  0.7951396592913299  1.0000
  H   H31       1.0  0.47192950121502253  0.038287327559743296  0.735859204099512  1.0000
  H   H32       1.0  0.5380112875573247  0.0346383697530896  0.7914817976744501  1.0000
  H   H33       1.0  0.8905276856563589  0.6983788939745851  0.7378287558910018  1.0000
  H   H34       1.0  0.026689123684285165  0.5920045847606376  0.2284793256245692  1.0000
  H   H35       1.0  0.4772059136374621  0.2753463228651185  0.2052019242560306  1.0000
  H   H36       1.0  0.48245170490899614  0.33745557188198916  0.2831929162771729  1.0000
  H   H37       1.0  0.6829897506597505  0.9992327268683635  0.3124748559177348  1.0000
  H   H38       1.0  0.5293397170882557  0.11179671402664584  0.3059404310035987  1.0000
  H   H39       1.0  0.5531419381307643  0.0515655809902071  0.2250174171931718  1.0000
  H   H40       1.0  0.30078587786587013  0.29418614804460935  0.5531436280273851  1.0000
  H   H41       1.0  0.0402508753390123  0.0389318855376359  0.9964875905733095  1.0000
  C   C1        1.0  0.6190969535096613  0.2844486273363814  0.4342165485521008  1.0000
  C   C2        1.0  0.28079789771722125  0.653476876604401  0.2028951510598844  1.0000
  C   C3        1.0  0.14595824523712517  0.6780982524000763  0.1993987095909944  1.0000
  C   C4        1.0  0.6175133957475654  0.6225112836134769  0.41850048644004545  1.0000
  C   C5        1.0  0.12304534893377192  0.5727818227097999  0.2304031039532859  1.0000
  C   C6        1.0  0.15221617134564971  0.5629058879456111  0.2852812534061684  1.0000
  C   C7        1.0  0.12264169351357884  0.6862258438815373  0.14748034235292104  1.0000
  C   C8        1.0  0.21076249123092328  0.6598569721945537  0.3447179398027629  1.0000
  C   C9        1.0  0.23528469498543814  0.6490671760711493  0.38781869529474017  1.0000
  C   C10       1.0  0.5734413765229363  0.3030070719745837  0.2621519333536638  1.0000
  C   C11       1.0  0.6247696608742713  0.0816678417769126  0.2895507581502201  1.0000
  C   C12       1.0  0.6618183846282476  0.677453373696963  0.26964335987549504  1.0000
  C   C13       1.0  0.639602574908416  0.04757099625978611  0.2349633360213303  1.0000
  C   C14       1.0  0.682173750935867  0.0998277245613721  0.1030357820365353  1.0000
  C   C15       1.0  0.663975043888975  0.18542036358918076  0.2915055475989092  1.0000
  C   C16       1.0  0.2840627870028882  0.6204410031762322  0.43584475859510974  1.0000
  C   C17       1.0  0.5669576588645313  0.2724078347857244  0.2091724024823307  1.0000
  C   C18       1.0  0.6693228668698908  0.1420700108959849  0.198512473417864  1.0000
  C   C19       1.0  0.7947816621480543  0.1332952002742402  0.2091141281133915  1.0000
  C   C20       1.0  0.7951779377932413  0.1463286143050055  0.2651915142084036  1.0000
  C   C21       1.0  0.6734367160554912  0.1188735628099167  0.146812070738001  1.0000
  C   C22       1.0  0.6577122836935629  0.21103829187833864  0.34298272864429447  1.0000
  C   C23       1.0  0.6518086905189124  0.6659368563146727  0.31999147343221784  1.0000
  C   C24       1.0  0.647791883118188  0.2356353061358192  0.3860577419889353  1.0000
  C   C25       1.0  0.5781398041992248  0.6119971754985585  0.7340861699220581  1.0000
  C   C26       1.0  0.637504193405313  0.78556728788589  0.7078859851399315  1.0000
  C   C27       1.0  0.6335666028899851  0.7991208345434302  0.7649281242820152  1.0000
  C   C28       1.0  0.6191422434533534  0.2812664787608909  0.5763877610031259  1.0000
  C   C29       1.0  0.7075081090761658  0.684068920534635  0.8886614424766393  1.0000
  C   C30       1.0  0.6683741764817271  0.6512856423322617  0.6988535700331227  1.0000
  C   C31       1.0  0.6035785544061838  0.6048728604098131  0.789271807350822  1.0000
  C   C32       1.0  0.6877360475948748  0.6677077063243999  0.7930027869018446  1.0000
  C   C33       1.0  0.8165573106335559  0.586864548281426  0.7665517482065525  1.0000
  C   C34       1.0  0.6417816486821054  0.6528336488638403  0.3660212778590903  1.0000
  C   C35       1.0  0.800472593813929  0.5653728910035126  0.7133102436986577  1.0000
  C   C36       1.0  0.698014937131724  0.6763304701493098  0.8450827514001844  1.0000
  C   C37       1.0  0.6557624830882389  0.6430157683376834  0.646968756552262  1.0000
  C   C38       1.0  0.6434974816255237  0.6363969333040913  0.6035816859429345  1.0000
  C   C39       1.0  0.1058062792378537  0.6929569251587252  0.8632499484021848  1.0000
  C   C40       1.0  0.6170996167709363  0.616023224329993  0.5564803020086088  1.0000
  C   C41       1.0  0.1309666929120539  0.6813988770221044  0.8181168838346906  1.0000
  C   C42       1.0  0.15650047047276425  0.6708659886576385  0.7686614839738865  1.0000
  C   C43       1.0  0.17772614210198867  0.6632191514993409  0.7229235201743478  1.0000
  C   C44       1.0  0.20326243856279544  0.6526080989099513  0.673464446914295  1.0000
  C   C45       1.0  0.3024841793515167  0.6533120341599243  0.2580812281777298  1.0000
  C   C46       1.0  0.22903198567303928  0.6417220669670982  0.6282719071076599  1.0000
  C   C47       1.0  0.6930758675028416  0.1084198196479846  0.8620368777361734  1.0000
  C   C48       1.0  0.684416630436168  0.13736267870782376  0.8169369240510777  1.0000
  C   C49       1.0  0.6752624909029806  0.16501640754140112  0.7674963651393795  1.0000
  C   C50       1.0  0.6674423046478142  0.18574862759253827  0.7217802863236147  1.0000
  C   C51       1.0  0.657071286195915  0.20935531337295293  0.6723063979634177  1.0000
  C   C52       1.0  0.281224562888532  0.61375412665965  0.5779366727952677  1.0000
  C   C53       1.0  0.6464122493462271  0.2325031499070462  0.627076810730742  1.0000
  C   C54       1.0  0.053004597483216315  0.7225335698365781  0.0558490237014055  1.0000
  C   C55       1.0  0.7192025328078984  0.7207803145371229  0.07381073469575482  1.0000
  C   C56       1.0  0.0783698166738703  0.7933765425587751  0.2783142495204274  1.0000
  C   C57       1.0  0.7121896247192083  0.05418457380446281  0.05418702188980969  1.0000
  C   C58       1.0  0.05540976205336538  0.72165229836299  0.9137636941356604  1.0000
  C   C59       1.0  0.7274476439174788  0.71088311313126  0.9356147937003172  1.0000
  C   C60       1.0  0.719888896577224  0.05460351333978511  0.912335039577336  1.0000
  C   C61       1.0  0.6922762536389657  0.6991024574866813  0.1268902483208265  1.0000
  C   C62       1.0  0.680648067863153  0.6917764413133083  0.17293302051123052  1.0000
  C   C63       1.0  0.6698559474645907  0.6843907606165089  0.2232762609923711  1.0000
  C   C64       1.0  0.47455204076450036  0.008384949953651202  0.7765256558024021  1.0000
  C   C65       1.0  0.058970148224837204  0.8018287925314027  0.22221997286610673  1.0000
  C   C66       1.0  0.10036032992822193  0.6962839463366848  0.1040931598628703  1.0000
  C   C67       1.0  0.18571871880031676  0.6676167634719691  0.2930817370469967  1.0000
  N   N1        1.0  0.5137002659035943  0.876549798160127  0.788589024370907  1.0000
  O   O1        1.0  0.3036800131579298  0.5162987167834957  0.4582644542393055  1.0000
  O   O2        1.0  0.6412583340760779  0.8188749444105881  0.0519194991478287  1.0000
  O   O3        1.0  0.6313794495327728  0.0312731861750066  0.03692365834132258  1.0000
  O   O4        1.0  0.5141406253957115  0.3063106104653954  0.4560321558502736  1.0000
  O   O5        1.0  0.8225360611568532  0.03551143995871799  0.9254294398014976  1.0000
  O   O6        1.0  0.03164783395681777  0.8275972624209587  0.9252609368889395  1.0000
  O   O7        1.0  0.03461694651768708  0.6377279608395697  0.9419209404707729  1.0000
  O   O8        1.0  0.8260227231915492  0.6355107772177887  0.9561079989011745  1.0000
  O   O9        1.0  0.6480101452728348  0.8123905524845585  0.9533227383014664  1.0000
  O   O10       1.0  0.6381097301100526  0.026662903888087907  0.9383553620028168  1.0000
  O   O11       1.0  0.8396219368271717  0.8394594237605021  0.9896357022986352  1.0000
  O   O12       1.0  0.6949549163587037  0.5189744558622351  0.5354412808715168  1.0000
  O   O13       1.0  0.7015922671639244  0.3065200247407063  0.4505148268860779  1.0000
  O   O14       1.0  0.694330627418644  0.5185678211815556  0.4371883770176268  1.0000
  O   O15       1.0  0.5184296514362572  0.6986636349221271  0.44064928458162467  1.0000
  O   O16       1.0  0.3086786563204029  0.7023454842930478  0.4514128399089259  1.0000
  O   O17       1.0  0.30566729913129354  0.5081165730958758  0.5657275949610892  1.0000
  O   O18       1.0  0.516058437516392  0.2999327977313015  0.5638228168131505  1.0000
  O   O19       1.0  0.7014251530625871  0.3064401227438013  0.5491041150942522  1.0000
  O   O20       1.0  0.7380804328993449  0.927247067199758  0.22736781083662555  1.0000
  O   O21       1.0  0.901465699208721  0.6379734163287195  0.7665307839990022  1.0000
  O   O22       1.0  0.5143410932623524  0.6932124593825789  0.5396428400850298  1.0000
  O   O23       1.0  0.30310007716200005  0.6978983786970475  0.5503812340052007  1.0000
  O   O24       1.0  0.498084702634145  0.49732273210356953  0.5008199856336404  1.0000
  O   O25       1.0  0.8169115889016539  0.035132031651528506  0.03271980944112579  1.0000
  O   O26       1.0  0.031214779480244172  0.826801917107815  0.032974871385867716  1.0000
  O   O27       1.0  0.031685967021886106  0.6382723314155712  0.040451944838196106  1.0000
  O   O28       1.0  0.8217683236577643  0.6434236904919288  0.054417736498692214  1.0000
  O   O29       1.0  0.32204468318231244  0.3161588239082818  0.5187154444078033  1.0000
  O   O30       1.0  0.012658489345781707  0.023577971192764793  0.9673504550843148  1.0000
