data_image0
_chemical_formula_structural       Zn2H48C40N8O8
_chemical_formula_sum              "Zn2 H48 C40 N8 O8"
_cell_length_a       9.59027216909389
_cell_length_b       10.953276920670389
_cell_length_c       15.748091618293609
_cell_angle_alpha    91.01559081488917
_cell_angle_beta     95.67229489113184
_cell_angle_gamma    90.65305345031949

_space_group_name_H-M_alt    "P 1"
_space_group_IT_number       1

loop_
  _space_group_symop_operation_xyz
  'x, y, z'

loop_
  _atom_site_type_symbol
  _atom_site_label
  _atom_site_symmetry_multiplicity
  _atom_site_fract_x
  _atom_site_fract_y
  _atom_site_fract_z
  _atom_site_occupancy
  Zn  Zn1       1.0  0.3618980221682762  0.45843516623570923  0.48966088119008316  1.0000
  Zn  Zn2       1.0  0.6533099146897141  0.4541526144818703  0.511639094315761  1.0000
  H   H1        1.0  0.605509315152588  0.8748342287558014  0.9305660187722892  1.0000
  H   H2        1.0  0.6169128663789252  0.877649682018095  0.0733405625837165  1.0000
  H   H3        1.0  0.4604093541984112  0.8465790178965377  0.1693518956991227  1.0000
  H   H4        1.0  0.7735732436410527  0.6709886340749306  0.8850297470834291  1.0000
  H   H5        1.0  0.6951926027611391  0.06846615089590098  0.4310959631907138  1.0000
  H   H6        1.0  0.34134498224144477  0.850123771110297  0.5814536191177808  1.0000
  H   H7        1.0  0.1760034022369794  0.599972069844  0.5781676875349502  1.0000
  H   H8        1.0  0.8402935612303395  0.33083665569530035  0.4136857848141203  1.0000
  H   H9        1.0  0.6225918463246741  0.12301871395280976  0.17317181473703155  1.0000
  H   H10       1.0  0.611519142658281  0.15178391166379865  0.2839355966644205  1.0000
  H   H11       1.0  0.46547989236174186  0.08889812277772079  0.21938061538941864  1.0000
  H   H12       1.0  0.4265693677253565  0.3099037860902171  0.24715386636127326  1.0000
  H   H13       1.0  0.4401265646831759  0.2845027687555798  0.137756318270732  1.0000
  H   H14       1.0  0.6929605575882006  0.3511131287394135  0.15804533586526756  1.0000
  H   H15       1.0  0.6796401435703742  0.3753472956474439  0.26779854409730314  1.0000
  H   H16       1.0  0.008081870156772204  0.3732926413401002  0.7533833308664696  1.0000
  H   H17       1.0  0.14480458059343698  0.2650442498518543  0.7581810653749484  1.0000
  H   H18       1.0  0.040224221121150094  0.2828507462183935  0.8449335861123116  1.0000
  H   H19       1.0  0.28142060988577805  0.3843311753634494  0.874904069216228  1.0000
  H   H20       1.0  0.1437789682639234  0.4879088215203636  0.8799076247853532  1.0000
  H   H21       1.0  0.18149030443163378  0.5752698598665729  0.7444716994491073  1.0000
  H   H22       1.0  0.265199658339597  0.4444984523702971  0.7114006099434604  1.0000
  H   H23       1.0  0.7646204807726561  0.4601105208907795  0.708200936425065  1.0000
  H   H24       1.0  0.8666743927528772  0.5583641940956808  0.7772164089679662  1.0000
  H   H25       1.0  0.36759388743961097  0.7013052858240767  0.3613213245799755  1.0000
  H   H26       1.0  0.37910352564298927  0.83328436583016  0.30743595590286077  1.0000
  H   H27       1.0  0.12257670420184037  0.8328682571468918  4.2196848185025415e-06  1.0000
  H   H28       1.0  0.0243689464581749  0.7035883152014006  0.9578595552218017  1.0000
  H   H29       1.0  0.08764162209485699  0.7106347232484181  0.06774526175486528  1.0000
  H   H30       1.0  0.23913908914097695  0.5723030972644024  0.9860950993464142  1.0000
  H   H31       1.0  0.33411674531374297  0.6983615419204199  0.03172430205088259  1.0000
  H   H32       1.0  0.3114956764878514  0.808059870022113  0.8976286668685631  1.0000
  H   H33       1.0  0.19816206109607037  0.6954855009899602  0.8476335380458335  1.0000
  H   H34       1.0  0.7644668400726856  0.3823617206847416  0.9073266956571827  1.0000
  H   H35       1.0  0.7742328210331519  0.281538792527506  0.994865388011341  1.0000
  H   H36       1.0  0.6408833974274087  0.2615117056352005  0.9087972445007819  1.0000
  H   H37       1.0  0.5434687432794901  0.3572258198291961  0.035949918495340696  1.0000
  H   H38       1.0  0.529021098699843  0.45666626903862095  0.9495599374347349  1.0000
  H   H39       1.0  0.7260030156997884  0.5816918200031437  0.009716744796790487  1.0000
  H   H40       1.0  0.7803271730392821  0.47157145443024  0.08464370945342378  1.0000
  H   H41       1.0  0.7071283127419433  0.7363989813712307  0.4190776240319635  1.0000
  H   H42       1.0  0.7617596236907216  0.8672312132288197  0.37900640044443173  1.0000
  H   H43       1.0  0.29570877477414104  0.17560001328200764  0.5677342708265483  1.0000
  H   H44       1.0  0.23557273869064224  0.04025900061031249  0.6067921601250956  1.0000
  H   H45       1.0  0.9683313639776683  0.7068572251814017  0.6207981864297664  1.0000
  H   H46       1.0  0.7998764465588265  0.6579664606061683  0.5900131133352744  1.0000
  H   H47       1.0  0.040851980897343806  0.28500383625001297  0.3258535327664872  1.0000
  H   H48       1.0  0.20405686523691458  0.34936094599406414  0.3518819980634901  1.0000
  C   C1        1.0  0.5162816505942232  0.22127587828305903  0.49043851372755387  1.0000
  C   C2        1.0  0.5114512131706731  0.6976419925765568  0.5143557204979388  1.0000
  C   C3        1.0  0.6183987579852469  0.018696628069363896  0.4642916652461152  1.0000
  C   C4        1.0  0.4191460190878331  0.8997852547139258  0.5488831981070276  1.0000
  C   C5        1.0  0.6244547478731164  0.8915509660526337  0.4682994114272816  1.0000
  C   C6        1.0  0.4135446057095463  0.027501392181264392  0.5456435899870582  1.0000
  C   C7        1.0  0.5205325825185768  0.8329934398579083  0.5116874816615605  1.0000
  C   C8        1.0  0.515491772923454  0.0870034474390238  0.5003943943872426  1.0000
  C   C9        1.0  0.9546875318194308  0.5522945584119012  0.5485318768570335  1.0000
  C   C10       1.0  0.0578476387070808  0.3946249713291934  0.4322777521781233  1.0000
  C   C11       1.0  0.09846755137770198  0.5443872266155907  0.5390881508596976  1.0000
  C   C12       1.0  0.916070365108318  0.39414047829343685  0.44736444347131504  1.0000
  C   C13       1.0  0.4945092003667  0.5066806663108848  0.33779224736539243  1.0000
  C   C14       1.0  0.5070773455729523  0.4689023613626943  0.6650919070344512  1.0000
  C   C15       1.0  0.5010098292864028  0.5647330522250016  0.2527229209844037  1.0000
  C   C16       1.0  0.5200803131034418  0.5214020670481715  0.7533197758786228  1.0000
  C   C17       1.0  0.5727459770766572  0.5089106491717884  0.1891324403910133  1.0000
  C   C18       1.0  0.40051352994911577  0.561371609970429  0.7936604834630925  1.0000
  C   C19       1.0  0.6028606026388558  0.5739443838760535  0.11592675521650618  1.0000
  C   C20       1.0  0.4155840664196332  0.6479103502601048  0.8614484001184477  1.0000
  C   C21       1.0  0.5627459394320055  0.6980389571217528  0.11033748788906908  1.0000
  C   C22       1.0  0.552615573858155  0.6880787084213293  0.8930676093059873  1.0000
  C   C23       1.0  0.4903695608451456  0.7508280652950319  0.17480276532364056  1.0000
  C   C24       1.0  0.6688413365459666  0.6409783298789761  0.8587920137826899  1.0000
  C   C25       1.0  0.45315775402204383  0.6860023200788204  0.2450007868810288  1.0000
  C   C26       1.0  0.6571297300060621  0.5554891255887213  0.7909056320290799  1.0000
  C   C27       1.0  0.5917244061325703  0.7873560755429735  0.044375029022504  1.0000
  C   C28       1.0  0.5817021377353695  0.7868002954847664  0.9584123866727834  1.0000
  C   C29       1.0  0.6202404406812504  0.37863295973836825  0.20423966715926403  1.0000
  C   C30       1.0  0.5001948428522027  0.2834295052351692  0.20108088024656467  1.0000
  C   C31       1.0  0.5529937598495847  0.15480740119657097  0.22028344241189043  1.0000
  C   C32       1.0  0.2573385919361755  0.5047137913559111  0.7665873966182344  1.0000
  C   C33       1.0  0.19557464585820838  0.4288007437749214  0.8358560927810287  1.0000
  C   C34       1.0  0.0915268863199756  0.33212864798674957  0.7961091391477026  1.0000
  C   C35       1.0  0.2901001132305722  0.7087037957024122  0.8947219352042024  1.0000
  C   C36       1.0  0.24939026162239483  0.672142086667847  0.9828017336646722  1.0000
  C   C37       1.0  0.11377448458422627  0.7327662197434534  0.0033484887329535947  1.0000
  C   C38       1.0  0.6862772195272057  0.5127574659954488  0.051122130785387285  1.0000
  C   C39       1.0  0.6055075560112329  0.412935533855382  0.9956228335686743  1.0000
  C   C40       1.0  0.701487229181019  0.33029512224746327  0.9491003556646189  1.0000
  N   N1        1.0  0.1475952853914819  0.46691151187764734  0.4833310504824836  1.0000
  N   N2        1.0  0.8667221898638572  0.47022923272905354  0.5046131934045518  1.0000
  N   N3        1.0  0.7775001415265022  0.5082638155003066  0.7645167702997284  1.0000
  N   N4        1.0  0.37459626672464447  0.7408550629312811  0.3038563069939713  1.0000
  N   N5        1.0  0.7286494619255847  0.8266460713736233  0.43105679064173325  1.0000
  N   N6        1.0  0.31682906095304725  0.08980612802587017  0.5885527257482221  1.0000
  N   N7        1.0  0.9035770981301352  0.6352282231253311  0.6029857529947192  1.0000
  N   N8        1.0  0.11059558314786949  0.32218829919936093  0.37179472758671034  1.0000
  O   O1        1.0  0.40097028948550667  0.27717869577320897  0.4977441276700957  1.0000
  O   O2        1.0  0.6213794936952225  0.6395668642883477  0.5412089956517505  1.0000
  O   O3        1.0  0.6300990468748181  0.2747676328239024  0.4751609430406489  1.0000
  O   O4        1.0  0.3944469667717882  0.647825920825653  0.48746007723472917  1.0000
  O   O5        1.0  0.37843913304858745  0.46427916995716595  0.3590549072749454  1.0000
  O   O6        1.0  0.6148680856193423  0.4201662345021757  0.6350128021913689  1.0000
  O   O7        1.0  0.6084623083503402  0.5115828447777914  0.3867618242277118  1.0000
  O   O8        1.0  0.39215768746299057  0.48329146542411633  0.6180900144773034  1.0000
