data_image0
_chemical_formula_structural       Cd3H38C30S2N12O20
_chemical_formula_sum              "Cd3 H38 C30 S2 N12 O20"
_cell_length_a       9.215907614854885
_cell_length_b       9.57002377040906
_cell_length_c       13.662647098191892
_cell_angle_alpha    84.98438961419967
_cell_angle_beta     83.42975672023978
_cell_angle_gamma    68.28220097993714

_space_group_name_H-M_alt    "P 1"
_space_group_IT_number       1

loop_
  _space_group_symop_operation_xyz
  'x, y, z'

loop_
  _atom_site_type_symbol
  _atom_site_label
  _atom_site_symmetry_multiplicity
  _atom_site_fract_x
  _atom_site_fract_y
  _atom_site_fract_z
  _atom_site_occupancy
  Cd  Cd1       1.0  3.1976500594289147e-06  0.9999986911538058  0.9999981614392937  1.0000
  Cd  Cd2       1.0  0.5222491270292268  0.18848136620093214  0.5027264626351808  1.0000
  Cd  Cd3       1.0  0.4777433958857956  0.8115245654948781  0.49727473042742787  1.0000
  H   H1        1.0  0.19528157516331393  0.09327957964703161  0.1606368011103712  1.0000
  H   H2        1.0  0.8047247785162952  0.906724140097623  0.8393560447019084  1.0000
  H   H3        1.0  0.4253494959454613  0.7652882400324472  0.951699366465846  1.0000
  H   H4        1.0  0.5746592056832469  0.2346986726410095  0.0483032529124898  1.0000
  H   H5        1.0  0.7347410629967754  0.8256619452906195  0.07056937158876758  1.0000
  H   H6        1.0  0.26526761962794154  0.17432494520826225  0.9294317869552204  1.0000
  H   H7        1.0  0.7024304497136173  0.6984641495720469  0.9967649028542881  1.0000
  H   H8        1.0  0.29757474158900277  0.3015260937411099  0.0032363170481203977  1.0000
  H   H9        1.0  0.8296574392466102  0.5671186731110822  0.1448891948405802  1.0000
  H   H10       1.0  0.17034082717171364  0.4328726650903719  0.8551154682698155  1.0000
  H   H11       1.0  0.6740362431109691  0.68714078194256  0.22419369003276293  1.0000
  H   H12       1.0  0.3259597916260475  0.3128504645855585  0.7758067784820426  1.0000
  H   H13       1.0  0.4832874818268209  0.5947100379511526  0.15981174587233937  1.0000
  H   H14       1.0  0.5167132651171684  0.4052800441899152  0.8401825456732226  1.0000
  H   H15       1.0  0.6352926009519989  0.4770373280631903  0.07930271115124302  1.0000
  H   H16       1.0  0.36471408806355754  0.5229517685749486  0.9206962657289355  1.0000
  H   H17       1.0  0.43398722477473944  0.48527628837999975  0.327616172374718  1.0000
  H   H18       1.0  0.566009868043011  0.5147206147250503  0.6723830729467224  1.0000
  H   H19       1.0  0.8494350833588487  0.10104042317593101  0.3270529366756563  1.0000
  H   H20       1.0  0.15056405933209047  0.8989600175775795  0.6729539348244913  1.0000
  H   H21       1.0  0.671300926968918  0.7700525074392817  0.7289616846892102  1.0000
  H   H22       1.0  0.3286936465672384  0.22995128464099687  0.27104607254023694  1.0000
  H   H23       1.0  0.0754286013926304  0.3563544417452817  0.7187069157425867  1.0000
  H   H24       1.0  0.9245692916817704  0.6436514752135312  0.2812886946312219  1.0000
  H   H25       1.0  0.04621915369560974  0.7131428129807987  0.49935949852548595  1.0000
  H   H26       1.0  0.9537670627836548  0.28687667343218953  0.5006449343805954  1.0000
  H   H27       1.0  0.703482520247107  0.3537995593843989  0.5563350359109194  1.0000
  H   H28       1.0  0.2965114236169484  0.6462108142020783  0.4436591328039513  1.0000
  H   H29       1.0  0.7781933491608444  0.17529565995732815  0.5752233737662493  1.0000
  H   H30       1.0  0.2218010145834697  0.8247135654666097  0.42476937629728445  1.0000
  H   H31       1.0  0.9435298491101637  0.32072963644542096  0.005767666017597152  1.0000
  H   H32       1.0  0.056478145560262774  0.6792674256695294  0.9942328310181665  1.0000
  H   H33       1.0  0.9025513298350207  0.2599389136192017  0.11619285013924951  1.0000
  H   H34       1.0  0.09745534893058756  0.7400558491956419  0.88380645833562  1.0000
  H   H35       1.0  0.8675215606687561  0.8951194233093962  0.19294117564579946  1.0000
  H   H36       1.0  0.13248791271061583  0.10487646995595411  0.8070556175333934  1.0000
  H   H37       1.0  0.05300848580296953  0.8151127863166893  0.1783702276842973  1.0000
  H   H38       1.0  0.9470001003059  0.18488534783730165  0.8216257507117035  1.0000
  C   C1        1.0  0.2849736256450869  0.004236614277502302  0.12004148219565991  1.0000
  C   C2        1.0  0.7150334437468544  0.9957626443769315  0.8799552783882235  1.0000
  C   C3        1.0  0.39596185763090824  0.8398566625924888  0.012335463428051686  1.0000
  C   C4        1.0  0.6040420265209364  0.16013696977184824  0.9876663603425015  1.0000
  C   C5        1.0  0.669221331909803  0.7512882847379603  0.06797467387060858  1.0000
  C   C6        1.0  0.3307847561653148  0.2486997287738576  0.9320280912321549  1.0000
  C   C7        1.0  0.7031908921866975  0.632899885433929  0.15307622588204584  1.0000
  C   C8        1.0  0.2968079941760564  0.3670925580684213  0.846926109840112  1.0000
  C   C9        1.0  0.6098653797149112  0.5314276295361468  0.15008910567575381  1.0000
  C   C10       1.0  0.39013777997055854  0.468564775567117  0.8499070108941567  1.0000
  C   C11       1.0  0.5487199147555443  0.4016865656471397  0.3084993681052666  1.0000
  C   C12       1.0  0.4512782748988683  0.5983103611200066  0.6915005136796211  1.0000
  C   C13       1.0  0.7609504308165568  0.20771309132524612  0.3058435376529403  1.0000
  C   C14       1.0  0.23904847380223535  0.7922850516156785  0.6941613209154198  1.0000
  C   C15       1.0  0.8506670549548193  0.7557321395350202  0.6088845967344696  1.0000
  C   C16       1.0  0.1493211368775675  0.24427944130013668  0.3911194949892192  1.0000
  C   C17       1.0  0.7856886395538183  0.7017054727145082  0.6948375237023399  1.0000
  C   C18       1.0  0.2143061055405227  0.2983005395673431  0.3051671335386886  1.0000
  C   C19       1.0  0.868872742771096  0.5594700360257719  0.7353344314219328  1.0000
  C   C20       1.0  0.1311232809680263  0.44053255394304364  0.2646674306994257  1.0000
  C   C21       1.0  0.012940573962580961  0.4699310830297635  0.6900437449757959  1.0000
  C   C22       1.0  0.9870547340642163  0.5300759680292659  0.3099542023739588  1.0000
  C   C23       1.0  0.08004119819541701  0.5250852985250917  0.606106625611041  1.0000
  C   C24       1.0  0.9199514765258454  0.47492850846171575  0.39389106864067  1.0000
  C   C25       1.0  0.9984582740968121  0.6690709682166587  0.5661463179392499  1.0000
  C   C26       1.0  0.0015327313533290915  0.3309417652435869  0.4338567193231029  1.0000
  C   C27       1.0  0.7603324633139793  0.904998245294536  0.5611171767552605  1.0000
  C   C28       1.0  0.2396557665263828  0.09501337988977812  0.4388898366371166  1.0000
  C   C29       1.0  0.23648653920173493  0.42718729202022154  0.5600869593670695  1.0000
  C   C30       1.0  0.76350479036077  0.5728298596686017  0.4399084170840979  1.0000
  S   S1        1.0  0.7929266752685394  0.48565028738141086  0.8450942352547557  1.0000
  S   S2        1.0  0.20707935504665903  0.5143433368706668  0.1549052093568406  1.0000
  N   N1        1.0  0.25568875650645145  0.9404113135875749  0.04218423383176167  1.0000
  N   N2        1.0  0.7443174833748999  0.05958457521522582  0.9578150324601041  1.0000
  N   N3        1.0  0.5029888431839424  0.8451799676293208  0.06963414947890809  1.0000
  N   N4        1.0  0.4970156799163235  0.15481479221048747  0.930366807737741  1.0000
  N   N5        1.0  0.4340569157496148  0.9492515105701785  0.1392060619970223  1.0000
  N   N6        1.0  0.5659475685947157  0.05074888218447881  0.8607930355628071  1.0000
  N   N7        1.0  0.6422810955999764  0.413145219752316  0.22827122322318874  1.0000
  N   N8        1.0  0.357716226535871  0.5868482928140396  0.7717282426009859  1.0000
  N   N9        1.0  0.7780868502391557  0.2904234742600948  0.22520619140555448  1.0000
  N   N10       1.0  0.22191420129094291  0.7095689833045784  0.774795225991987  1.0000
  N   N11       1.0  0.6205123314167482  0.27250343905154756  0.3591786900450629  1.0000
  N   N12       1.0  0.3794861058118074  0.7274957966154718  0.6408239350887754  1.0000
  O   O1        1.0  0.6082585528887139  0.9493118011733587  0.5753368019713463  1.0000
  O   O2        1.0  0.39173032615001807  0.0506952853097218  0.4246690132724353  1.0000
  O   O3        1.0  0.8310989215877811  0.9805337729232381  0.5112579249668484  1.0000
  O   O4        1.0  0.16888882260630572  0.0194732455486033  0.48874433214479757  1.0000
  O   O5        1.0  0.3036410218753076  0.47692520592029564  0.4866182035809103  1.0000
  O   O6        1.0  0.6963465782929533  0.5230930007702173  0.5133752212968902  1.0000
  O   O7        1.0  0.2966024514412311  0.29318962920707053  0.5981339204774586  1.0000
  O   O8        1.0  0.7033947916868611  0.7068265037169613  0.40186395005681413  1.0000
  O   O9        1.0  0.7871979123707293  0.34115645989248833  0.818496284484013  1.0000
  O   O10       1.0  0.21281807626261454  0.658833820470406  0.1814981525438313  1.0000
  O   O11       1.0  0.9071338039188535  0.46344281364989126  0.9179058896498519  1.0000
  O   O12       1.0  0.09287416224558603  0.5365542152031965  0.0820924161343939  1.0000
  O   O13       1.0  0.6378710146321183  0.5970788442585191  0.8722721243776661  1.0000
  O   O14       1.0  0.362131840692925  0.40290348752675004  0.1277320518259017  1.0000
  O   O15       1.0  0.6846360183093126  0.26443198858360273  0.5911826327902006  1.0000
  O   O16       1.0  0.31536055811232444  0.7355773063390958  0.40881285103458964  1.0000
  O   O17       1.0  0.9700824954717081  0.23153720620112492  0.053133406286768464  1.0000
  O   O18       1.0  0.02992419279589592  0.7684575677010062  0.9468666326052713  1.0000
  O   O19       1.0  0.9628883815143889  0.9133894243468393  0.16944415409806624  1.0000
  O   O20       1.0  0.03712002353430681  0.08660647851828436  0.8305541938691904  1.0000
