data_image0
_chemical_formula_structural       Tl2H36C32N8O2
_chemical_formula_sum              "Tl2 H36 C32 N8 O2"
_cell_length_a       7.618460516869976
_cell_length_b       9.766586915806661
_cell_length_c       11.368856185272692
_cell_angle_alpha    108.4444251445671
_cell_angle_beta     97.57742885352393
_cell_angle_gamma    92.38759905171592

_space_group_name_H-M_alt    "P 1"
_space_group_IT_number       1

loop_
  _space_group_symop_operation_xyz
  'x, y, z'

loop_
  _atom_site_type_symbol
  _atom_site_label
  _atom_site_symmetry_multiplicity
  _atom_site_fract_x
  _atom_site_fract_y
  _atom_site_fract_z
  _atom_site_occupancy
  Tl  Tl1       1.0  0.24424357641031946  0.0831499249797432  0.40505838877341194  1.0000
  Tl  Tl2       1.0  0.7557570118347099  0.9168522495710646  0.5949413966097978  1.0000
  H   H1        1.0  0.007252652106302499  0.24467363091302016  0.2924733244978199  1.0000
  H   H2        1.0  0.9927478198818985  0.7553274600412792  0.7075261514885653  1.0000
  H   H3        1.0  0.3486538591263296  0.769091232321621  0.29158803913631465  1.0000
  H   H4        1.0  0.6513450545596836  0.23090768444193085  0.7084115780044371  1.0000
  H   H5        1.0  0.27598251107337995  0.5656485056209348  0.09328916559049114  1.0000
  H   H6        1.0  0.7240137510356135  0.4343503971471492  0.9067119714463132  1.0000
  H   H7        1.0  0.058442688745650215  0.5888196782975613  0.9170768144177046  1.0000
  H   H8        1.0  0.9415535718815348  0.4111792187933361  0.08292520052883386  1.0000
  H   H9        1.0  0.9126715965753573  0.8152586741653141  0.942248803687555  1.0000
  H   H10       1.0  0.08733008346271019  0.18474133451302072  0.05775048086370301  1.0000
  H   H11       1.0  0.9812625394383755  0.020807804638103295  0.142832020176094  1.0000
  H   H12       1.0  0.018740466388209125  0.9791922110379617  0.8571665044271413  1.0000
  H   H13       1.0  0.13841036338413198  0.15857612253578424  0.6777341307782976  1.0000
  H   H14       1.0  0.8615846995658386  0.8414238965713494  0.3222619302352356  1.0000
  H   H15       1.0  0.21947240755137895  0.3529481558398828  0.8802409559103025  1.0000
  H   H16       1.0  0.7805237427461974  0.6470496803632386  0.11975723800047434  1.0000
  H   H17       1.0  0.4247993805530469  0.5672703897303252  0.8983439228816509  1.0000
  H   H18       1.0  0.5751980881240114  0.43272742508462153  0.1016579006297675  1.0000
  H   H19       1.0  0.550003127039396  0.582658724830168  0.7106225070640377  1.0000
  H   H20       1.0  0.4499972227647361  0.4173412598188904  0.2893801711644457  1.0000
  H   H21       1.0  0.47582125548226617  0.38382126610976297  0.5079480525831457  1.0000
  H   H22       1.0  0.5241830687237864  0.6161787281781271  0.49205410162072377  1.0000
  H   H23       1.0  0.6233007582563911  0.22384182724366752  0.1425681780483572  1.0000
  H   H24       1.0  0.3767011528135383  0.7761603429505043  0.8574326032062914  1.0000
  H   H25       1.0  0.4175911276499205  0.17091059475411194  0.1801559511227069  1.0000
  H   H26       1.0  0.5824107849018175  0.8290915811172468  0.8198439522222145  1.0000
  H   H27       1.0  0.531259194728804  0.0896026088820392  0.9136784652308592  1.0000
  H   H28       1.0  0.46874248382746214  0.9103973941191156  0.08632169723012588  1.0000
  H   H29       1.0  0.32139260058882957  0.03955810996065169  0.9452894165654939  1.0000
  H   H30       1.0  0.6786093119629084  0.9604440659107071  0.05471048677942043  1.0000
  H   H31       1.0  0.9587348409147862  0.46718694177056364  0.346476427711778  1.0000
  H   H32       1.0  0.0412628632395524  0.5328130515917593  0.6535242587738281  1.0000
  H   H33       1.0  0.15894904162919224  0.5123096622727843  0.2966164370441717  1.0000
  H   H34       1.0  0.84104878026379  0.4876914203632338  0.7033836809285319  1.0000
  H   H35       1.0  0.16640562279389567  0.4887739394439521  0.4468084861515393  1.0000
  H   H36       1.0  0.8335935234057883  0.51122714451261  0.5531917497828758  1.0000
  C   C1        1.0  0.1705421176751329  0.9095609555541772  0.2304730558843319  1.0000
  C   C2        1.0  0.8294593268856544  0.09043687457678122  0.7695273656927313  1.0000
  C   C3        1.0  0.2528644653860965  0.7808383773829489  0.2159335995588449  1.0000
  C   C4        1.0  0.747135769643009  0.2191605293467873  0.7840678913630725  1.0000
  C   C5        1.0  0.21172399573658396  0.6656269917529017  0.10335086134884365  1.0000
  C   C6        1.0  0.7882737054541378  0.3343729902550622  0.896651580956231  1.0000
  C   C7        1.0  0.0899565936376945  0.6784243531942451  0.004991073235530086  1.0000
  C   C8        1.0  0.9100407617461383  0.3215723893785523  0.9950086850595808  1.0000
  C   C9        1.0  0.007682425270978416  0.8065862745003329  0.019632513749464037  1.0000
  C   C10       1.0  0.9923163721581998  0.19341155866671042  0.980366793994456  1.0000
  C   C11       1.0  0.04773526744551053  0.9220529234578552  0.1322568543022343  1.0000
  C   C12       1.0  0.9522676191606219  0.07794599726734222  0.8677431167236307  1.0000
  C   C13       1.0  0.30156973833605605  0.25820598690949487  0.5789453026851916  1.0000
  C   C14       1.0  0.6984292916067928  0.7417940134505584  0.4210546238523847  1.0000
  C   C15       1.0  0.22980729953112433  0.25027701012290743  0.6838979016816397  1.0000
  C   C16       1.0  0.770188853730069  0.7497208374345804  0.31609853640966895  1.0000
  C   C17       1.0  0.27526060769942257  0.3610752158285494  0.798856145564102  1.0000
  C   C18       1.0  0.7247342153278351  0.6389226076996621  0.20114368620443202  1.0000
  C   C19       1.0  0.3899607098054219  0.48080122567990474  0.8085472838320058  1.0000
  C   C20       1.0  0.6100366470602197  0.5191955225700724  0.19145159655337812  1.0000
  C   C21       1.0  0.4600373240020657  0.4896145656445724  0.7033908827568992  1.0000
  C   C22       1.0  0.5399615852385294  0.5103843340874267  0.29661136811304806  1.0000
  C   C23       1.0  0.4169461236651272  0.37774450249418123  0.5887573356039867  1.0000
  C   C24       1.0  0.583054114327595  0.6222544155899143  0.4112423994984696  1.0000
  C   C25       1.0  0.6488364104193278  0.13448790310481942  0.28957332999944196  1.0000
  C   C26       1.0  0.3511640615688663  0.8655131878494802  0.7104261459869363  1.0000
  C   C27       1.0  0.5530144948244737  0.1396906086841199  0.1684802856108263  1.0000
  C   C28       1.0  0.44698862281352086  0.8603104735569146  0.8315211821184363  1.0000
  C   C29       1.0  0.5434446615756912  0.9943774410131354  0.06244156392875062  1.0000
  C   C30       1.0  0.456556044407982  0.005625822811360601  0.9375576529415567  1.0000
  C   C31       1.0  0.1004558349839968  0.4489350369932695  0.3484635794019866  1.0000
  C   C32       1.0  0.8995419869089856  0.5510660456427489  0.6515365385707241  1.0000
  N   N1        1.0  0.5751210170523605  0.09342047119428541  0.3757003475459442  1.0000
  N   N2        1.0  0.4248794519722238  0.9065806084056477  0.6243008842599025  1.0000
  N   N3        1.0  0.8258766208832281  0.161035237116657  0.3252209292232493  1.0000
  N   N4        1.0  0.17412505767303094  0.8389647658844982  0.6747792332377358  1.0000
  N   N5        1.0  0.7108122937395859  0.09499739223063841  0.46516727286584103  1.0000
  N   N6        1.0  0.2891908268620254  0.9050037013647626  0.534832439043953  1.0000
  N   N7        1.0  0.8612700502569195  0.13450024464024324  0.4347330398379015  1.0000
  N   N8        1.0  0.1387329526060412  0.8654997596814625  0.5652672405847953  1.0000
  O   O1        1.0  0.1221184657041547  0.2980887568990624  0.290741794012412  1.0000
  O   O2        1.0  0.8778807967523717  0.7019134106540149  0.7092587513188277  1.0000
