data_image0
_chemical_formula_structural       Ag2H20C28S4N10O6
_chemical_formula_sum              "Ag2 H20 C28 S4 N10 O6"
_cell_length_a       3.742927006828766
_cell_length_b       7.922689483046519
_cell_length_c       26.124696224282598
_cell_angle_alpha    89.99999176396783
_cell_angle_beta     91.71769100804701
_cell_angle_gamma    90.00040975529127

_space_group_name_H-M_alt    "P 1"
_space_group_IT_number       1

loop_
  _space_group_symop_operation_xyz
  'x, y, z'

loop_
  _atom_site_type_symbol
  _atom_site_label
  _atom_site_symmetry_multiplicity
  _atom_site_fract_x
  _atom_site_fract_y
  _atom_site_fract_z
  _atom_site_occupancy
  Ag  Ag1       1.0  0.7499880284770201  0.8873577387347139  0.2500003650482867  1.0000
  Ag  Ag2       1.0  0.25000441611204854  0.11264124253253271  0.7499988266012707  1.0000
  H   H1        1.0  0.5434120038354776  0.41241641471405205  0.1522410005774475  1.0000
  H   H2        1.0  0.9565999486466338  0.4124145550206963  0.347757608780327  1.0000
  H   H3        1.0  0.45659651070883456  0.5875825665825475  0.8477548181778474  1.0000
  H   H4        1.0  0.043403187551177794  0.5875831640677093  0.6522416308552295  1.0000
  H   H5        1.0  0.6836529034604483  0.6331447593117332  0.08153173129062449  1.0000
  H   H6        1.0  0.8163568666758677  0.6331272144486634  0.41847107195732036  1.0000
  H   H7        1.0  0.31635556420831534  0.36686936835492656  0.9184690633930187  1.0000
  H   H8        1.0  0.1836462224632101  0.36686040705691175  0.5815331436061513  1.0000
  H   H9        1.0  0.025981012432225694  0.21972587623064047  0.1870793319686328  1.0000
  H   H10       1.0  0.4740254548324216  0.21971652695323485  0.312921076343109  1.0000
  H   H11       1.0  0.974003420708584  0.7802781538133348  0.8129190581640912  1.0000
  H   H12       1.0  0.5259749758958845  0.7802761433387319  0.6870815961691433  1.0000
  H   H13       1.0  0.11507717492876418  0.7058135049090951  0.1470637698451895  1.0000
  H   H14       1.0  0.3848801977276182  0.7058151761591276  0.3529383168371467  1.0000
  H   H15       1.0  0.8848858713528144  0.2941892628995079  0.8529349070791739  1.0000
  H   H16       1.0  0.6151255860656519  0.29418128073542965  0.6470636141407907  1.0000
  H   H17       1.0  0.37574766398110165  0.9017070635760194  0.0670522090611243  1.0000
  H   H18       1.0  0.12422592696925248  0.9017102906301915  0.4329487959535143  1.0000
  H   H19       1.0  0.6242314233049555  0.09829065547033623  0.9329461570784829  1.0000
  H   H20       1.0  0.8757745001997392  0.09828995284750873  0.5670542593225676  1.0000
  C   C1        1.0  0.3424231855933472  0.24593852224412424  0.09117281353645981  1.0000
  C   C2        1.0  0.1575809999588031  0.24592042469830494  0.40882643537615593  1.0000
  C   C3        1.0  0.6575585892191141  0.7540819163650382  0.908824033545244  1.0000
  C   C4        1.0  0.8424221289463673  0.7540684590063268  0.5911735697866475  1.0000
  C   C5        1.0  0.48507199169583254  0.3919283328644313  0.11160965825663992  1.0000
  C   C6        1.0  0.014926283092698604  0.3919248926469976  0.3883907079068933  1.0000
  C   C7        1.0  0.5149177872356107  0.6080731727936595  0.8883887558690519  1.0000
  C   C8        1.0  0.9850634741256671  0.6080728264173844  0.6116100028009228  1.0000
  C   C9        1.0  0.5594540398798244  0.5116252030179068  0.0732042553727013  1.0000
  C   C10       1.0  0.9405620542854435  0.5116358583465513  0.4267913072354119  1.0000
  C   C11       1.0  0.44056786795445646  0.4883535831409206  0.9267885612551935  1.0000
  C   C12       1.0  0.05943843082171442  0.4883795315049326  0.5732056238217424  1.0000
  C   C13       1.0  0.47429932707161265  0.45739727150999704  0.023947194250951  1.0000
  C   C14       1.0  0.025764029548206197  0.4574039108951027  0.4760553758667996  1.0000
  C   C15       1.0  0.5257813196684538  0.5425903501334234  0.9760527760467923  1.0000
  C   C16       1.0  0.9742925250646196  0.5426051680646821  0.5239483140997478  1.0000
  C   C17       1.0  0.0862257644916298  0.10565992578361974  0.165731079352625  1.0000
  C   C18       1.0  0.4137843751106088  0.10564908862716751  0.3342712629037266  1.0000
  C   C19       1.0  0.9137479662342685  0.8943504152293897  0.8342684110852829  1.0000
  C   C20       1.0  0.586234765930712  0.8943410573024125  0.6657314935840191  1.0000
  C   C21       1.0  0.1312044212489099  0.8413647263239882  0.1425401113839797  1.0000
  C   C22       1.0  0.3687763269093054  0.8413347830205  0.35745939651919656  1.0000
  C   C23       1.0  0.868777357214455  0.158660761075879  0.8574563529341077  1.0000
  C   C24       1.0  0.6312214345104722  0.15865536287160614  0.6425428812328136  1.0000
  C   C25       1.0  0.2592917158521431  0.9356284087979744  0.10309152166313847  1.0000
  C   C26       1.0  0.240695760823499  0.9356320688014395  0.3969064823743906  1.0000
  C   C27       1.0  0.7406954154655239  0.06437183465866532  0.8969042011201367  1.0000
  C   C28       1.0  0.7593260929433326  0.0643669125177624  0.603092075709327  1.0000
  S   S1        1.0  0.29173621249326936  0.25530396067820493  0.0250669823721807  1.0000
  S   S2        1.0  0.2082547301068445  0.25530114564990924  0.47493373793044913  1.0000
  S   S3        1.0  0.7082482242526497  0.7446988071682556  0.9749310249968203  1.0000
  S   S4        1.0  0.7917403693336807  0.7447003600166725  0.5250673795341498  1.0000
  N   N1        1.0  0.23150645712070175  0.10347659471301542  0.11822405396195278  1.0000
  N   N2        1.0  0.26850632372382677  0.10346900244692851  0.3817783002169506  1.0000
  N   N3        1.0  0.7684833110137318  0.8965312219329109  0.8817755084549432  1.0000
  N   N4        1.0  0.7315208288207061  0.8965236678917777  0.6182252577877634  1.0000
  N   N5        1.0  0.0235956084017417  0.9486349158468173  0.18095906412624882  1.0000
  N   N6        1.0  0.4763947226498645  0.9486306198177773  0.31903971787597374  1.0000
  N   N7        1.0  0.9763781692363479  0.0513653275867085  0.8190354503834029  1.0000
  N   N8        1.0  0.5236084062827828  0.0513620504797885  0.6809602872868936  1.0000
  N   N9        1.0  0.7499957930079405  0.4869596155084466  0.2500027028296898  1.0000
  N   N10       1.0  0.2500019576423114  0.5130406279644221  0.7500007232135812  1.0000
  O   O1        1.0  0.834429024521171  0.5671522419706817  0.2100841151363042  1.0000
  O   O2        1.0  0.665558361330156  0.5671405594938506  0.289923183066918  1.0000
  O   O3        1.0  0.16556604964697644  0.432853050287939  0.7899196816742486  1.0000
  O   O4        1.0  0.33444205497772117  0.4328571595881814  0.710081020500219  1.0000
  O   O5        1.0  0.7499973217792261  0.32679430766738454  0.2500007982928736  1.0000
  O   O6        1.0  0.24999776680935068  0.6732059358011782  0.7500014674627948  1.0000
