data_image0
_chemical_formula_structural       Zn12H120C204S24O60
_chemical_formula_sum              "Zn12 H120 C204 S24 O60"
_cell_length_a       19.385946106420157
_cell_length_b       19.385615588147555
_cell_length_c       20.454966592026427
_cell_angle_alpha    89.999857037908
_cell_angle_beta     90.00017206366378
_cell_angle_gamma    119.99675312472122

_space_group_name_H-M_alt    "P 1"
_space_group_IT_number       1

loop_
  _space_group_symop_operation_xyz
  'x, y, z'

loop_
  _atom_site_type_symbol
  _atom_site_label
  _atom_site_symmetry_multiplicity
  _atom_site_fract_x
  _atom_site_fract_y
  _atom_site_fract_z
  _atom_site_occupancy
  Zn  Zn1       1.0  0.5589166697659493  0.2816174374365374  0.12393613132390868  1.0000
  Zn  Zn2       1.0  0.7183241576856219  0.27726408092763694  0.7907753891357956  1.0000
  Zn  Zn3       1.0  0.7228573482240536  0.4411300355690247  0.4573955319933419  1.0000
  Zn  Zn4       1.0  0.4410832238105515  0.7183828470044065  0.6239396850058583  1.0000
  Zn  Zn5       1.0  0.2816737882702825  0.7227342065252388  0.2907753794014738  1.0000
  Zn  Zn6       1.0  0.2771439673668039  0.558869190429128  0.9573945977238764  1.0000
  Zn  Zn7       1.0  0.6360377060519086  0.27129362612767965  0.957826639824944  1.0000
  Zn  Zn8       1.0  0.7286368597869882  0.36477723907664494  0.6245677443491359  1.0000
  Zn  Zn9       1.0  0.6350545308299262  0.3638726337540349  0.2912324309624097  1.0000
  Zn  Zn10      1.0  0.3639629351408688  0.7287073064148333  0.4578297831643354  1.0000
  Zn  Zn11      1.0  0.2713605944441612  0.6352223905263019  0.1245669349481702  1.0000
  Zn  Zn12      1.0  0.3649484362327443  0.6361288861270114  0.7912325409779085  1.0000
  H   H1        1.0  0.049641736488368324  0.40584499537584423  0.14949922269713056  1.0000
  H   H2        1.0  0.5942943764556929  0.6440404180166939  0.8161774107165556  1.0000
  H   H3        1.0  0.35644706968882667  0.9505695622005707  0.4828913935662342  1.0000
  H   H4        1.0  0.9503610389875238  0.5941544982419915  0.6494976744420242  1.0000
  H   H5        1.0  0.40570708348779055  0.35596366788627887  0.3161756896303416  1.0000
  H   H6        1.0  0.6435587334198872  0.04943345713773789  0.9828927084631331  1.0000
  H   H7        1.0  0.07732984099725836  0.2134012103635214  0.0068021169883608  1.0000
  H   H8        1.0  0.7864872116584182  0.8638390168499444  0.6731221910380611  1.0000
  H   H9        1.0  0.13626580397683358  0.9227359545675572  0.3402431171869722  1.0000
  H   H10       1.0  0.9226717672110993  0.7865982633053508  0.5067995450240517  1.0000
  H   H11       1.0  0.21351339945100992  0.1361606036677685  0.173123866620962  1.0000
  H   H12       1.0  0.8637390499755143  0.07726785840637976  0.840241569964391  1.0000
  H   H13       1.0  0.948402851172098  0.2614067398859562  0.1548040289832215  1.0000
  H   H14       1.0  0.7387738628832565  0.6873505279386337  0.82142030128081  1.0000
  H   H15       1.0  0.31316436146808974  0.051757311970106974  0.4882211763426625  1.0000
  H   H16       1.0  0.051597852701590424  0.7385948311896586  0.6548030052545784  1.0000
  H   H17       1.0  0.2612260042804166  0.31264896661124914  0.3214212053462902  1.0000
  H   H18       1.0  0.6868409390295867  0.948245184154871  0.9882180396424259  1.0000
  H   H19       1.0  0.17876830072661687  0.3579234492136508  0.0032782513654368004  1.0000
  H   H20       1.0  0.6419260138521778  0.8206890275467059  0.669678374237975  1.0000
  H   H21       1.0  0.1793715778478885  0.8213187650347324  0.3367336375750298  1.0000
  H   H22       1.0  0.8212331605835957  0.6420741042130659  0.5032742668945644  1.0000
  H   H23       1.0  0.3580759765061146  0.17931436817450935  0.1696798696757753  1.0000
  H   H24       1.0  0.8206341608719896  0.1786841593149119  0.8367327051900446  1.0000
  H   H25       1.0  0.793047974291085  0.28467631657731146  0.0242090915899524  1.0000
  H   H26       1.0  0.7150283699280993  0.5081369706425394  0.690970987940041  1.0000
  H   H27       1.0  0.4918967472749572  0.20733763514358844  0.3577316660283003  1.0000
  H   H28       1.0  0.20695611795925134  0.7153237868988074  0.5242056314389245  1.0000
  H   H29       1.0  0.28497165293259746  0.49185603605125294  0.1909739791676444  1.0000
  H   H30       1.0  0.5081044809885287  0.7926595062046148  0.8577318120606207  1.0000
  H   H31       1.0  0.8805831702264229  0.2255250405562281  0.0179721700945805  1.0000
  H   H32       1.0  0.7741841825931531  0.6547584283627474  0.6845758743922872  1.0000
  H   H33       1.0  0.34524448413844067  0.11974719587539087  0.3513658701920335  1.0000
  H   H34       1.0  0.11941428081535578  0.7744672544393297  0.5179668542399867  1.0000
  H   H35       1.0  0.22581116060266748  0.3452340929277186  0.1845800226894099  1.0000
  H   H36       1.0  0.6547565686930952  0.8802521772717002  0.8513672033328916  1.0000
  H   H37       1.0  0.7396712812633908  0.05519478296864128  0.1664764474155547  1.0000
  H   H38       1.0  0.9443920196875841  0.6843209828980579  0.8332959526688697  1.0000
  H   H39       1.0  0.3156038681954956  0.2601252862512312  0.5002771735493567  1.0000
  H   H40       1.0  0.2603310787955878  0.9448072078903851  0.6664662397010304  1.0000
  H   H41       1.0  0.05560291526563087  0.3156782987249117  0.333295776070635  1.0000
  H   H42       1.0  0.6843951816251349  0.7398788020840287  0.0002831569611672  1.0000
  H   H43       1.0  0.6503417723925083  0.1131837204349964  0.1708595392393164  1.0000
  H   H44       1.0  0.8863934520922713  0.537059096750639  0.8377971520588403  1.0000
  H   H45       1.0  0.46290728482395593  0.349614789921823  0.5046571422801946  1.0000
  H   H46       1.0  0.34965875327197454  0.88681701471036  0.6708541228466061  1.0000
  H   H47       1.0  0.11360697146618297  0.4629408908929167  0.3377948358262657  1.0000
  H   H48       1.0  0.5370927491448543  0.6503872873573189  0.0046638967492854  1.0000
  H   H49       1.0  0.8128648219314626  0.5341476545948255  0.2179255912589753  1.0000
  H   H50       1.0  0.4658889875409002  0.27891252858212584  0.8845908745388512  1.0000
  H   H51       1.0  0.7211819543281877  0.18694268764468813  0.5511896774961045  1.0000
  H   H52       1.0  0.1871293911250761  0.46585015984061345  0.7179241326594976  1.0000
  H   H53       1.0  0.5341100045403523  0.7210858466610548  0.3845886531443412  1.0000
  H   H54       1.0  0.27881202668137234  0.8130489871241129  0.051192378842515  1.0000
  H   H55       1.0  0.8988243472078709  0.6803045954871367  0.20658648482387323  1.0000
  H   H56       1.0  0.31965707296837576  0.21846537428570675  0.873567009704928  1.0000
  H   H57       1.0  0.7817287029617077  0.10123809154021061  0.5401216485690483  1.0000
  H   H58       1.0  0.10116997590881746  0.31969515982025604  0.7065826838388745  1.0000
  H   H59       1.0  0.6803387170867695  0.7815310328189329  0.3735684829505174  1.0000
  H   H60       1.0  0.21826723404360845  0.8987567733510391  0.0401229968877814  1.0000
  H   H61       1.0  0.7398644363484411  0.6804554334485009  0.0593017355507612  1.0000
  H   H62       1.0  0.31941290440074255  0.059311144023688235  0.7263066299016501  1.0000
  H   H63       1.0  0.9406792987190757  0.2601109610477793  0.39274574279309604  1.0000
  H   H64       1.0  0.26013210083792165  0.3195471053616502  0.5592988757446236  1.0000
  H   H65       1.0  0.6805923426708065  0.9406911199260367  0.22630870439660813  1.0000
  H   H66       1.0  0.05931830429594961  0.7398877805514774  0.8927452268301367  1.0000
  H   H67       1.0  0.652823712422432  0.5348577140069467  0.0730691009019537  1.0000
  H   H68       1.0  0.4650277250725523  0.1180046806893031  0.7397871120239827  1.0000
  H   H69       1.0  0.8819621080947899  0.3470375617082199  0.4063794089380082  1.0000
  H   H70       1.0  0.34717301854461624  0.4651425827287668  0.5730700545179772  1.0000
  H   H71       1.0  0.5349790015241357  0.8820043715922457  0.2397889116206997  1.0000
  H   H72       1.0  0.11803685815276313  0.6529618947794519  0.9063763326668237  1.0000
  H   H73       1.0  0.18688466994895264  0.8565992687514314  0.22378744299960826  1.0000
  H   H74       1.0  0.14317787269011725  0.3301804585878544  0.890490633549888  1.0000
  H   H75       1.0  0.66982777988914  0.8131283425454473  0.5572289602994971  1.0000
  H   H76       1.0  0.8131202515616354  0.14340744462607113  0.7237875506237472  1.0000
  H   H77       1.0  0.856820836196711  0.6698182062955241  0.3904933622021574  1.0000
  H   H78       1.0  0.33017623453610423  0.1868739380683452  0.0572279140997551  1.0000
  H   H79       1.0  0.08534906208893758  0.8960484120688013  0.19940099844317416  1.0000
  H   H80       1.0  0.10387676530375958  0.18926894434125072  0.8661015579257026  1.0000
  H   H81       1.0  0.8108226827604244  0.9147925268554646  0.533031982892382  1.0000
  H   H82       1.0  0.9146513746521663  0.10395450642941718  0.6993980660897564  1.0000
  H   H83       1.0  0.89612239895628  0.8107302702093124  0.3661045532224989  1.0000
  H   H84       1.0  0.18918053789723643  0.08520845786684823  0.03303371005274159  1.0000
  H   H85       1.0  0.9643780676696141  0.6939556318943618  0.0709290437691692  1.0000
  H   H86       1.0  0.3061750010987724  0.2705532424694043  0.7378067461937832  1.0000
  H   H87       1.0  0.7297406858083022  0.035686654875689776  0.4043947134868588  1.0000
  H   H88       1.0  0.03562226868537278  0.3060482785514368  0.570926066522226  1.0000
  H   H89       1.0  0.6938242812061689  0.7294477774342242  0.23780935898036398  1.0000
  H   H90       1.0  0.2702610940812633  0.9643120490139836  0.9043957319863408  1.0000
  H   H91       1.0  0.0666812912049863  0.6554969205064368  0.0955536173047378  1.0000
  H   H92       1.0  0.3445969809121296  0.41119259200839053  0.7625971904047687  1.0000
  H   H93       1.0  0.5890178297564719  0.9333933741037446  0.4289713435873708  1.0000
  H   H94       1.0  0.9333204356263638  0.34450768957084704  0.595553101171511  1.0000
  H   H95       1.0  0.6554032562895459  0.588807499997593  0.2625975828883966  1.0000
  H   H96       1.0  0.4109830377436339  0.06660730065615184  0.9289704899071083  1.0000
  H   H97       1.0  0.620527105344138  0.4026246086482958  0.0305064435700757  1.0000
  H   H98       1.0  0.5974150088771567  0.21799223901713563  0.6970870386597667  1.0000
  H   H99       1.0  0.7819638126125312  0.3793495289768529  0.3639587241087341  1.0000
  H   H100      1.0  0.37947132856432114  0.5973698120705037  0.5305057089786231  1.0000
  H   H101      1.0  0.4025855817905183  0.7820084597255035  0.1970867433279082  1.0000
  H   H102      1.0  0.21803512834004835  0.6206488748991036  0.8639579642436744  1.0000
  H   H103      1.0  0.5819908621684747  0.3921159225840969  0.9601911266832275  1.0000
  H   H104      1.0  0.6080953086474352  0.19007368083018147  0.6267696902435205  1.0000
  H   H105      1.0  0.810067787129114  0.4180274513334511  0.2937273642145897  1.0000
  H   H106      1.0  0.41800853525789006  0.6078831613900209  0.4601893323769062  1.0000
  H   H107      1.0  0.39190613938816193  0.8099281471395374  0.1267697872556113  1.0000
  H   H108      1.0  0.18993008631256458  0.5819719435056713  0.7937266161137088  1.0000
  H   H109      1.0  0.7648509750030003  0.3860456295262368  0.8974687296614975  1.0000
  H   H110      1.0  0.6140699827248783  0.37895906589307066  0.5640653881327609  1.0000
  H   H111      1.0  0.6213802429884154  0.2354260864628302  0.230405771653011  1.0000
  H   H112      1.0  0.23514929861735806  0.6139545731320907  0.3974708009834771  1.0000
  H   H113      1.0  0.38592873084840573  0.6210402700011315  0.0640654269526877  1.0000
  H   H114      1.0  0.37861918063099176  0.7645727207481772  0.730406593872857  1.0000
  H   H115      1.0  0.7273487722125581  0.41314597318525886  0.9534325586636072  1.0000
  H   H116      1.0  0.5868354008588313  0.3142972024151407  0.6199814303483393  1.0000
  H   H117      1.0  0.6858202989638332  0.2727572630219728  0.28649928633657845  1.0000
  H   H118      1.0  0.2726540810006598  0.5868548057704717  0.4534333342056058  1.0000
  H   H119      1.0  0.4131641267573016  0.6857003487316576  0.11998188222756312  1.0000
  H   H120      1.0  0.31417882768061395  0.7272398390393351  0.786499524946194  1.0000
  C   C1        1.0  0.9078307718956401  0.9915645575241576  0.0918712017409646  1.0000
  C   C2        1.0  0.00845763232717902  0.9161689524043484  0.758193271460101  1.0000
  C   C3        1.0  0.08386234907219155  0.09223681089791574  0.4249784600542413  1.0000
  C   C4        1.0  0.0921682285786716  0.008435553431347402  0.5918715350200046  1.0000
  C   C5        1.0  0.9915448967044258  0.08382987454315585  0.2581953275920696  1.0000
  C   C6        1.0  0.916137992717104  0.9077633535848407  0.9249760712235399  1.0000
  C   C7        1.0  0.909952048898241  0.9230100485807502  0.0993814424814161  1.0000
  C   C8        1.0  0.07699834311699047  0.9868482377712626  0.7657000194701951  1.0000
  C   C9        1.0  0.01315966136953512  0.09006712101124494  0.43246358578210936  1.0000
  C   C10       1.0  0.0900473478397004  0.07698864263694111  0.5993830738881343  1.0000
  C   C11       1.0  0.9230032527166969  0.013148435637781035  0.2657000927342565  1.0000
  C   C12       1.0  0.9868394493472294  0.9099311877943708  0.9324594373107047  1.0000
  C   C13       1.0  0.9496897355070145  0.14135920944841726  0.0843518458351156  1.0000
  C   C14       1.0  0.8586248664102171  0.8083043987236707  0.7507250283068672  1.0000
  C   C15       1.0  0.19189637674787016  0.05049195492409813  0.4176469473863165  1.0000
  C   C16       1.0  0.050309246329007525  0.8586409119447895  0.5843490672877111  1.0000
  C   C17       1.0  0.14137349610972902  0.19169446013006564  0.2507273449271068  1.0000
  C   C18       1.0  0.8081052763226494  0.949508953540537  0.9176456191001208  1.0000
  C   C19       1.0  0.868602155179282  0.10184749683192955  0.09005748213495218  1.0000
  C   C20       1.0  0.8980369169852552  0.7666451034058215  0.7565525692763799  1.0000
  C   C21       1.0  0.23342456176455068  0.13157097902796983  0.4234147026974924  1.0000
  C   C22       1.0  0.13139692062122063  0.8981515051625807  0.590051418333168  1.0000
  C   C23       1.0  0.10195888090925113  0.2333511682613364  0.2565561417431255  1.0000
  C   C24       1.0  0.7665759941481484  0.868430001272593  0.9234173595346178  1.0000
  C   C25       1.0  0.8766876772751222  0.7771644531018684  0.1217218636197472  1.0000
  C   C26       1.0  0.22274208838903325  0.09941367787092054  0.7885798294784577  1.0000
  C   C27       1.0  0.9006983344187207  0.12337460770510257  0.45520109544189313  1.0000
  C   C28       1.0  0.1233069513458603  0.22283593580142755  0.6217193328954238  1.0000
  C   C29       1.0  0.7772594044904725  0.9005851867484371  0.2885822738655932  1.0000
  C   C30       1.0  0.09930422535471448  0.8766264666283876  0.955200857956143  1.0000
  C   C31       1.0  0.9579979528887818  0.8217582152682966  0.12185099037121458  1.0000
  C   C32       1.0  0.17816389069955113  0.13616110135065904  0.7885376789817329  1.0000
  C   C33       1.0  0.8639540399624154  0.04206111389942896  0.45534780321455054  1.0000
  C   C34       1.0  0.04199868097175848  0.1782412001184994  0.6218478452878884  1.0000
  C   C35       1.0  0.8218376020775796  0.8638377633260323  0.2885418038411629  1.0000
  C   C36       1.0  0.13604792453185155  0.9579405558934514  0.9553474774759748  1.0000
  C   C37       1.0  0.11999431839149119  0.3902840521434714  0.0758169915230198  1.0000
  C   C38       1.0  0.6097183087210214  0.7296764478303858  0.7422842747624044  1.0000
  C   C39       1.0  0.2706443433700016  0.880239958951151  0.40918211697559304  1.0000
  C   C40       1.0  0.8800072428595058  0.6097145120922464  0.575816673001917  1.0000
  C   C41       1.0  0.39028253211680647  0.2703261133206282  0.2422832016684282  1.0000
  C   C42       1.0  0.7293617928842052  0.11976367850358119  0.9091815536176  1.0000
  C   C43       1.0  0.05442746400231612  0.36313559812187896  0.1179558406699428  1.0000
  C   C44       1.0  0.6369400386689252  0.6914203057321516  0.784523489135907  1.0000
  C   C45       1.0  0.3089924338270509  0.9458170385914999  0.45130878198977337  1.0000
  C   C46       1.0  0.9455747174908565  0.6368634234520628  0.6179556442197195  1.0000
  C   C47       1.0  0.3630600133823522  0.3085830902924513  0.2845227368536101  1.0000
  C   C48       1.0  0.691012775198388  0.05418550875922534  0.9513087539054296  1.0000
  C   C49       1.0  0.07120902444673757  0.2554360860989888  0.0383430535228584  1.0000
  C   C50       1.0  0.7445110118029209  0.8157401246766302  0.7047242932671622  1.0000
  C   C51       1.0  0.18448391438022327  0.9289244574011877  0.3717264857459242  1.0000
  C   C52       1.0  0.928789487215539  0.7445613603610326  0.5383410874638201  1.0000
  C   C53       1.0  0.25548826834619115  0.1842598296570301  0.2047269519505051  1.0000
  C   C54       1.0  0.8155210974245791  0.07107820039588852  0.8717262827386209  1.0000
  C   C55       1.0  0.005578299132956563  0.22744881084423707  0.0809522050011182  1.0000
  C   C56       1.0  0.77255771578038  0.7781868557104519  0.7473570554333122  1.0000
  C   C57       1.0  0.2221205258662027  0.9946239678014952  0.4142750520281879  1.0000
  C   C58       1.0  0.9944183132041292  0.7725495498187346  0.5809513369600054  1.0000
  C   C59       1.0  0.22744085638573353  0.22181282146839726  0.2473595453713102  1.0000
  C   C60       1.0  0.7778825281242308  0.005376567668840076  0.9142724533343555  1.0000
  C   C61       1.0  0.9980596046005562  0.2825762716504202  0.12079766353149068  1.0000
  C   C62       1.0  0.7175007479756914  0.7156560825347499  0.7873277838684843  1.0000
  C   C63       1.0  0.2847519871544578  0.002157190683931302  0.45415220728647643  1.0000
  C   C64       1.0  0.0019416106424686441  0.7174247509564965  0.6207975265551653  1.0000
  C   C65       1.0  0.2824994706851244  0.28434508663163893  0.2873288155011409  1.0000
  C   C66       1.0  0.7152521174578651  0.9978454325657824  0.9541495226866344  1.0000
  C   C67       1.0  0.12766993487508677  0.3358382557971141  0.0358556230521501  1.0000
  C   C68       1.0  0.6640980804506926  0.7917599405979846  0.7022700356793122  1.0000
  C   C69       1.0  0.20846427747046908  0.8724772195567285  0.3692489488509096  1.0000
  C   C70       1.0  0.8723291662661269  0.6641585984517278  0.5358541759080637  1.0000
  C   C71       1.0  0.3359029590471891  0.20824237825327435  0.2022704217570919  1.0000
  C   C72       1.0  0.7915402922069605  0.1275238143780513  0.8692465883657476  1.0000
  C   C73       1.0  0.18371340238900313  0.47549811727361685  0.0737240908784358  1.0000
  C   C74       1.0  0.5244930501722963  0.7080895337378268  0.7402279548596482  1.0000
  C   C75       1.0  0.29221851794726217  0.8165819416563168  0.407191997392033  1.0000
  C   C76       1.0  0.8162871005555347  0.5245035663251658  0.5737252597918996  1.0000
  C   C77       1.0  0.47550895536210197  0.2919159870390686  0.2402280506646122  1.0000
  C   C78       1.0  0.7077844386639782  0.18341971512499816  0.9071917106977595  1.0000
  C   C79       1.0  0.7163449139680866  0.20267388002341857  0.0980512927284352  1.0000
  C   C80       1.0  0.7970384168927398  0.5135029409846369  0.7648661100766958  1.0000
  C   C81       1.0  0.4864592089439412  0.28386337202416473  0.43165102346664236  1.0000
  C   C82       1.0  0.28365543126341924  0.7973269561669556  0.5980459007794963  1.0000
  C   C83       1.0  0.20295894904037237  0.48649486660658453  0.2648654586961641  1.0000
  C   C84       1.0  0.513540771737496  0.7161381925086802  0.9316538107181244  1.0000
  C   C85       1.0  0.7819714925186717  0.23460620885773423  0.0554411588115755  1.0000
  C   C86       1.0  0.765103637742307  0.5471430730938495  0.7221966811088834  1.0000
  C   C87       1.0  0.4528429988815221  0.21831016128783903  0.3889724209592273  1.0000
  C   C88       1.0  0.21803237930514294  0.7653941491076781  0.5554341893295883  1.0000
  C   C89       1.0  0.23489326629366764  0.4528520549291671  0.2221976668918231  1.0000
  C   C90       1.0  0.5471579291550343  0.7816883460162602  0.888974659545255  1.0000
  C   C91       1.0  0.8311848136822277  0.20183159782026658  0.05241119666327881  1.0000
  C   C92       1.0  0.797888309701662  0.6291305144660059  0.7190761170260345  1.0000
  C   C93       1.0  0.3708803920460683  0.169070191624023  0.3858738488131053  1.0000
  C   C94       1.0  0.16881565792863257  0.7981659672641044  0.5524040095816076  1.0000
  C   C95       1.0  0.20210820895210457  0.37086602720107475  0.21907818167068877  1.0000
  C   C96       1.0  0.6291193370283352  0.8309295113051294  0.8858776703594201  1.0000
  C   C97       1.0  0.8169101771649496  0.13692237331955684  0.0925457602974618  1.0000
  C   C98       1.0  0.8628098182635427  0.6798373490321555  0.759185234533703  1.0000
  C   C99       1.0  0.32020609775133124  0.18323301308993936  0.4260547104874348  1.0000
  C   C100      1.0  0.18308795300303168  0.8630744821000534  0.5925394377151605  1.0000
  C   C101      1.0  0.13718531068238357  0.32016062612757434  0.2591877236531062  1.0000
  C   C102      1.0  0.6797942467130371  0.8167671498947443  0.9260587096744429  1.0000
  C   C103      1.0  0.7507961878357676  0.10506790632243226  0.1349212315939354  1.0000
  C   C104      1.0  0.8945591869338687  0.6455996105615258  0.8017026226320567  1.0000
  C   C105      1.0  0.35439284997058706  0.24917509755106704  0.4686228267309858  1.0000
  C   C106      1.0  0.24920430709667574  0.8949359153177456  0.6349120882062707  1.0000
  C   C107      1.0  0.10543545173315048  0.3543989012559693  0.3017029848211195  1.0000
  C   C108      1.0  0.6456068446873857  0.7508278249835457  0.9686283516414208  1.0000
  C   C109      1.0  0.7013225064809846  0.13771498563742315  0.1378979057314993  1.0000
  C   C110      1.0  0.8619058694608484  0.5634921583588977  0.804775276919159  1.0000
  C   C111      1.0  0.43650002571477853  0.29870378673232545  0.4716319339157948  1.0000
  C   C112      1.0  0.29867652822034796  0.8622861729277178  0.6378924025328132  1.0000
  C   C113      1.0  0.13809099973344988  0.43650618950773196  0.3047755373474104  1.0000
  C   C114      1.0  0.5634992404159223  0.7012975043237406  0.971637831652707  1.0000
  C   C115      1.0  0.6625552459281681  0.2360840864879351  0.0996014114195631  1.0000
  C   C116      1.0  0.7637989110930052  0.4263210274532131  0.7664486668902484  1.0000
  C   C117      1.0  0.5736593440117872  0.33764878008138777  0.4331499861615598  1.0000
  C   C118      1.0  0.33744591678928526  0.7639169655340371  0.599603584769575  1.0000
  C   C119      1.0  0.23620038385391245  0.5736769160862708  0.2664483922666463  1.0000
  C   C120      1.0  0.4263413158557226  0.6623510752257573  0.9331526529712306  1.0000
  C   C121      1.0  0.7278897204857985  0.524518062436002  0.14567945823117873  1.0000
  C   C122      1.0  0.47546548660626103  0.2034534015639339  0.8124353965151129  1.0000
  C   C123      1.0  0.7965767820835907  0.27196491123107347  0.47902334752589576  1.0000
  C   C124      1.0  0.2721057811422156  0.47548251120630175  0.645677240644396  1.0000
  C   C125      1.0  0.5245348741006948  0.7965466212773507  0.3124329690489205  1.0000
  C   C126      1.0  0.20341918948147963  0.7280324610026981  0.9790227804795605  1.0000
  C   C127      1.0  0.7978239986561704  0.5666537906372471  0.1827169673745672  1.0000
  C   C128      1.0  0.43332547515606024  0.2312250037657294  0.849515295817703  1.0000
  C   C129      1.0  0.7688229633608189  0.20205433149728697  0.5160725836709831  1.0000
  C   C130      1.0  0.20216863803648985  0.4333455618208647  0.6827126953032945  1.0000
  C   C131      1.0  0.5666740256424776  0.7687728244939368  0.3495120762255439  1.0000
  C   C132      1.0  0.23117239823341884  0.7979400509496773  0.0160746965039138  1.0000
  C   C133      1.0  0.8461681401858527  0.6484291013492226  0.1760280991299226  1.0000
  C   C134      1.0  0.35150346524745396  0.19766273471562107  0.8429891758619162  1.0000
  C   C135      1.0  0.8024163986863471  0.15383299986046947  0.5095011794264224  1.0000
  C   C136      1.0  0.15382507557016112  0.35156966473057594  0.6760214390320769  1.0000
  C   C137      1.0  0.6484957215606002  0.8023354004304722  0.34298904262657  1.0000
  C   C138      1.0  0.19758116953457286  0.8461612320203006  0.0095025935849264  1.0000
  C   C139      1.0  0.8265628284033255  0.6909160437693701  0.1310809907671882  1.0000
  C   C140      1.0  0.3089817805682743  0.13551556974331905  0.7980905579214975  1.0000
  C   C141      1.0  0.8645527369582878  0.1734879334142434  0.4645894135966842  1.0000
  C   C142      1.0  0.1734338283292161  0.30908335880877763  0.6310764426267426  1.0000
  C   C143      1.0  0.6910210653274836  0.8644840154857226  0.2980913760476511  1.0000
  C   C144      1.0  0.1354469691895872  0.8265108466241459  0.9645879310123532  1.0000
  C   C145      1.0  0.7557992510149917  0.6485264098217557  0.0945396927515247  1.0000
  C   C146      1.0  0.3513780481132898  0.10716273294723073  0.7615440264683002  1.0000
  C   C147      1.0  0.8928275986243367  0.2441917760110856  0.4279909235274033  1.0000
  C   C148      1.0  0.24419626203953734  0.3514761599287298  0.594535245328295  1.0000
  C   C149      1.0  0.6486251431976985  0.8928385303042676  0.2615446568565076  1.0000
  C   C150      1.0  0.10716906010711133  0.7558058850350949  0.9279900170040492  1.0000
  C   C151      1.0  0.7073176271252067  0.5667101107488719  0.101609886331552  1.0000
  C   C152      1.0  0.4332199972230342  0.14059364402061908  0.7684519609691662  1.0000
  C   C153      1.0  0.8593858007635407  0.29259572015184454  0.4349788525286513  1.0000
  C   C154      1.0  0.2926782811043865  0.4332910398734102  0.6016083161112107  1.0000
  C   C155      1.0  0.5667828335561824  0.8594090189583529  0.2684519490236781  1.0000
  C   C156      1.0  0.14061117310752996  0.70740163336437  0.9349786446855362  1.0000
  C   C157      1.0  0.6759949234672651  0.4371799249214664  0.1546553031563604  1.0000
  C   C158      1.0  0.5628207457381578  0.2389678933768664  0.8212792965249919  1.0000
  C   C159      1.0  0.7610761319565714  0.3238174127690671  0.4880054062342865  1.0000
  C   C160      1.0  0.324004232596849  0.562820098901547  0.6546544927564497  1.0000
  C   C161      1.0  0.4371791794064423  0.7610346379873295  0.3212767048657383  1.0000
  C   C162      1.0  0.23892119131628678  0.6761806808071428  0.9880045741377401  1.0000
  C   C163      1.0  0.13222715764892715  0.7528764603137506  0.1620719144304275  1.0000
  C   C164      1.0  0.24704400780792224  0.37934997886002014  0.8289188795220781  1.0000
  C   C165      1.0  0.6207912434183529  0.8678189329162511  0.4955127631154852  1.0000
  C   C166      1.0  0.8677749520201987  0.24712887109890166  0.6620714427396237  1.0000
  C   C167      1.0  0.7529522457545  0.6206500426410602  0.3289248515526637  1.0000
  C   C168      1.0  0.3792122882215169  0.1321853400780385  0.995509708166736  1.0000
  C   C169      1.0  0.137703466508114  0.8211289796325262  0.1906502307121869  1.0000
  C   C170      1.0  0.1787529274810638  0.3165381039193634  0.8574156034922709  1.0000
  C   C171      1.0  0.6835553349120362  0.8623733078226438  0.5241533357813566  1.0000
  C   C172      1.0  0.8622994477900295  0.17887764158906116  0.690649905215416  1.0000
  C   C173      1.0  0.8212445879858806  0.6834606867080526  0.357420643059001  1.0000
  C   C174      1.0  0.31644903352793824  0.13763064599777416  0.0241504117504334  1.0000
  C   C175      1.0  0.0811343362399201  0.8431149642138184  0.1767361440488173  1.0000
  C   C176      1.0  0.1568215548554691  0.2379977294884484  0.8434542639507329  1.0000
  C   C177      1.0  0.7621108338845771  0.9189964750928467  0.5103195762865127  1.0000
  C   C178      1.0  0.9188657465112017  0.1568882835711136  0.6767326093419328  1.0000
  C   C179      1.0  0.8431753303728087  0.7620016761761762  0.3434616241162303  1.0000
  C   C180      1.0  0.23789284630004912  0.0810050569704757  0.0103204741467593  1.0000
  C   C181      1.0  0.016908278643491387  0.7966078376779253  0.13459475328411227  1.0000
  C   C182      1.0  0.20331956343359547  0.2202512565220546  0.8013066410798402  1.0000
  C   C183      1.0  0.7798824476047561  0.9832033445054056  0.4681483492775769  1.0000
  C   C184      1.0  0.9830892587667321  0.2033948146280198  0.6345903131934634  1.0000
  C   C185      1.0  0.7966791424340871  0.7797483457820252  0.3013123603509911  1.0000
  C   C186      1.0  0.2201203622462486  0.01679852551104228  0.9681475598796042  1.0000
  C   C187      1.0  0.012517170368979954  0.7289681777475466  0.1050807237507954  1.0000
  C   C188      1.0  0.27103341585555546  0.2835640363892581  0.771914778569851  1.0000
  C   C189      1.0  0.7166445403738919  0.9875753245348238  0.4385666854754291  1.0000
  C   C190      1.0  0.987482516812328  0.27103435583214286  0.6050761358361001  1.0000
  C   C191      1.0  0.7289656531576014  0.7164372340080974  0.2719199664985084  1.0000
  C   C192      1.0  0.2833595256182662  0.012427320342723603  0.9385670639911297  1.0000
  C   C193      1.0  0.06944927663691661  0.7073898479373072  0.11877090394595771  1.0000
  C   C194      1.0  0.2926133378102804  0.36205971941117815  0.7857050100765619  1.0000
  C   C195      1.0  0.6381365146586406  0.9306529594699602  0.4522464485629527  1.0000
  C   C196      1.0  0.9305530235428635  0.29261524573936293  0.6187685474185756  1.0000
  C   C197      1.0  0.7073841381059582  0.6379410958723927  0.2857088560540361  1.0000
  C   C198      1.0  0.3618663939464568  0.06935085774999554  0.9522444709787123  1.0000
  C   C199      1.0  0.19329383852574722  0.7294660608424125  0.1775425993490174  1.0000
  C   C200      1.0  0.2703696277221185  0.4638300659214283  0.8442862295028917  1.0000
  C   C201      1.0  0.5362991284105905  0.8066541060630431  0.5107999562950596  1.0000
  C   C202      1.0  0.8067072778555658  0.270538217460235  0.677542387432112  1.0000
  C   C203      1.0  0.7296330348346773  0.5361697530273375  0.344287446661923  1.0000
  C   C204      1.0  0.4637046911212793  0.19334935047105264  0.0107953633570403  1.0000
  S   S1        1.0  0.9948637058616896  0.08283413294393703  0.0798254503816267  1.0000
  S   S2        1.0  0.9172054213153447  0.9119922871616596  0.7462062817436177  1.0000
  S   S3        1.0  0.0882038180985703  0.00527438831586122  0.41292135085875964  1.0000
  S   S4        1.0  0.005133121678881082  0.9171650429319841  0.5798272934759439  1.0000
  S   S5        1.0  0.0827950730914822  0.08800752975848523  0.2462096553206905  1.0000
  S   S6        1.0  0.9117982009090043  0.994725117394282  0.91291825470077  1.0000
  S   S7        1.0  0.8206555412278365  0.9972124161816188  0.0911235754020652  1.0000
  S   S8        1.0  0.002687570696032485  0.8232638592954019  0.7577475158671376  1.0000
  S   S9        1.0  0.17667090547276842  0.17946572077979547  0.4243815675740379  1.0000
  S   S10       1.0  0.17934177178555902  0.0027842232208073058  0.5911212366457477  1.0000
  S   S11       1.0  0.9973093416140346  0.17673233087126053  0.2577493682063192  1.0000
  S   S12       1.0  0.8233287010383137  0.8205331150566054  0.9243849881634318  1.0000
  S   S13       1.0  0.8252903917128762  0.8287079133929753  0.1055369071469627  1.0000
  S   S14       1.0  0.17129044057784187  0.9965165229430257  0.7721391650377996  1.0000
  S   S15       1.0  0.003552370085117238  0.17474076222951146  0.43871232090349116  1.0000
  S   S16       1.0  0.17470826497673644  0.17129358791139995  0.6055366002335418  1.0000
  S   S17       1.0  0.8287125589989447  0.003483911952400951  0.2721409486452515  1.0000
  S   S18       1.0  0.9964472719391395  0.8252580537190044  0.9387147558553436  1.0000
  S   S19       1.0  0.9999858104192402  0.9226009911760119  0.1022693781644932  1.0000
  S   S20       1.0  0.0773784442824805  0.07729682864725622  0.7687228578747778  1.0000
  S   S21       1.0  0.9227270850638619  3.078087148375926e-05  0.43554981086091976  1.0000
  S   S22       1.0  1.0636758105399821e-05  0.07739652624881901  0.6022722192582678  1.0000
  S   S23       1.0  0.9226197663382936  0.9226970434805114  0.2687227298582329  1.0000
  S   S24       1.0  0.07727336275561233  0.9999682574556208  0.9355501961664743  1.0000
  O   O1        1.0  0.17636633111018094  0.5255310485052576  0.1090108057365242  1.0000
  O   O2        1.0  0.47454095328545537  0.6506464245410088  0.7755103366062953  1.0000
  O   O3        1.0  0.3495229510307356  0.8239590577338805  0.44260742983572504  1.0000
  O   O4        1.0  0.8236310047506877  0.47446971416398065  0.6090194472998361  1.0000
  O   O5        1.0  0.5254598317309063  0.3493541653636215  0.2755104382903326  1.0000
  O   O6        1.0  0.6504781682509702  0.17604241175469337  0.9426035755480981  1.0000
  O   O7        1.0  0.24390286743719256  0.49301672051840484  0.0372415734856375  1.0000
  O   O8        1.0  0.5068508847798441  0.7507198987566144  0.7038249843140889  1.0000
  O   O9        1.0  0.24965769621594827  0.7563577143198688  0.3707162703654205  1.0000
  O   O10       1.0  0.7560994916820363  0.5069810037578649  0.5372426128009167  1.0000
  O   O11       1.0  0.49314793565553566  0.24928257762507405  0.20382278692044048  1.0000
  O   O12       1.0  0.7503436808953481  0.24364548224035337  0.870716450815067  1.0000
  O   O13       1.0  0.6099190705238798  0.21452677599428685  0.1454386406214496  1.0000
  O   O14       1.0  0.7854715305318295  0.39533601248543726  0.8122928572024434  1.0000
  O   O15       1.0  0.6048170378739215  0.3902807400138144  0.47897502459360913  1.0000
  O   O16       1.0  0.39007968505621465  0.7854746699300182  0.6454433569202038  1.0000
  O   O17       1.0  0.21452817584887643  0.6046615695979867  0.3122939141612804  1.0000
  O   O18       1.0  0.39518343773688963  0.6097193495270049  0.9789787053174094  1.0000
  O   O19       1.0  0.6675288663170917  0.2862901882670244  0.0569261487420647  1.0000
  O   O20       1.0  0.7136534076142597  0.3810260602874324  0.7237729501514921  1.0000
  O   O21       1.0  0.6187955141243792  0.3326092573222328  0.3904117806777947  1.0000
  O   O22       1.0  0.3324750890289677  0.7137090561474935  0.556929893586755  1.0000
  O   O23       1.0  0.28634445212453824  0.6189712086709845  0.2237722218647917  1.0000
  O   O24       1.0  0.3812060929486237  0.6673875408399542  0.8904123517053364  1.0000
  O   O25       1.0  0.6159121191548422  0.4002740910608793  0.1151856296734337  1.0000
  O   O26       1.0  0.5996829863558588  0.2157170088626473  0.7818385885243302  1.0000
  O   O27       1.0  0.7844217721663542  0.3840511894866198  0.44867848885193945  1.0000
  O   O28       1.0  0.38408864619727745  0.5997253120314314  0.6151868581447388  1.0000
  O   O29       1.0  0.40031529360916096  0.7842840297775312  0.281838770226976  1.0000
  O   O30       1.0  0.2155798196422936  0.6159477507783394  0.9486767553874174  1.0000
  O   O31       1.0  0.6912523340488833  0.40125804956734634  0.19905827542797278  1.0000
  O   O32       1.0  0.5988256253504504  0.2902838427126469  0.8655956633581566  1.0000
  O   O33       1.0  0.7097636441120516  0.30845091436306404  0.5323217279619357  1.0000
  O   O34       1.0  0.30875121822509066  0.5987438162223956  0.699059780909657  1.0000
  O   O35       1.0  0.4011782383141452  0.7097230515329118  0.3655984686232046  1.0000
  O   O36       1.0  0.290234990791305  0.6915484655874098  0.0323193720872084  1.0000
  O   O37       1.0  0.19308244841082015  0.6748379693894864  0.1434673209159314  1.0000
  O   O38       1.0  0.3252559491514478  0.5182411474748679  0.8103976518891115  1.0000
  O   O39       1.0  0.4819469824222652  0.8069629876668218  0.4766947141866781  1.0000
  O   O40       1.0  0.8069188813446504  0.3251660583732915  0.6434655134909733  1.0000
  O   O41       1.0  0.6747484746817777  0.4817599681347247  0.31039590868643774  1.0000
  O   O42       1.0  0.5180551147983864  0.19303754102013942  0.9766909320003593  1.0000
  O   O43       1.0  0.24148385389131033  0.7673677641387898  0.22455272171743704  1.0000
  O   O44       1.0  0.23216982584016685  0.4741632082943355  0.8910356893198923  1.0000
  O   O45       1.0  0.5258928826364128  0.7582638489164851  0.5576795669790542  1.0000
  O   O46       1.0  0.7585173789883513  0.23263644892313104  0.7245509959843801  1.0000
  O   O47       1.0  0.767832516584953  0.5258349184728177  0.3910360618200102  1.0000
  O   O48       1.0  0.47411281850404663  0.241741903667979  0.057673422301761  1.0000
  O   O49       1.0  0.6277352326297605  0.39639476014093594  0.9831934241604543  1.0000
  O   O50       1.0  0.6035815832426367  0.23140513221257936  0.6497718723668342  1.0000
  O   O51       1.0  0.7686049516125949  0.3721872187122345  0.3166342657440282  1.0000
  O   O52       1.0  0.37226041460606046  0.6035957194229483  0.4831915099432961  1.0000
  O   O53       1.0  0.39641541763735705  0.7685939465908124  0.1497725690467959  1.0000
  O   O54       1.0  0.23139416988271946  0.6278109530099203  0.8166340157639382  1.0000
  O   O55       1.0  0.7473819825610806  0.376635576996165  0.9437479409170422  1.0000
  O   O56       1.0  0.6234136182905771  0.37083867502938267  0.6103529469158104  1.0000
  O   O57       1.0  0.6293053384042011  0.2527565932983577  0.2767289864132394  1.0000
  O   O58       1.0  0.25261900139022236  0.6233639657721427  0.44374955072587596  1.0000
  O   O59       1.0  0.3765852099922285  0.6291605966258589  0.11035293992485151  1.0000
  O   O60       1.0  0.37069398202012155  0.7472413359734208  0.7767293382978906  1.0000
