data_image0
_chemical_formula_structural       Zn2H32C44N4O12
_chemical_formula_sum              "Zn2 H32 C44 N4 O12"
_cell_length_a       7.938324674557643
_cell_length_b       7.938060759739458
_cell_length_c       16.431358390698296
_cell_angle_alpha    99.61987531107503
_cell_angle_beta     99.61897608514417
_cell_angle_gamma    108.04343726060158

_space_group_name_H-M_alt    "P 1"
_space_group_IT_number       1

loop_
  _space_group_symop_operation_xyz
  'x, y, z'

loop_
  _atom_site_type_symbol
  _atom_site_label
  _atom_site_symmetry_multiplicity
  _atom_site_fract_x
  _atom_site_fract_y
  _atom_site_fract_z
  _atom_site_occupancy
  Zn  Zn1       1.0  0.48885246956177747  0.48849446762886123  0.9998724590661967  1.0000
  Zn  Zn2       1.0  0.7384973112625629  0.2388640641501213  0.4998785121616792  1.0000
  H   H1        1.0  0.4963753147506296  0.47961179964356404  0.1849808857372893  1.0000
  H   H2        1.0  0.29525452434539556  0.3106020929524151  0.8144046329948653  1.0000
  H   H3        1.0  0.560571684784719  0.04526820080413779  0.3144026254279525  1.0000
  H   H4        1.0  0.7296001615820839  0.2463996471625336  0.6849765003244531  1.0000
  H   H5        1.0  0.5973635159708408  0.5472141008799625  0.3423841183845155  1.0000
  H   H6        1.0  0.20547968327645086  0.254881881578207  0.6570356951288759  1.0000
  H   H7        1.0  0.5048627435309854  0.9554743932156031  0.15703320119479267  1.0000
  H   H8        1.0  0.7971996789714878  0.34738238757127976  0.8423809653888202  1.0000
  H   H9        1.0  0.15799634331121123  0.027303085126874307  0.4235344408184717  1.0000
  H   H10       1.0  0.6043221005341977  0.735468499438696  0.576679258045367  1.0000
  H   H11       1.0  0.9854938100501796  0.35430747177429117  0.07668590641016951  1.0000
  H   H12       1.0  0.2773238511256579  0.9080114931740583  0.9235446206327825  1.0000
  H   H13       1.0  0.3570467943981867  0.2097949016337353  0.3475025030000084  1.0000
  H   H14       1.0  0.862585770549387  0.010770423372513004  0.6531047921799742  1.0000
  H   H15       1.0  0.2607952198226541  0.6125533006667537  0.15312812000733808  1.0000
  H   H16       1.0  0.45981586950652786  0.10705897747105551  0.8475086212494677  1.0000
  H   H17       1.0  0.2805720511187033  0.14359693041331673  0.18902391413241304  1.0000
  H   H18       1.0  0.9538524753644065  0.09279914392890021  0.8116268897054869  1.0000
  H   H19       1.0  0.34279395545404867  0.7038220956390405  0.3116473528869791  1.0000
  H   H20       1.0  0.39360945809951176  0.0305837856366651  0.6890298904038021  1.0000
  H   H21       1.0  0.9896424883389797  0.8968694555142704  0.10787901602578392  1.0000
  H   H22       1.0  0.78832060766117  0.8823567729818437  0.8923891171617628  1.0000
  H   H23       1.0  0.13230346624623485  0.5383081233769006  0.39239908407554946  1.0000
  H   H24       1.0  0.1468743022323551  0.7396511240627889  0.6078843522842734  1.0000
  H   H25       1.0  0.7928290884254138  0.6643011071254109  0.45880768602692273  1.0000
  H   H26       1.0  0.20532112615757817  0.3350551420112495  0.5409745538536443  1.0000
  H   H27       1.0  0.585015484873054  0.9553149557712218  0.0409822916622886  1.0000
  H   H28       1.0  0.9143043520985759  0.5428238694554539  0.9588078477108442  1.0000
  H   H29       1.0  0.02594995539816141  0.7779970378826492  0.4610791163904653  1.0000
  H   H30       1.0  0.31731693745805956  0.5659357562558258  0.5388958079753439  1.0000
  H   H31       1.0  0.8158964654058561  0.06726177466563851  0.038894196883433096  1.0000
  H   H32       1.0  0.02801831554498356  0.7759547486500654  0.9610909836226188  1.0000
  C   C1        1.0  0.7353096104676452  0.6884030540408618  0.17040838483367085  1.0000
  C   C2        1.0  0.5180507643724255  0.5648293668347151  0.8293641535376683  1.0000
  C   C3        1.0  0.8148061825215434  0.26805231548282654  0.3293695820752448  1.0000
  C   C4        1.0  0.9384029443591401  0.4853229945016225  0.6704065533684089  1.0000
  C   C5        1.0  0.6249412670394177  0.5873259264820734  0.21744226220841517  1.0000
  C   C6        1.0  0.3702870411664989  0.40721458856317855  0.7821328268146888  1.0000
  C   C7        1.0  0.6571829382706939  0.12028398356689962  0.28212625639400113  1.0000
  C   C8        1.0  0.8373279225599431  0.37496785777081243  0.7174495708433428  1.0000
  C   C9        1.0  0.6791925525805098  0.622956176460896  0.3045237356923992  1.0000
  C   C10       1.0  0.31881383041241657  0.37470553141618973  0.6950773203281602  1.0000
  C   C11       1.0  0.6246914116828391  0.06883016812397362  0.19508102343581876  1.0000
  C   C12       1.0  0.8729531540670264  0.42919595823821777  0.8045190479429183  1.0000
  C   C13       1.0  0.9549706685505936  0.8589835280082813  0.30877896905187907  1.0000
  C   C14       1.0  0.550139564643132  0.6469977104357485  0.6912403016334638  1.0000
  C   C15       1.0  0.8969975176478185  0.300137901406572  0.19124418241459307  1.0000
  C   C16       1.0  0.10899841279709233  0.7049744767815727  0.8087853471477333  1.0000
  C   C17       1.0  0.11952215414913074  0.9978433602961728  0.35453475956504843  1.0000
  C   C18       1.0  0.6434867795803569  0.765937987294251  0.6456743979228323  1.0000
  C   C19       1.0  0.01594324447378887  0.39346957735247673  0.14568565140896084  1.0000
  C   C20       1.0  0.2478616415810038  0.8695319600956921  0.8545422287682174  1.0000
  C   C21       1.0  0.23306141105322808  0.09934873963256761  0.31128368733424594  1.0000
  C   C22       1.0  0.7880521090918292  0.9228730291728484  0.6891382533253891  1.0000
  C   C23       1.0  0.1728792692125296  0.5380252390870197  0.18915181082761737  1.0000
  C   C24       1.0  0.3493684225276538  0.9830705686466743  0.8112951223051967  1.0000
  C   C25       1.0  0.18901628354971217  0.0639111176113687  0.22217039784289486  1.0000
  C   C26       1.0  0.8413174083597071  0.9678836782526403  0.7782844064581059  1.0000
  C   C27       1.0  0.21787853381750474  0.591295889210315  0.2783017511524762  1.0000
  C   C28       1.0  0.3139234436137457  0.9390191131750286  0.7221709569851387  1.0000
  C   C29       1.0  0.02816578328922499  0.928320627069816  0.17692907531763785  1.0000
  C   C30       1.0  0.7509322155729238  0.8519904308887691  0.8233435926449747  1.0000
  C   C31       1.0  0.10195954848593664  0.5009131499670049  0.32335240224603023  1.0000
  C   C32       1.0  0.17832941776354977  0.7781694923443399  0.6769346105561385  1.0000
  C   C33       1.0  0.9074332263055142  0.8256221508910216  0.21891831025253347  1.0000
  C   C34       1.0  0.6064916894774368  0.6890819739168492  0.7811091740237118  1.0000
  C   C35       1.0  0.9390595343773568  0.3564874007632854  0.28111470922445403  1.0000
  C   C36       1.0  0.07563374980781391  0.6574421743222559  0.718927848786912  1.0000
  C   C37       1.0  0.8875444491730277  0.7794869786704341  0.4420483136499486  1.0000
  C   C38       1.0  0.33747575608617103  0.4463421690837991  0.5578102660848998  1.0000
  C   C39       1.0  0.6963241370883818  0.08745248417559282  0.05780907051475031  1.0000
  C   C40       1.0  0.029487118174778087  0.6375411633395559  0.9420511112228529  1.0000
  C   C41       1.0  0.8769096651661172  0.9577357507203887  0.4901454978849672  1.0000
  C   C42       1.0  0.4675610735988441  0.38737367314869436  0.5097983178415931  1.0000
  C   C43       1.0  0.637376353130321  0.21755585904508484  0.00979891580745122  1.0000
  C   C44       1.0  0.20773123333916035  0.6268801561303265  0.990143495054966  1.0000
  N   N1        1.0  0.8379491473106524  0.7530204466152668  0.34967849149123253  1.0000
  N   N2        1.0  0.4034438310467507  0.48893710322647627  0.6501579187362057  1.0000
  N   N3        1.0  0.7389148828445826  0.1534384189343427  0.15016093874461944  1.0000
  N   N4        1.0  0.0030240249895286905  0.5879537952553734  0.8496839882700088  1.0000
  O   O1        1.0  0.6932392933506292  0.6696841290021852  0.08969046444013884  1.0000
  O   O2        1.0  0.5800020942049995  0.6031880433367361  0.9101031211914761  1.0000
  O   O3        1.0  0.8531763859513858  0.3299909476263707  0.4101054676274388  1.0000
  O   O4        1.0  0.9196795868513091  0.4432739629735424  0.5896978652345269  1.0000
  O   O5        1.0  0.7240453574211898  0.9824966303039916  0.4674662890627489  1.0000
  O   O6        1.0  0.5147246976425633  0.2570718424049049  0.532460438668558  1.0000
  O   O7        1.0  0.5070719524777231  0.2647267920926453  0.03245150275783001  1.0000
  O   O8        1.0  0.23248981144426042  0.47400773647693484  0.967446578074018  1.0000
  O   O9        1.0  0.010679630011672705  0.06249109519811921  0.5472352288579148  1.0000
  O   O10       1.0  0.5154474040624777  0.46401949757328964  0.4527795298328457  1.0000
  O   O11       1.0  0.7140444969631119  0.2654502686856973  0.9527849866852096  1.0000
  O   O12       1.0  0.31249084251633974  0.7606370196447615  0.04723670083000544  1.0000
