data_image0
_chemical_formula_structural       Zn2H16C32N6O10
_chemical_formula_sum              "Zn2 H16 C32 N6 O10"
_cell_length_a       14.364291176851616
_cell_length_b       15.919204405449303
_cell_length_c       17.092969455202425
_cell_angle_alpha    87.63383690950683
_cell_angle_beta     88.6087251253899
_cell_angle_gamma    87.94253873921905

_space_group_name_H-M_alt    "P 1"
_space_group_IT_number       1

loop_
  _space_group_symop_operation_xyz
  'x, y, z'

loop_
  _atom_site_type_symbol
  _atom_site_label
  _atom_site_symmetry_multiplicity
  _atom_site_fract_x
  _atom_site_fract_y
  _atom_site_fract_z
  _atom_site_occupancy
  Zn  Zn1       1.0  0.49840101709829554  0.5890722590542552  0.5036045440478388  1.0000
  Zn  Zn2       1.0  0.5016005663696959  0.41093770589813533  0.49639179321717813  1.0000
  H   H1        1.0  0.5584782394569957  0.6059856390726567  0.7439870454325684  1.0000
  H   H2        1.0  0.4028343409205631  0.11276138049285582  0.5708746835359264  1.0000
  H   H3        1.0  0.6140638418955363  0.12778819612003642  0.3873762714546558  1.0000
  H   H4        1.0  0.38591642892431827  0.8722066348547416  0.6126454400983334  1.0000
  H   H5        1.0  0.604948078118582  0.2863793548151109  0.3976897430137427  1.0000
  H   H6        1.0  0.3950456007840444  0.7136123428192177  0.6023278411680336  1.0000
  H   H7        1.0  0.5350298840418618  0.6046506216323734  0.9532607920551327  1.0000
  H   H8        1.0  0.4649812442880261  0.39536059727014117  0.04674709393298569  1.0000
  H   H9        1.0  0.4415331924951218  0.39405452260862023  0.2560156616290712  1.0000
  H   H10       1.0  0.5187154906472671  0.6588937939637703  0.1070874463419216  1.0000
  H   H11       1.0  0.4813149412099165  0.34112877832087213  0.8929004943815997  1.0000
  H   H12       1.0  0.5014036160412445  0.6571692336713896  0.2541232583499706  1.0000
  H   H13       1.0  0.4986369334064519  0.34286026163724864  0.7458684072535036  1.0000
  H   H14       1.0  0.5997768634043156  0.7282844332778426  0.42832566179026077  1.0000
  H   H15       1.0  0.40021094700119164  0.27173810191626313  0.5716738696688637  1.0000
  H   H16       1.0  0.5971363857185424  0.8872649033971955  0.4291418647045333  1.0000
  C   C1        1.0  0.47171835113847754  0.5205170708649476  0.35092631155275456  1.0000
  C   C2        1.0  0.5515868226164573  0.8505682676966657  0.467917234351674  1.0000
  C   C3        1.0  0.5102842328909034  0.10936429125139573  0.4796371705909834  1.0000
  C   C4        1.0  0.4896845710209519  0.8906575871371275  0.5203801484580239  1.0000
  C   C5        1.0  0.5667120460129523  0.15808680107122086  0.4291361616190201  1.0000
  C   C6        1.0  0.4332731157020078  0.8419281722523736  0.5708759679297228  1.0000
  C   C7        1.0  0.561586919040316  0.24512317155118524  0.4343847763959801  1.0000
  C   C8        1.0  0.43840419356921256  0.7548823694781319  0.5656270540252919  1.0000
  C   C9        1.0  0.680628237017494  0.4999096431516961  0.4728335915357746  1.0000
  C   C10       1.0  0.31937686052472003  0.5000695117614312  0.5271480595233342  1.0000
  C   C11       1.0  0.781153292612579  0.49839139097312574  0.47424310660933605  1.0000
  C   C12       1.0  0.5282919467254032  0.4795186920386102  0.6490701364512929  1.0000
  C   C13       1.0  0.2188513475607792  0.5015519190186098  0.5257235051303013  1.0000
  C   C14       1.0  0.8656996722506491  0.498688434917547  0.48304576196093757  1.0000
  C   C15       1.0  0.13430198610977584  0.5012234146708964  0.516925567303808  1.0000
  C   C16       1.0  0.9577741316074295  0.4994090137640229  0.49417594918773494  1.0000
  C   C17       1.0  0.04222688476005491  0.5004820701935201  0.5058014277569782  1.0000
  C   C18       1.0  0.4717427524296482  0.5250274371642688  0.2630975674602638  1.0000
  C   C19       1.0  0.528281411946807  0.47499260794530324  0.7368981430571823  1.0000
  C   C20       1.0  0.4574255954448033  0.45211229267049197  0.22331747697239732  1.0000
  C   C21       1.0  0.5425913797668543  0.5479115173073268  0.7766840235521001  1.0000
  C   C22       1.0  0.46539228023060986  0.45203682479395724  0.14160440053318976  1.0000
  C   C23       1.0  0.5011205023076429  0.6017228930675885  0.1408684399003732  1.0000
  C   C24       1.0  0.5346248854094641  0.5479794287562215  0.8584055708674967  1.0000
  C   C25       1.0  0.48974424491832025  0.5279278817704097  0.09937194602245818  1.0000
  C   C26       1.0  0.5102781853951655  0.4720808320715549  0.9006312274491464  1.0000
  C   C27       1.0  0.4989094047465699  0.3982933826209988  0.8591255923357438  1.0000
  C   C28       1.0  0.4917748308450811  0.6009139123884284  0.2215480262065483  1.0000
  C   C29       1.0  0.5082589937970851  0.399107394519703  0.7784504553811402  1.0000
  C   C30       1.0  0.4469436929032184  0.23651708356078424  0.5328081557781559  1.0000
  C   C31       1.0  0.5530377447125474  0.7635048096409495  0.46720141658227016  1.0000
  C   C32       1.0  0.4483809466087223  0.1494617873946495  0.5321009611946934  1.0000
  N   N1        1.0  0.5047847348690411  0.5338520427024491  0.019103506811156  1.0000
  N   N2        1.0  0.49523957504849386  0.4661654891790192  0.9808887854452167  1.0000
  N   N3        1.0  0.5030403594349764  0.2831877141768331  0.4853940760914027  1.0000
  N   N4        1.0  0.4969483601365424  0.7168096515869634  0.5146128203138076  1.0000
  N   N5        1.0  0.5195762358468912  0.0209180370197828  0.47249051782445406  1.0000
  N   N6        1.0  0.4803867649214695  0.9790742690769322  0.5275285542407673  1.0000
  O   O1        1.0  0.47420435912437847  0.5893996464756415  0.3859893242338188  1.0000
  O   O2        1.0  0.4521386161711547  0.3807082961548005  0.10464414112360029  1.0000
  O   O3        1.0  0.5258532095026922  0.41062168027388424  0.6140036274709928  1.0000
  O   O4        1.0  0.47167828651569  0.4471521178078819  0.3837939556656096  1.0000
  O   O5        1.0  0.5282731776124479  0.5528729079939935  0.6162088115583373  1.0000
  O   O6        1.0  0.6401011788193856  0.5722394631400293  0.47467094012767314  1.0000
  O   O7        1.0  0.359920373869052  0.42772959251040293  0.5253606363119587  1.0000
  O   O8        1.0  0.6425200700010691  0.4289268972904098  0.4717197383981073  1.0000
  O   O9        1.0  0.3574604182536517  0.5710535343170664  0.528223523367295  1.0000
  O   O10       1.0  0.5478782005134732  0.6193199185125665  0.8953560266470717  1.0000
