data_image0
_chemical_formula_structural       Cd2H10C12N6Cl4
_chemical_formula_sum              "Cd2 H10 C12 N6 Cl4"
_cell_length_a       3.7867129130287402
_cell_length_b       10.871253308430065
_cell_length_c       11.201865839816632
_cell_angle_alpha    112.64733471163449
_cell_angle_beta     89.99953364913651
_cell_angle_gamma    90.00003397399622

_space_group_name_H-M_alt    "P 1"
_space_group_IT_number       1

loop_
  _space_group_symop_operation_xyz
  'x, y, z'

loop_
  _atom_site_type_symbol
  _atom_site_label
  _atom_site_symmetry_multiplicity
  _atom_site_fract_x
  _atom_site_fract_y
  _atom_site_fract_z
  _atom_site_occupancy
  Cd  Cd1       1.0  0.7187591125201676  0.5144714169272433  0.3470486201322132  1.0000
  Cd  Cd2       1.0  0.2187620555472805  0.4855238311998278  0.6529443979860546  1.0000
  H   H1        1.0  0.45829404077255015  0.577892025905861  0.07884460740436337  1.0000
  H   H2        1.0  0.9583022621185433  0.4221109982423314  0.9211623096165769  1.0000
  H   H3        1.0  0.1565852597996695  0.7951495423899145  0.9883354868338686  1.0000
  H   H4        1.0  0.6566090814346025  0.2048467839036192  0.011669693159710379  1.0000
  H   H5        1.0  0.06646299734465089  0.043412486567  0.07741590522142161  1.0000
  H   H6        1.0  0.5664773834234537  0.9565849069196233  0.9225836483282706  1.0000
  H   H7        1.0  0.2583627546112481  0.1820992973391355  0.3018151714183547  1.0000
  H   H8        1.0  0.7583960019772602  0.8179019054450761  0.6981853191950833  1.0000
  H   H9        1.0  0.5437244531514478  0.0731056104476195  0.43882236358759746  1.0000
  H   H10       1.0  0.0437648981791128  0.9268997758962031  0.5611793277550633  1.0000
  C   C1        1.0  0.49436923927603255  0.6738463238771928  0.15709689488221557  1.0000
  C   C2        1.0  0.9943899147531567  0.32615267268482023  0.8429048626118104  1.0000
  C   C3        1.0  0.40196984901137967  0.8011647564673152  0.16472441569329987  1.0000
  C   C4        1.0  0.9019825830884612  0.1988353351839507  0.8352842293698544  1.0000
  C   C5        1.0  0.23972996241067787  0.8591678030882974  0.08558037904560925  1.0000
  C   C6        1.0  0.739759002837104  0.14083043417590352  0.9144226257446206  1.0000
  C   C7        1.0  0.1908479785220507  0.9951275730506239  0.13549130855865593  1.0000
  C   C8        1.0  0.6908648921998616  0.0048667133926656  0.864505885140183  1.0000
  C   C9        1.0  0.2996786857112781  0.0749038664991275  0.2632332505626493  1.0000
  C   C10       1.0  0.7997031815027781  0.9250943134649106  0.7367686902192433  1.0000
  C   C11       1.0  0.45757446972365295  0.018818836014332898  0.3398771115096082  1.0000
  C   C12       1.0  0.9576037167621009  0.9811851726041426  0.6601239245759345  1.0000
  N   N1        1.0  0.5058208876835834  0.8834277473586452  0.28933427125638633  1.0000
  N   N2        1.0  0.005848086799559798  0.11657070445952665  0.710668505867595  1.0000
  N   N3        1.0  0.6519440805711268  0.8128746482530358  0.3534279089972117  1.0000
  N   N4        1.0  0.15195988118661313  0.18713164022133816  0.6465765253772205  1.0000
  N   N5        1.0  0.6393985515191002  0.6865127304259959  0.27110893194006297  1.0000
  N   N6        1.0  0.13941504769813653  0.3134935622856077  0.7288919645578886  1.0000
  Cl  Cl1       1.0  0.21176197811669079  0.3803623556586686  0.18942157984054123  1.0000
  Cl  Cl2       1.0  0.71174967798013  0.6196368784177436  0.8105693678873821  1.0000
  Cl  Cl3       1.0  0.7131613403516537  0.35433752249060296  0.4803998684430796  1.0000
  Cl  Cl4       1.0  0.2131495773332546  0.6456557337187476  0.5195906372099302  1.0000
