data_image0
_chemical_formula_structural       Cd2H26C32N6O12
_chemical_formula_sum              "Cd2 H26 C32 N6 O12"
_cell_length_a       8.846934216436862
_cell_length_b       10.013092765482266
_cell_length_c       10.793776508484841
_cell_angle_alpha    103.57375373296865
_cell_angle_beta     95.58754623522644
_cell_angle_gamma    116.60366054708692

_space_group_name_H-M_alt    "P 1"
_space_group_IT_number       1

loop_
  _space_group_symop_operation_xyz
  'x, y, z'

loop_
  _atom_site_type_symbol
  _atom_site_label
  _atom_site_symmetry_multiplicity
  _atom_site_fract_x
  _atom_site_fract_y
  _atom_site_fract_z
  _atom_site_occupancy
  Cd  Cd1       1.0  0.7451496637789675  0.5617813164214739  0.5281044496909644  1.0000
  Cd  Cd2       1.0  0.25484966414650506  0.43821861708369875  0.4718949282856357  1.0000
  H   H1        1.0  0.9289501383050266  0.9826943777326704  0.6388544995586969  1.0000
  H   H2        1.0  0.0710503149968744  0.017305563686463202  0.3611459081580009  1.0000
  H   H3        1.0  0.9846719699247474  0.7963749219293632  0.43615182634007976  1.0000
  H   H4        1.0  0.015328500008770594  0.2036250235278061  0.56384765720383  1.0000
  H   H5        1.0  0.04052769097867074  0.6631657402740955  0.42342110906739083  1.0000
  H   H6        1.0  0.9594721581570198  0.33683302931620324  0.5765780658608364  1.0000
  H   H7        1.0  0.7876164661257973  0.23827431322279577  0.32414110439329846  1.0000
  H   H8        1.0  0.21238398717610354  0.7617256281963308  0.6758593033233993  1.0000
  H   H9        1.0  0.4571379801824307  0.4199780728587612  0.236684031267302  1.0000
  H   H10       1.0  0.5428624731194773  0.5800218685603653  0.7633163764493958  1.0000
  H   H11       1.0  0.5559104463954014  0.399325780869269  0.9545137559081454  1.0000
  H   H12       1.0  0.44409168675639427  0.6006730126250233  0.045485630154679824  1.0000
  H   H13       1.0  0.3461820392201957  0.3284039475399325  0.7461103297667008  1.0000
  H   H14       1.0  0.6538200939315999  0.6715948459543597  0.2538890562961242  1.0000
  H   H15       1.0  0.9888255784122962  0.9027874029579551  0.8153076187796772  1.0000
  H   H16       1.0  0.011174353679379606  0.09721370237605238  0.1846929919854006  1.0000
  H   H17       1.0  0.19833265559514518  0.9736839340324724  0.021550418001247535  1.0000
  H   H18       1.0  0.801665497059048  0.0263159794446395  0.9784507027536335  1.0000
  H   H19       1.0  0.023274441323984343  0.3481870974525593  0.7913974375398353  1.0000
  H   H20       1.0  0.9767242658036609  0.6518116601857501  0.2086016318210895  1.0000
  H   H21       1.0  0.8774925825477099  0.6796796251746926  0.9964504251422568  1.0000
  H   H22       1.0  0.12250787075419112  0.32032031624444096  0.0035499825744408965  1.0000
  H   H23       1.0  0.40602321293840066  0.7622707165567422  0.30982738777404245  1.0000
  H   H24       1.0  0.5939767025216582  0.23773038473922983  0.6901741471638232  1.0000
  H   H25       1.0  0.698770300814786  0.04763912719680969  0.7043858512624723  1.0000
  H   H26       1.0  0.3012283564180077  0.9523596183273848  0.29561599061683097  1.0000
  C   C1        1.0  0.6934657231207311  0.2593479183527023  0.2716735220552096  1.0000
  C   C2        1.0  0.3065353509789973  0.740653198933302  0.7283271942771634  1.0000
  C   C3        1.0  0.5307519428285445  0.3572283773089566  0.23067326272274613  1.0000
  C   C4        1.0  0.46924736846531095  0.6427715521581874  0.7693270394266563  1.0000
  C   C5        1.0  0.3871969593243137  0.19173377872070324  0.0006957378440049059  1.0000
  C   C6        1.0  0.6128028399165332  0.8082649787554815  0.9993062096025936  1.0000
  C   C7        1.0  0.4306609945340015  0.29174984473988275  0.9237023692554658  1.0000
  C   C8        1.0  0.569338333391471  0.7082500887652968  0.07629700872114137  1.0000
  C   C9        1.0  0.3138734309842164  0.2531723539122979  0.8083513154905616  1.0000
  C   C10       1.0  0.6861287851235643  0.7468287753256958  0.19164950640911368  1.0000
  C   C11       1.0  0.1534404417953823  0.1145240321348737  0.769659005281163  1.0000
  C   C12       1.0  0.8465588528668562  0.8854758932942275  0.23034222104102045  1.0000
  C   C13       1.0  0.11207519394292828  0.0122935014830503  0.8458629821257588  1.0000
  C   C14       1.0  0.887923596140702  0.9877075918989676  0.1541375230720164  1.0000
  C   C15       1.0  0.22957664817424472  0.05162820747450069  0.9613984831672725  1.0000
  C   C16       1.0  0.770423283917431  0.9483728978595067  0.03860212759779811  1.0000
  C   C17       1.0  0.881487224524882  0.5333397325686846  0.7553482247066013  1.0000
  C   C18       1.0  0.1185127075668007  0.46666137276532993  0.2446523860584691  1.0000
  C   C19       1.0  0.9443012291837576  0.5160738923185164  0.8810352275007389  1.0000
  C   C20       1.0  0.055697477943887644  0.4839248653197858  0.11896384186019304  1.0000
  C   C21       1.0  0.013310466249052388  0.4146488270047398  0.8828162931980472  1.0000
  C   C22       1.0  0.9866900203160825  0.5853511224904722  0.11718226617306733  1.0000
  C   C23       1.0  0.9315175854880948  0.6014026800151911  0.9990729613341786  1.0000
  C   C24       1.0  0.0684799962631146  0.39859606970916417  0.0009250782866559002  1.0000
  C   C25       1.0  0.6204344648799348  0.7785378074387238  0.5165971161635596  1.0000
  C   C26       1.0  0.3795653676241457  0.22146095811353922  0.483402982937463  1.0000
  C   C27       1.0  0.5584176806067519  0.8927058745275857  0.5077207211515927  1.0000
  C   C28       1.0  0.4415816140554866  0.10729405090151539  0.4922805051705907  1.0000
  C   C29       1.0  0.44558235087867365  0.8659009836445505  0.3929834910505079  1.0000
  C   C30       1.0  0.5544169437835648  0.13409894178455056  0.6070177352716825  1.0000
  C   C31       1.0  0.6124914366267903  0.027670344108770503  0.6147395098271246  1.0000
  C   C32       1.0  0.38750785803544835  0.9723295813203308  0.3852617164950587  1.0000
  N   N1        1.0  0.502834043491319  0.24018841472140207  0.12427564822511533  1.0000
  N   N2        1.0  0.4971664098105819  0.7598115266977317  0.8757247594915825  1.0000
  N   N3        1.0  0.6060032945803541  0.175810189042096  0.1486696397966227  1.0000
  N   N4        1.0  0.39399717535316375  0.8241897564150733  0.8513298437472798  1.0000
  N   N5        1.0  0.6519196934968079  0.3733370675193086  0.3260735184256163  1.0000
  N   N6        1.0  0.34808023859487497  0.6266640378147059  0.6739270923394614  1.0000
  O   O1        1.0  0.04198064975228279  0.08484017887931118  0.657873120265478  1.0000
  O   O2        1.0  0.9580204243474455  0.9151609384066929  0.3421275960669021  1.0000
  O   O3        1.0  0.8093311436675917  0.6188256352130992  0.7582206798132063  1.0000
  O   O4        1.0  0.19067055122996376  0.3811766579397754  0.24178034513484895  1.0000
  O   O5        1.0  0.898267967901205  0.46184196221155827  0.6468169363467453  1.0000
  O   O6        1.0  0.1017337436279604  0.5381603349793593  0.35318316442852193  1.0000
  O   O7        1.0  0.7577199404331623  0.8227345326665516  0.6019451935323161  1.0000
  O   O8        1.0  0.24228052950035564  0.177265412790625  0.3980542900115935  1.0000
  O   O9        1.0  0.5355727040995717  0.6365737758426562  0.4393750408101198  1.0000
  O   O10       1.0  0.46442596976484657  0.3634249737195745  0.5606258768963884  1.0000
  O   O11       1.0  0.001296214194674395  0.7281429717328648  0.48259155676229426  1.0000
  O   O12       1.0  0.9987036183094063  0.2718557938193982  0.5174085423387282  1.0000
