data_image0
_chemical_formula_structural       Zn4H35C48N11O16
_chemical_formula_sum              "Zn4 H35 C48 N11 O16"
_cell_length_a       9.636218007009555
_cell_length_b       11.099205841373392
_cell_length_c       28.946382863781224
_cell_angle_alpha    90.05625620594628
_cell_angle_beta     89.35425690741627
_cell_angle_gamma    89.83602848141088

_space_group_name_H-M_alt    "P 1"
_space_group_IT_number       1

loop_
  _space_group_symop_operation_xyz
  'x, y, z'

loop_
  _atom_site_type_symbol
  _atom_site_label
  _atom_site_symmetry_multiplicity
  _atom_site_fract_x
  _atom_site_fract_y
  _atom_site_fract_z
  _atom_site_occupancy
  Zn  Zn1       1.0  0.6410855713712708  0.5056043683092286  0.5013228541461388  1.0000
  Zn  Zn2       1.0  0.35616374685731966  0.508447276634442  0.49785813209263813  1.0000
  Zn  Zn3       1.0  0.3594926044892546  0.5086791198411832  0.1178550366389359  1.0000
  Zn  Zn4       1.0  0.6447854138853657  0.5099480189030104  0.1186299654212846  1.0000
  H   H1        1.0  0.12435164600049119  0.6524053661931862  0.5439098929290154  1.0000
  H   H2        1.0  0.14269905268579922  0.366786975195062  0.4511523040053689  1.0000
  H   H3        1.0  0.8593044593557195  0.6398423884968383  0.5448109485859405  1.0000
  H   H4        1.0  0.7312531831727542  0.8989705206956915  0.5003807899016905  1.0000
  H   H5        1.0  0.2868642296532543  0.881039781027333  0.4971325801531066  1.0000
  H   H6        1.0  0.7166026091608091  0.12436720849562735  0.4994003778632816  1.0000
  H   H7        1.0  0.29506283650269444  0.5008723480111713  0.9743314658839993  1.0000
  H   H8        1.0  0.28125062749584373  0.4934497865819767  0.8881000551740144  1.0000
  H   H9        1.0  0.7284231920435288  0.4968488039678222  0.8803944193753495  1.0000
  H   H10       1.0  0.26626693654600336  0.49673941205666255  0.73680924012627  1.0000
  H   H11       1.0  0.701276023822672  0.4959904219330369  0.6437397055934042  1.0000
  H   H12       1.0  0.7135595318098211  0.49066398730963123  0.7299934662890166  1.0000
  H   H13       1.0  0.28036004695612604  0.498133109779289  0.2661704075694473  1.0000
  H   H14       1.0  0.7255223530598159  0.5043959739757184  0.2634559659164211  1.0000
  H   H15       1.0  0.2847087063947384  0.4961705060172008  0.35309979234362737  1.0000
  H   H16       1.0  0.8764012864384512  0.6512080634551723  0.071871787601296  1.0000
  H   H17       1.0  0.8582717706214211  0.37105700531636643  0.1667748574744934  1.0000
  H   H18       1.0  0.1416912721303163  0.6404972085545709  0.0724039627277904  1.0000
  H   H19       1.0  0.27029490320091304  0.9012651514780504  0.1182164539584605  1.0000
  H   H20       1.0  0.7148575182903372  0.8830289753562259  0.12047641931275879  1.0000
  H   H21       1.0  0.28384490394986983  0.12686019275687244  0.1179099902522154  1.0000
  H   H22       1.0  0.7630636472462912  0.3083568983018737  0.45873604037065263  1.0000
  H   H23       1.0  0.9224442437523949  0.2677543252723211  0.4318561165483743  1.0000
  H   H24       1.0  0.23937987491348878  0.20390632297429087  0.506138396590508  1.0000
  H   H25       1.0  0.15964163928877184  0.06320736289199401  0.5073976432468328  1.0000
  H   H26       1.0  0.757390556299903  0.5238339836734127  0.3879169296818715  1.0000
  H   H27       1.0  0.843653183332073  0.5311411127702996  0.3345514575576943  1.0000
  H   H28       1.0  0.23820495877642864  0.3139734474652941  0.1608855983030892  1.0000
  H   H29       1.0  0.078205099651008  0.2715300065419442  0.18616238848718328  1.0000
  H   H30       1.0  0.7602100210211589  0.20563110136269822  0.1095650064806293  1.0000
  H   H31       1.0  0.8409774006596396  0.06496194914431902  0.1089405133039776  1.0000
  H   H32       1.0  0.7724341536439427  0.5052216022179082  0.004502974577199799  1.0000
  H   H33       1.0  0.8549900446495897  0.4891138021758152  0.9502817553571248  1.0000
  H   H34       1.0  0.22458220353612998  0.5020542854693701  0.6125166595407662  1.0000
  H   H35       1.0  0.1408921141100166  0.48840590854328536  0.6666004788980687  1.0000
  C   C1        1.0  0.5128182455270079  0.7425084470391569  0.4995135064415877  1.0000
  C   C2        1.0  0.4832608244484291  0.5032134936875751  0.5902017218303471  1.0000
  C   C3        1.0  0.4935424218178853  0.26473917296413424  0.497961629849506  1.0000
  C   C4        1.0  0.4990692890863002  0.5026171176125871  0.4086457444488402  1.0000
  C   C5        1.0  0.4893765053834046  0.7447066479394595  0.1192256401583549  1.0000
  C   C6        1.0  0.5143098759787891  0.5080934549722969  0.027459013408332605  1.0000
  C   C7        1.0  0.5060765131677486  0.26695863013946314  0.1182780103762298  1.0000
  C   C8        1.0  0.5048428894690532  0.5016777437437199  0.2083631484642936  1.0000
  C   C9        1.0  0.9314178790483539  0.4137387735132094  0.47456577631843544  1.0000
  C   C10       1.0  0.06727929954880102  0.5862133030597009  0.5239596892900877  1.0000
  C   C11       1.0  0.07827007942543672  0.42627508033999106  0.4725318604192523  1.0000
  C   C12       1.0  0.9241192431744095  0.5778108416157366  0.5247700099971979  1.0000
  C   C13       1.0  0.4944149059422003  0.13107285970947663  0.49775182768161846  1.0000
  C   C14       1.0  0.5085566134136246  0.8776998950103021  0.4986942305047464  1.0000
  C   C15       1.0  0.36968653142951524  0.0623211339702294  0.4978882168102814  1.0000
  C   C16       1.0  0.6317131530444585  0.9454384530245505  0.4992278925971476  1.0000
  C   C17       1.0  0.3806614662410439  0.9357410059911547  0.4977727383130102  1.0000
  C   C18       1.0  0.6227338627562773  0.0699827983856665  0.4984703895882916  1.0000
  C   C19       1.0  0.5164853577232479  0.5049046700707295  0.9762874100765657  1.0000
  C   C20       1.0  0.3890054795583637  0.5005821686717624  0.953042942138744  1.0000
  C   C21       1.0  0.3808566006900875  0.49591408200978304  0.9054452725501108  1.0000
  C   C22       1.0  0.505129534970692  0.49434224407861654  0.8787618970963251  1.0000
  C   C23       1.0  0.633077869092901  0.4976774806878837  0.9011023010381222  1.0000
  C   C24       1.0  0.6423080198954383  0.5040267677111531  0.9496327166208401  1.0000
  C   C25       1.0  0.49995931692820517  0.49122842952502316  0.8298946784253118  1.0000
  C   C26       1.0  0.49404692219654583  0.4908624282416342  0.7877675593671754  1.0000
  C   C27       1.0  0.48947655219950553  0.4929718129434805  0.7389050481325938  1.0000
  C   C28       1.0  0.3619645969798882  0.4964812666747279  0.7162898872609276  1.0000
  C   C29       1.0  0.35361413924603374  0.5016130951778238  0.6677208722808956  1.0000
  C   C30       1.0  0.4798572002055437  0.501058669772128  0.6413241801955252  1.0000
  C   C31       1.0  0.6069624384958985  0.49668041979443706  0.6648462318020449  1.0000
  C   C32       1.0  0.614234756896309  0.4931811909004154  0.7124576498385764  1.0000
  C   C33       1.0  0.5059165255849579  0.5008918625557968  0.35737545729784875  1.0000
  C   C34       1.0  0.5038415884240238  0.5008996232776824  0.2601529290896778  1.0000
  C   C35       1.0  0.6339762540078483  0.5040400885205828  0.33218852557406825  1.0000
  C   C36       1.0  0.3775071845894828  0.49870978030570995  0.2849993476568926  1.0000
  C   C37       1.0  0.6290059587322574  0.5029709336012901  0.2835149196210907  1.0000
  C   C38       1.0  0.38060898580642544  0.4978722499213292  0.3328182123678189  1.0000
  C   C39       1.0  0.06987584571862732  0.4184555114425665  0.1441871167614579  1.0000
  C   C40       1.0  0.9336058179051607  0.5866005839402533  0.0926241262003913  1.0000
  C   C41       1.0  0.9228289331698462  0.42963637354104395  0.1452443388346936  1.0000
  C   C42       1.0  0.07690851666747991  0.5793966110626132  0.092693160657376  1.0000
  C   C43       1.0  0.5059543640770985  0.13323602533748163  0.11889439082671771  1.0000
  C   C44       1.0  0.4931060450728211  0.8798991225286982  0.11940378378647408  1.0000
  C   C45       1.0  0.631054581371771  0.06440130445654553  0.11885156033329741  1.0000
  C   C46       1.0  0.36958881731573007  0.9477116970682432  0.1187859555731947  1.0000
  C   C47       1.0  0.6207660068091556  0.9378319002895669  0.1197136499470162  1.0000
  C   C48       1.0  0.37793383776789113  0.07228313368822373  0.1188338977337509  1.0000
  N   N1        1.0  0.8562383267896012  0.4933548765730509  0.5004147047969667  1.0000
  N   N2        1.0  0.1421757004707516  0.5094255275901888  0.4971279229891081  1.0000
  N   N3        1.0  0.14484435916477167  0.496969835180309  0.11808801865469581  1.0000
  N   N4        1.0  0.8587294048728821  0.51071996757738  0.1196052874669675  1.0000
  N   N5        1.0  0.8664609774966152  0.32561312047119634  0.4516534695214318  1.0000
  N   N6        1.0  0.24027897732848666  0.11516258549742993  0.4969067696012885  1.0000
  N   N7        1.0  0.7605620033405247  0.5041583952782676  0.3535170847694502  1.0000
  N   N8        1.0  0.13531870937531923  0.3324385567712441  0.1683313385563494  1.0000
  N   N9        1.0  0.7601699811161424  0.11730673083396684  0.1193259176988661  1.0000
  N   N10       1.0  0.7702700706307937  0.5111585794978027  0.9694293864720933  1.0000
  N   N11       1.0  0.2261231143505853  0.5090545879222077  0.6475651395017508  1.0000
  O   O1        1.0  0.6302125584291148  0.691662190305067  0.505133967050341  1.0000
  O   O2        1.0  0.3973836340010379  0.6882934679052328  0.49446689030175867  1.0000
  O   O3        1.0  0.36800579348221873  0.515378866880866  0.5685900883173503  1.0000
  O   O4        1.0  0.6012303835444045  0.49234896055067895  0.5698385865561804  1.0000
  O   O5        1.0  0.37854465206021365  0.3205689713629455  0.504280016278841  1.0000
  O   O6        1.0  0.6095586082720886  0.31945635634264147  0.4920783005335352  1.0000
  O   O7        1.0  0.6120168536525484  0.5202613936315715  0.430948669646007  1.0000
  O   O8        1.0  0.3810833502397557  0.48703330636586645  0.428228645628515  1.0000
  O   O9        1.0  0.3719199055027574  0.6940344218826199  0.1142301131014634  1.0000
  O   O10       1.0  0.6050958251396068  0.6902839198062553  0.1240475511644519  1.0000
  O   O11       1.0  0.6305481252352508  0.5209264275079237  0.0484479080159872  1.0000
  O   O12       1.0  0.39750439247190883  0.4973821435959141  0.0483951683522008  1.0000
  O   O13       1.0  0.6204264033245935  0.3224395695360159  0.1109193268056927  1.0000
  O   O14       1.0  0.39016247987608216  0.32176519154685945  0.1249771671798001  1.0000
  O   O15       1.0  0.38951256252948957  0.518659829289284  0.1882730830675854  1.0000
  O   O16       1.0  0.6216765638936227  0.4853301694231363  0.18799671133137957  1.0000
