data_image0
_chemical_formula_structural       Co2H32C30N6O12
_chemical_formula_sum              "Co2 H32 C30 N6 O12"
_cell_length_a       7.966021601339576
_cell_length_b       9.649409594572589
_cell_length_c       11.868204396572361
_cell_angle_alpha    91.24642974421192
_cell_angle_beta     102.1210773310817
_cell_angle_gamma    113.2581071812966

_space_group_name_H-M_alt    "P 1"
_space_group_IT_number       1

loop_
  _space_group_symop_operation_xyz
  'x, y, z'

loop_
  _atom_site_type_symbol
  _atom_site_label
  _atom_site_symmetry_multiplicity
  _atom_site_fract_x
  _atom_site_fract_y
  _atom_site_fract_z
  _atom_site_occupancy
  Co  Co1       1.0  0.49999650254699896  0.9999987451432375  0.9999998667313432  1.0000
  Co  Co2       1.0  0.9999958142318306  0.499998050991671  1.6807730247501106e-06  1.0000
  H   H1        1.0  0.021744788647779966  0.8103561974227133  0.2894815367732306  1.0000
  H   H2        1.0  0.9782498567833642  0.18964024644456856  0.7105184892963904  1.0000
  H   H3        1.0  0.17871230943265448  0.9744415648610596  0.4769503932587255  1.0000
  H   H4        1.0  0.821289687100503  0.02554914584754189  0.5230498379709089  1.0000
  H   H5        1.0  0.19924756872661925  0.24092552823996968  0.49229352499026646  1.0000
  H   H6        1.0  0.8007591540761895  0.7590673224584991  0.5077133919166599  1.0000
  H   H7        1.0  0.09344350271074116  0.3441890892995757  0.3137092427234407  1.0000
  H   H8        1.0  0.9065562043732811  0.6558082152938169  0.6863050837500139  1.0000
  H   H9        1.0  0.9401672579224537  0.7975302765397954  0.08304908156607377  1.0000
  H   H10       1.0  0.05982193040321698  0.20247071737377098  0.9169527008566261  1.0000
  H   H11       1.0  0.85956811262556  0.9280129684032515  0.010338211960217333  1.0000
  H   H12       1.0  0.14042596170511962  0.07199022545314189  0.9896669107266047  1.0000
  H   H13       1.0  0.8265923701536693  0.528864227238209  0.3077123582391507  1.0000
  H   H14       1.0  0.17342613842513543  0.47114721900512546  0.6922723250852413  1.0000
  H   H15       1.0  0.828856574524508  0.3238498860264584  0.6273191861596742  1.0000
  H   H16       1.0  0.17116211511873997  0.6761569852829296  0.3726662811863832  1.0000
  H   H17       1.0  0.535430496065203  0.27146605194566575  0.4942087377853142  1.0000
  H   H18       1.0  0.4645922781819324  0.7285520043038005  0.5057877016677564  1.0000
  H   H19       1.0  0.520425530308529  0.3846761211515285  0.37895101811698584  1.0000
  H   H20       1.0  0.4795827883170888  0.6153261254485969  0.6210403140002327  1.0000
  H   H21       1.0  0.5991029882204658  0.8929454130739102  0.2664292410690052  1.0000
  H   H22       1.0  0.4008923120646202  0.10704987143554227  0.7335717089008112  1.0000
  H   H23       1.0  0.4670032733004915  0.26243391139360017  0.17366283152673387  1.0000
  H   H24       1.0  0.5329890043446425  0.7375603000099601  0.8263350931512716  1.0000
  H   H25       1.0  0.21942655711234943  0.758482494256995  0.09485998182800158  1.0000
  H   H26       1.0  0.7805691370945523  0.24151617585209087  0.9051427807269191  1.0000
  H   H27       1.0  0.7291381138047655  0.5331476985810896  0.0971002771204894  1.0000
  H   H28       1.0  0.2708495918894869  0.46684766850279397  0.9028977925850936  1.0000
  H   H29       1.0  0.3036860633793096  0.6505297625855417  0.15744102522805287  1.0000
  H   H30       1.0  0.6963036468106123  0.3494621414130916  0.8425589798248083  1.0000
  H   H31       1.0  0.6602044040146708  0.36539633909761443  0.031523633529452914  1.0000
  H   H32       1.0  0.3397845008883209  0.6345989892434645  0.9684763101423286  1.0000
  C   C1        1.0  0.9875410802188469  0.1333684447845869  0.203745854678445  1.0000
  C   C2        1.0  0.012446155571701692  0.8666290673779852  0.796259768372593  1.0000
  C   C3        1.0  0.960816360266378  0.9797460413694875  0.19693497632205487  1.0000
  C   C4        1.0  0.0391792141390113  0.02025258377487659  0.8030702952927484  1.0000
  C   C5        1.0  0.03390758201680192  0.9268176826043443  0.2964857582757077  1.0000
  C   C6        1.0  0.9660926748386061  0.07317750688684298  0.7035193421457036  1.0000
  C   C7        1.0  0.12174639662351439  0.019070496733284894  0.4017517926062553  1.0000
  C   C8        1.0  0.8782572636054977  0.9809212658710531  0.5982529353621615  1.0000
  C   C9        1.0  0.13765685077143527  0.16885261864352685  0.409402122950432  1.0000
  C   C10       1.0  0.8623446758580187  0.8311402371437565  0.5906056616246573  1.0000
  C   C11       1.0  0.07608186814199767  0.22631902493289147  0.3103463071972427  1.0000
  C   C12       1.0  0.9239163256791513  0.7736749627801556  0.689662660018321  1.0000
  C   C13       1.0  0.9384847576897714  0.207909083240331  0.10051487665666765  1.0000
  C   C14       1.0  0.06150622615997746  0.7920860477092048  0.8994955057738423  1.0000
  C   C15       1.0  0.8638327586572244  0.8691567049329476  0.08783326216662603  1.0000
  C   C16       1.0  0.13615335779226706  0.13084087594891256  0.9121688142116324  1.0000
  C   C17       1.0  0.6630877883853826  0.7635422770393632  0.08978968485111234  1.0000
  C   C18       1.0  0.3369028786859047  0.2364587830490734  0.9102081170647267  1.0000
  C   C19       1.0  0.8050315933792405  0.4164619035202647  0.46349637608685157  1.0000
  C   C20       1.0  0.19499016272359865  0.5835516165380666  0.5364989734216934  1.0000
  C   C21       1.0  0.9019186614400996  0.5163941717229648  0.392310348641537  1.0000
  C   C22       1.0  0.09810504719785476  0.4836228300863538  0.6076811602386697  1.0000
  C   C23       1.0  0.9040683151895409  0.40082277029452473  0.5712325975701873  1.0000
  C   C24       1.0  0.09596545313623754  0.5991862158388556  0.428758656470137  1.0000
  C   C25       1.0  0.596737379290971  0.3199969910020356  0.42212631103862447  1.0000
  C   C26       1.0  0.40327747700881383  0.6800154672611355  0.5778662457525882  1.0000
  C   C27       1.0  0.5760679959851132  0.9961359521058027  0.27109045451587827  1.0000
  C   C28       1.0  0.4239283584923185  0.0038583229282238975  0.7289030558211919  1.0000
  C   C29       1.0  0.5091515785305206  0.18219448382228617  0.22101375362156966  1.0000
  C   C30       1.0  0.4908479222741775  0.8178064699371602  0.7789879661713995  1.0000
  N   N1        1.0  0.5607105152212383  0.1933568790619374  0.33735258305108556  1.0000
  N   N2        1.0  0.43930113079609595  0.8066474713296612  0.6626477425436973  1.0000
  N   N3        1.0  0.604546348090544  0.0755332311155357  0.37108453129713576  1.0000
  N   N4        1.0  0.3954635942970909  0.9244700523920811  0.628912133912152  1.0000
  N   N5        1.0  0.5182115898951524  0.057891690087657786  0.17572806844906808  1.0000
  N   N6        1.0  0.48177542101132065  0.9421048213658164  0.8242699137096138  1.0000
  O   O1        1.0  0.056628530345882666  0.34158096891672324  0.09587629634640389  1.0000
  O   O2        1.0  0.9433616974531631  0.6584199263010717  0.9041307054556639  1.0000
  O   O3        1.0  0.7890150352124863  0.1366115042214844  0.019796326136599922  1.0000
  O   O4        1.0  0.21098073344551682  0.8633904315813082  0.9802149398297784  1.0000
  O   O5        1.0  0.5286960106689661  0.799624925202039  0.03827872449202367  1.0000
  O   O6        1.0  0.4712950371359669  0.20037163489365636  0.9617156796790168  1.0000
  O   O7        1.0  0.6316894388093529  0.6449026626291782  0.13950778214548618  1.0000
  O   O8        1.0  0.36829901090889894  0.355093900010928  0.8604870558596361  1.0000
  O   O9        1.0  0.19089889544788713  0.6713070703721795  0.142803362300846  1.0000
  O   O10       1.0  0.8090949753278026  0.3286904878882098  0.8571982489284693  1.0000
  O   O11       1.0  0.7729737448000976  0.45489999999104197  0.07477168674029144  1.0000
  O   O12       1.0  0.22701388102647257  0.5450953371163578  0.9252280556718799  1.0000
