data_image0
_chemical_formula_structural       Hg2H22C26Br4N6
_chemical_formula_sum              "Hg2 H22 C26 Br4 N6"
_cell_length_a       8.095106136058934
_cell_length_b       9.119033829015533
_cell_length_c       10.920425301414136
_cell_angle_alpha    102.2290057426015
_cell_angle_beta     96.489418873897
_cell_angle_gamma    112.0121590397809

_space_group_name_H-M_alt    "P 1"
_space_group_IT_number       1

loop_
  _space_group_symop_operation_xyz
  'x, y, z'

loop_
  _atom_site_type_symbol
  _atom_site_label
  _atom_site_symmetry_multiplicity
  _atom_site_fract_x
  _atom_site_fract_y
  _atom_site_fract_z
  _atom_site_occupancy
  Hg  Hg1       1.0  0.45013677811704866  0.08199428966437948  0.705903747004129  1.0000
  Hg  Hg2       1.0  0.5498578800277798  0.9180095536188946  0.29409953032769215  1.0000
  H   H1        1.0  0.5235910702453949  0.7733673379385094  0.7946831714955493  1.0000
  H   H2        1.0  0.4764062899008436  0.22664264964710412  0.2053204738939201  1.0000
  H   H3        1.0  0.9595898219259456  0.8511549617094759  0.6532672662831375  1.0000
  H   H4        1.0  0.04038517925172872  0.1488216565196296  0.3467224337445103  1.0000
  H   H5        1.0  0.9147351473105372  0.2780864811939949  0.6335271753712135  1.0000
  H   H6        1.0  0.0852808542220986  0.7219065994723766  0.3664757594730474  1.0000
  H   H7        1.0  0.4733945031921182  0.4778664163014383  0.7475132936186456  1.0000
  H   H8        1.0  0.5266147886274908  0.5221424811191753  0.2524901155103265  1.0000
  H   H9        1.0  0.2622492749331825  0.3285908713513024  0.6514107389901085  1.0000
  H   H10       1.0  0.737759493859116  0.6714168037275317  0.34859333161513467  1.0000
  H   H11       1.0  0.6426549450170568  0.32479238192355103  0.5594520183805686  1.0000
  H   H12       1.0  0.35735329149618883  0.6751859261621362  0.4405486527234146  1.0000
  H   H13       1.0  0.6629562015789574  0.6067079287896816  0.5719373279049264  1.0000
  H   H14       1.0  0.3370282547455901  0.3932590332842593  0.42805410361514623  1.0000
  H   H15       1.0  0.135315781867874  0.4297313948712685  0.132052588891554  1.0000
  H   H16       1.0  0.8646995973081176  0.5702885673628587  0.867950474107758  1.0000
  H   H17       1.0  0.27180064995105363  0.03756451951844039  0.9423799463575903  1.0000
  H   H18       1.0  0.7281951411132539  0.9624418010418552  0.057625683460692266  1.0000
  H   H19       1.0  0.213094682713674  0.5576299539226143  0.9553533408417891  1.0000
  H   H20       1.0  0.7869133375764007  0.4423789205022786  0.044649055429161415  1.0000
  H   H21       1.0  0.1576823809115808  0.15823317263346579  0.1234835812271413  1.0000
  H   H22       1.0  0.8423239219898733  0.841785536662755  0.8765277549982713  1.0000
  C   C1        1.0  0.3773230356273064  0.723772672730391  0.7588404180341541  1.0000
  C   C2        1.0  0.6226747606813702  0.2762385046035122  0.24115889044004754  1.0000
  C   C3        1.0  0.10418774995366684  0.7022688893062323  0.6921244880111601  1.0000
  C   C4        1.0  0.8958006253888227  0.2977238158282063  0.30787086571258027  1.0000
  C   C5        1.0  0.9498934100465847  0.728352507946113  0.6519927500641032  1.0000
  C   C6        1.0  0.05008969990313267  0.27162545430234547  0.34800052791591446  1.0000
  C   C7        1.0  0.9258381708269569  0.4024636041403298  0.6401302598572371  1.0000
  C   C8        1.0  0.07416945302629335  0.597530537897768  0.3598649235045883  1.0000
  C   C9        1.0  0.3249924489433269  0.4295417275612935  0.740616142345978  1.0000
  C   C10       1.0  0.6750179106471068  0.5704696226912278  0.25938686269020655  1.0000
  C   C11       1.0  0.09038937382540276  0.541167168697342  0.6867678274750801  1.0000
  C   C12       1.0  0.9096057001495553  0.4588293117420293  0.31323143097144174  1.0000
  C   C13       1.0  0.7733721853858455  0.43030893868544956  0.5993634362160378  1.0000
  C   C14       1.0  0.22662942457241547  0.5696716598127267  0.4006279970677653  1.0000
  C   C15       1.0  0.7849658277952754  0.5901296628812387  0.6060157206253294  1.0000
  C   C16       1.0  0.21502215111038236  0.4098483098664048  0.39397242018927875  1.0000
  C   C17       1.0  0.2783917362641617  0.36222229064912176  0.8535377854203858  1.0000
  C   C18       1.0  0.7216133348333783  0.6377828530128866  0.14646098812260533  1.0000
  C   C19       1.0  0.17944146332797567  0.36949050163456587  0.053177245954998405  1.0000
  C   C20       1.0  0.8205737134732232  0.630523345991925  0.9468256369832133  1.0000
  C   C21       1.0  0.25444474509497883  0.15171076982079504  0.9476194011558121  1.0000
  C   C22       1.0  0.7455540034746097  0.8482967783308697  0.05238299860349833  1.0000
  C   C23       1.0  0.2225053897456705  0.4412137135589021  0.9537593660286207  1.0000
  C   C24       1.0  0.777508741000915  0.5587976893840434  0.046244839862133284  1.0000
  C   C25       1.0  0.19344136053152278  0.22086977278095793  0.0494934520963142  1.0000
  C   C26       1.0  0.8065624524399624  0.7791378592052142  0.9505120802353345  1.0000
  Br  Br1       1.0  0.2883546258475036  0.0637076602315929  0.48645117097454  1.0000
  Br  Br2       1.0  0.7116409928709828  0.9362900506979203  0.5135483448554581  1.0000
  Br  Br3       1.0  0.7370217402740877  0.15303074911779652  0.8704388383909958  1.0000
  Br  Br4       1.0  0.2629730564807816  0.8469706398841768  0.12956309931239224  1.0000
  N   N1        1.0  0.28567011472544834  0.812684588248338  0.7375806306076953  1.0000
  N   N2        1.0  0.714318977706391  0.18731795700702492  0.2624210944878058  1.0000
  N   N3        1.0  0.26749250986479484  0.5600236476311767  0.730542932846582  1.0000
  N   N4        1.0  0.7325111293769524  0.4399839191680428  0.2694552486070664  1.0000
  N   N5        1.0  0.2961657234935657  0.22079535766428657  0.8519082715660035  1.0000
  N   N6        1.0  0.703836091162387  0.7792134588205855  0.14809549243307876  1.0000
