data_image0
_chemical_formula_structural       Cu6H20C20N40
_chemical_formula_sum              "Cu6 H20 C20 N40"
_cell_length_a       8.116586114132035
_cell_length_b       10.623304319924724
_cell_length_c       11.608474893240068
_cell_angle_alpha    90.00206976734714
_cell_angle_beta     90.1355036908913
_cell_angle_gamma    90.65148301639483

_space_group_name_H-M_alt    "P 1"
_space_group_IT_number       1

loop_
  _space_group_symop_operation_xyz
  'x, y, z'

loop_
  _atom_site_type_symbol
  _atom_site_label
  _atom_site_symmetry_multiplicity
  _atom_site_fract_x
  _atom_site_fract_y
  _atom_site_fract_z
  _atom_site_occupancy
  Cu  Cu1       1.0  0.1620185480646441  0.9273220391882264  0.38354248306069394  1.0000
  Cu  Cu2       1.0  0.33866430641422335  0.0726791177724451  0.8850640457519533  1.0000
  Cu  Cu3       1.0  0.8362207784529118  0.07278323850767521  0.6139527303291601  1.0000
  Cu  Cu4       1.0  0.6615112568125453  0.927262289696671  0.1165823291958787  1.0000
  Cu  Cu5       1.0  0.502348240848434  0.0005530450473827005  0.5014287950562135  1.0000
  Cu  Cu6       1.0  0.9996574794062666  0.9999444750906223  0.9997843727783007  1.0000
  H   H1        1.0  0.9566273773180994  0.7762262995992586  0.5362470352122202  1.0000
  H   H2        1.0  0.5442111226275513  0.22427875619922596  0.0366728963969081  1.0000
  H   H3        1.0  0.04396096536206069  0.2233099908458201  0.4633994113954998  1.0000
  H   H4        1.0  0.45626962164219254  0.7759326040453589  0.9636703772881674  1.0000
  H   H5        1.0  0.1271578959317452  0.7363027003587919  0.20278452313959147  1.0000
  H   H6        1.0  0.3728967158573653  0.26297246299621696  0.7027278732889783  1.0000
  H   H7        1.0  0.8732509111310448  0.2623290142684099  0.7968290246752189  1.0000
  H   H8        1.0  0.6271659962276742  0.7366648977511903  0.29769601929485384  1.0000
  H   H9        1.0  0.792393982312049  0.5742992620042315  0.5239696844356629  1.0000
  H   H10       1.0  0.707957365871529  0.4262278102264789  0.024318683599091204  1.0000
  H   H11       1.0  0.20752881133842743  0.4255047908439665  0.47592947772808  1.0000
  H   H12       1.0  0.292218566492494  0.5740590338064708  0.9757486775226879  1.0000
  H   H13       1.0  0.9840212575256898  0.5269411019173235  0.1796164502836461  1.0000
  H   H14       1.0  0.5155636481283139  0.47242062814709845  0.6794142787523043  1.0000
  H   H15       1.0  0.015170219155756101  0.47229101319277333  0.820139096372742  1.0000
  H   H16       1.0  0.48462830272818985  0.527098024909158  0.320592782048756  1.0000
  H   H17       1.0  0.8091080575570543  0.4458086747898947  0.3424018799096231  1.0000
  H   H18       1.0  0.6906026028691129  0.5543043895226634  0.8423016026013811  1.0000
  H   H19       1.0  0.18997194357576316  0.5539751752379517  0.6576447502168676  1.0000
  H   H20       1.0  0.3092992545289945  0.4457397294767206  0.1575303538522661  1.0000
  C   C1        1.0  0.9548870196019834  0.7184727727331507  0.45867883003427323  1.0000
  C   C2        1.0  0.5458629259522993  0.2817213044313577  0.9589227661439993  1.0000
  C   C3        1.0  0.0456251915480621  0.28099672578014184  0.5410183772524704  1.0000
  C   C4        1.0  0.4544499806502528  0.7183997803056316  0.0413755718615789  1.0000
  C   C5        1.0  0.053705333475939206  0.694884204593784  0.2717371580133161  1.0000
  C   C6        1.0  0.44650142929440756  0.304610365892465  0.7717324321928629  1.0000
  C   C7        1.0  0.9465136740192575  0.3041204195919391  0.7279744426875113  1.0000
  C   C8        1.0  0.5535692122258097  0.6951465446814569  0.2286130779051661  1.0000
  C   C9        1.0  0.8664196493365423  0.6058373264078654  0.45114432539219246  1.0000
  C   C10       1.0  0.6340253213702098  0.39444771466546075  0.9513137619180156  1.0000
  C   C11       1.0  0.13352126728123886  0.39387351516184316  0.5486911036833959  1.0000
  C   C12       1.0  0.36621090224545577  0.6056752917734088  0.04879068843683851  1.0000
  C   C13       1.0  0.9722357508671138  0.5796860806737173  0.259581933987505  1.0000
  C   C14       1.0  0.5276668138393674  0.41990232654766413  0.7595201576962579  1.0000
  C   C15       1.0  0.027323815851822496  0.41960512285258034  0.7401739191233644  1.0000
  C   C16       1.0  0.4724043002270832  0.5798300997054397  0.24060568513471736  1.0000
  C   C17       1.0  0.8757798920254414  0.5348949279814336  0.350274540763742  1.0000
  C   C18       1.0  0.6242772050970159  0.4651036374272977  0.8502719740746018  1.0000
  C   C19       1.0  0.12370729969453008  0.4647145144510391  0.6495897990526842  1.0000
  C   C20       1.0  0.37581487002365316  0.5348735355728352  0.149747071644704  1.0000
  N   N1        1.0  0.0454538833747833  0.7625639027526677  0.3697374896901664  1.0000
  N   N2        1.0  0.455191460974838  0.23721502905738842  0.8699289207412663  1.0000
  N   N3        1.0  0.9553342686117432  0.23659853428738842  0.6299108393859854  1.0000
  N   N4        1.0  0.5449279253399836  0.7627263708014811  0.1305501561142108  1.0000
  N   N5        1.0  0.31683067340448184  0.07786441604524441  0.41094981400480174  1.0000
  N   N6        1.0  0.1839035655059007  0.922035952846294  0.9103114266116138  1.0000
  N   N7        1.0  0.6868255062546851  0.9194953453531344  0.5865972281772542  1.0000
  N   N8        1.0  0.8158197956423762  0.0777362254090761  0.08998297056853488  1.0000
  N   N9        1.0  0.35853884152652427  0.8516871622837601  0.4694934174315081  1.0000
  N   N10       1.0  0.14076750411734198  0.14942689037825832  0.9675760947200303  1.0000
  N   N11       1.0  0.6403451894721783  0.15072337816100406  0.5327713023484151  1.0000
  N   N12       1.0  0.8587551817252573  0.850495068626387  0.032123744681158  1.0000
  N   N13       1.0  0.9620041354334176  0.03479816923611172  0.37290921962920714  1.0000
  N   N14       1.0  0.5372773080926194  0.9650828715012525  0.8722075655478535  1.0000
  N   N15       1.0  0.03654959038648539  0.966514850605073  0.6279458915814259  1.0000
  N   N16       1.0  0.46097617703138377  0.0344199368632232  0.1262154206496007  1.0000
  N   N17       1.0  0.20566063781596  0.9472740020683621  0.18749543028096127  1.0000
  N   N18       1.0  0.29411684605690874  0.053343558888173014  0.6856515887446477  1.0000
  N   N19       1.0  0.7931421735378165  0.053140771225628214  0.8131893075134542  1.0000
  N   N20       1.0  0.7057836731303978  0.9475402367364228  0.3127727873013413  1.0000
  N   N21       1.0  0.3129485073249114  0.17453390425015416  0.35477282610122535  1.0000
  N   N22       1.0  0.18800415403716636  0.8252522438244795  0.8544324525418219  1.0000
  N   N23       1.0  0.6892208168540535  0.8252471747973548  0.6456459255872602  1.0000
  N   N24       1.0  0.8118721359283682  0.17480789522182502  0.1454296333679395  1.0000
  N   N25       1.0  0.3818813234828226  0.7425870680267225  0.49610966004378554  1.0000
  N   N26       1.0  0.11801306705557829  0.25810869505419726  0.9955765033214449  1.0000
  N   N27       1.0  0.617686912145082  0.25912544723379943  0.5049487381903006  1.0000
  N   N28       1.0  0.881985882427884  0.7418355804658321  0.0043244472592362995  1.0000
  N   N29       1.0  0.8345339558754999  0.9891786702141944  0.3417962913867285  1.0000
  N   N30       1.0  0.6646377431723778  0.011177554812114502  0.8417438036324184  1.0000
  N   N31       1.0  0.16479875652485987  0.012067939025364204  0.6576897752619004  1.0000
  N   N32       1.0  0.33400811440058925  0.9888428335578184  0.1579889059159925  1.0000
  N   N33       1.0  0.3036569124585782  0.26630674459337905  0.3012298587750095  1.0000
  N   N34       1.0  0.19685130371920678  0.7331869002762944  0.8012426052662037  1.0000
  N   N35       1.0  0.6975857721933422  0.734452114747576  0.7008446897141809  1.0000
  N   N36       1.0  0.8031518850618653  0.2671452133840192  0.19824486399852498  1.0000
  N   N37       1.0  0.40263653600818117  0.6379045035376124  0.519800962543215  1.0000
  N   N38       1.0  0.09710548169159948  0.3624227044512055  0.0206044073283635  1.0000
  N   N39       1.0  0.5971040504300832  0.363624291878658  0.4799860899232655  1.0000
  N   N40       1.0  0.903175360068225  0.6374818723373182  0.9795250581803358  1.0000
