data_image0
_chemical_formula_structural       Cu2H22C32I2N10
_chemical_formula_sum              "Cu2 H22 C32 I2 N10"
_cell_length_a       9.034082438249595
_cell_length_b       9.42699206685176
_cell_length_c       10.229070341167633
_cell_angle_alpha    71.948975253534
_cell_angle_beta     71.54062822627681
_cell_angle_gamma    67.65043730554737

_space_group_name_H-M_alt    "P 1"
_space_group_IT_number       1

loop_
  _space_group_symop_operation_xyz
  'x, y, z'

loop_
  _atom_site_type_symbol
  _atom_site_label
  _atom_site_symmetry_multiplicity
  _atom_site_fract_x
  _atom_site_fract_y
  _atom_site_fract_z
  _atom_site_occupancy
  Cu  Cu1       1.0  0.5208236987365141  0.9653971675054366  0.8820560501649338  1.0000
  Cu  Cu2       1.0  0.4791774973755451  0.03460016011889171  0.11794829242909095  1.0000
  H   H1        1.0  0.16341498350584518  0.6060469031063177  0.0022782192790345465  1.0000
  H   H2        1.0  0.8365807904783297  0.39395282509030244  0.997725958532669  1.0000
  H   H3        1.0  0.1235921167606478  0.6662419220016886  0.7576092785281786  1.0000
  H   H4        1.0  0.8764068439635865  0.33376245288125966  0.24239465604555469  1.0000
  H   H5        1.0  0.4265796486326465  0.9686693670683444  0.6331253787601766  1.0000
  H   H6        1.0  0.5734223414494721  0.031329122083612  0.3668793926221667  1.0000
  H   H7        1.0  0.13476815117389412  0.9613915759199686  0.12612849646384205  1.0000
  H   H8        1.0  0.8652369804274402  0.03860804949642469  0.873875086101897  1.0000
  H   H9        1.0  0.3415945777897066  0.7269363666460081  0.0486863655648335  1.0000
  H   H10       1.0  0.6584046478627598  0.2730598119383317  0.9513188466411364  1.0000
  H   H11       1.0  0.9179435937932608  0.826202671516363  0.2384511596506728  1.0000
  H   H12       1.0  0.08205965600861732  0.17379931758522818  0.7615464045407309  1.0000
  H   H13       1.0  0.8121992065825199  0.6541909897352268  0.3286079358213739  1.0000
  H   H14       1.0  0.18780301147062053  0.3458180355768974  0.6713830259714016  1.0000
  H   H15       1.0  0.8365285084118029  0.6907381694749547  0.7323441162262155  1.0000
  H   H16       1.0  0.1634613813431542  0.30925811304126677  0.2676577744432508  1.0000
  H   H17       1.0  0.5402755294978904  0.4353593987565034  0.7134527153352367  1.0000
  H   H18       1.0  0.45972268434393737  0.5646403090714217  0.2865331985460955  1.0000
  H   H19       1.0  0.6459647677745154  0.53678798929824  0.8519955531710082  1.0000
  H   H20       1.0  0.35402863337775153  0.46320474677273177  0.14799660074096013  1.0000
  H   H21       1.0  0.6247788923011373  0.5003512598219616  0.44849741945753857  1.0000
  H   H22       1.0  0.3752210270720512  0.49965779334456073  0.551486347179612  1.0000
  C   C1        1.0  0.2200118720986951  0.6859069790706299  0.9177240567028165  1.0000
  C   C2        1.0  0.7799862331449036  0.31409272299906377  0.08228144109082082  1.0000
  C   C3        1.0  0.1978991473453179  0.7186392849169535  0.7812932489974003  1.0000
  C   C4        1.0  0.802100185038576  0.28136391537490374  0.2187109167789884  1.0000
  C   C5        1.0  0.275270450847522  0.8201714169371357  0.6753294413637788  1.0000
  C   C6        1.0  0.7247300525959945  0.1798317705791703  0.32467440520795776  1.0000
  C   C7        1.0  0.36678736140270735  0.8874963822512355  0.7125011177270792  1.0000
  C   C8        1.0  0.633212714300484  0.11250446885844671  0.28750351045460576  1.0000
  C   C9        1.0  0.11036730140219936  0.9054919032320825  0.2377874762059379  1.0000
  C   C10       1.0  0.8896350657694897  0.0945054116167015  0.7622165471834349  1.0000
  C   C11       1.0  0.20243841338567856  0.9090348028548335  0.32402459096352487  1.0000
  C   C12       1.0  0.7975654965052785  0.09096132462730822  0.675979344423851  1.0000
  C   C13       1.0  0.8414742764338146  0.6816597133556356  0.5216454462089288  1.0000
  C   C14       1.0  0.15852774622777596  0.31833877752379175  0.47835344999972323  1.0000
  C   C15       1.0  0.26871346723983464  0.863231667538585  0.5275998068904499  1.0000
  C   C16       1.0  0.7312862368037046  0.13677035816218816  0.47240459008858693  1.0000
  C   C17       1.0  0.31698499447718836  0.7535606432838335  0.9445221440072873  1.0000
  C   C18       1.0  0.6830150757960923  0.24644020753793688  0.05548346337001676  1.0000
  C   C19       1.0  0.9923870406704228  0.8320395391549339  0.300982276415894  1.0000
  C   C20       1.0  0.007615815752153317  0.1679636233860933  0.6990189733553152  1.0000
  C   C21       1.0  0.9631558271105618  0.7661211231946937  0.4501868723940064  1.0000
  C   C22       1.0  0.036844270312279534  0.23387972906663626  0.5498138390052176  1.0000
  C   C23       1.0  0.7777803809917431  0.629151986397403  0.4435466210718317  1.0000
  C   C24       1.0  0.22222055927035467  0.3708500299827548  0.5564457063551771  1.0000
  C   C25       1.0  0.7927490907166831  0.646560267123334  0.6699653316247661  1.0000
  C   C26       1.0  0.20724858500504695  0.35343359042114025  0.33003216863527024  1.0000
  C   C27       1.0  0.6245218517578978  0.5042798101517719  0.6590780293373513  1.0000
  C   C28       1.0  0.37547708911349537  0.49571754763024245  0.3409112845361264  1.0000
  C   C29       1.0  0.6855266081652687  0.5588020986953025  0.7373605844842643  1.0000
  C   C30       1.0  0.31447342596543143  0.44119173416180496  0.2626333397796259  1.0000
  C   C31       1.0  0.6706557833633795  0.5409827259398554  0.5119789771172165  1.0000
  C   C32       1.0  0.3293451623286289  0.45901929072821446  0.4880123711141735  1.0000
  I   I1        1.0  0.7008053159192972  0.7631705797587853  0.05783804093278624  1.0000
  I   I2        1.0  0.299192377873716  0.23682678676802027  0.942165300883957  1.0000
  N   N1        1.0  0.3878781920056866  0.8554279022764747  0.8437889515946821  1.0000
  N   N2        1.0  0.6121226215868989  0.14457059936312078  0.1562171181879251  1.0000
  N   N3        1.0  0.16204057805862965  0.8445883261401832  0.4679179480440681  1.0000
  N   N4        1.0  0.8379602518236953  0.15541017636314788  0.5320851841516899  1.0000
  N   N5        1.0  0.3289696066287675  0.9623433553724252  0.29954003601480406  1.0000
  N   N6        1.0  0.6710308407340762  0.03765632114617289  0.7004648233695363  1.0000
  N   N7        1.0  0.04524351550711717  0.7745873418006822  0.5332741182337913  1.0000
  N   N8        1.0  0.9547577366856145  0.2254134968213606  0.4667292115476299  1.0000
  N   N9        1.0  0.3685092892771492  0.9337642101866168  0.42503524076357735  1.0000
  N   N10       1.0  0.631487323897936  0.06624018995952241  0.5749703114150719  1.0000
