data_image0
_chemical_formula_structural       Co6H18C24O24
_chemical_formula_sum              "Co6 H18 C24 O24"
_cell_length_a       6.577337147370613
_cell_length_b       15.308316419020235
_cell_length_c       15.311556708627649
_cell_angle_alpha    117.98527109459936
_cell_angle_beta     98.22043579177274
_cell_angle_gamma    98.24689477827089

_space_group_name_H-M_alt    "P 1"
_space_group_IT_number       1

loop_
  _space_group_symop_operation_xyz
  'x, y, z'

loop_
  _atom_site_type_symbol
  _atom_site_label
  _atom_site_symmetry_multiplicity
  _atom_site_fract_x
  _atom_site_fract_y
  _atom_site_fract_z
  _atom_site_occupancy
  Co  Co1       1.0  0.6281580652972636  0.5994632180902784  0.32077505062122197  1.0000
  Co  Co2       1.0  0.028598776411776328  0.7212610946674188  0.40042270775039396  1.0000
  Co  Co3       1.0  0.3074770488621185  0.6791557764067023  0.2786949037247978  1.0000
  Co  Co4       1.0  0.37183973102891343  0.4005379211412503  0.679224583742936  1.0000
  Co  Co5       1.0  0.9713959354832583  0.27874004434575983  0.5995780381411392  1.0000
  Co  Co6       1.0  0.6925295832816971  0.3208446009033422  0.7213049311790484  1.0000
  H   H1        1.0  0.8383113292347204  0.45055126129965123  0.2671319514522708  1.0000
  H   H2        1.0  0.3876373079860258  0.8163744239035892  0.5491930303178945  1.0000
  H   H3        1.0  0.5714346416876952  0.7326738048305687  0.18338828151474462  1.0000
  H   H4        1.0  0.16172314399215537  0.549461314096554  0.7328498820859294  1.0000
  H   H5        1.0  0.6123400434034068  0.1836411956122816  0.4508160152676481  1.0000
  H   H6        1.0  0.42853413974941656  0.26731209139888523  0.8165899737931281  1.0000
  H   H7        1.0  0.605755346926827  0.41205943969517034  0.2664361512727709  1.0000
  H   H8        1.0  0.19380983231881288  0.8542775430203305  0.5878644031121423  1.0000
  H   H9        1.0  0.33967058036216724  0.7335697249399048  0.14577829358345434  1.0000
  H   H10       1.0  0.3943069193167192  0.5879386520184654  0.7335726538664814  1.0000
  H   H11       1.0  0.8061437642160526  0.1457152103550428  0.4121356992326993  1.0000
  H   H12       1.0  0.6602999092210169  0.2664291264807943  0.854223771390451  1.0000
  H   H13       1.0  0.879321345130755  0.021677245624786696  0.5681834556909989  1.0000
  H   H14       1.0  0.8576333324724104  0.5466009620484584  0.9782767333943311  1.0000
  H   H15       1.0  0.31106864472395307  0.43175867481398456  0.453436147128876  1.0000
  H   H16       1.0  0.12066603686242432  0.978324655024643  0.4318204500612523  1.0000
  H   H17       1.0  0.14238522469351272  0.45339255599098743  0.021721294126343972  1.0000
  H   H18       1.0  0.6889295025283957  0.5682432262710151  0.5465671317476292  1.0000
  C   C1        1.0  0.6862936767343937  0.8272502641055438  0.4481162863904585  1.0000
  C   C2        1.0  0.8591413677701213  0.6208385539377446  0.17267799159677108  1.0000
  C   C3        1.0  0.23816548324908385  0.5518089627170824  0.3790924532108234  1.0000
  C   C4        1.0  0.3136991178190413  0.1727501126820457  0.5518839815284835  1.0000
  C   C5        1.0  0.14087066355737932  0.3791542017457914  0.8273192671603339  1.0000
  C   C6        1.0  0.7618357423844415  0.4481929385205419  0.6209103668323194  1.0000
  C   C7        1.0  0.584992863510216  0.9136610557768204  0.4726985368829515  1.0000
  C   C8        1.0  0.6714221200635748  0.5590379185165801  0.0863054776924486  1.0000
  C   C9        1.0  0.11228503187796687  0.5272659960071593  0.4409334141352446  1.0000
  C   C10       1.0  0.414990291162148  0.08634160692442795  0.5273054591205906  1.0000
  C   C11       1.0  0.3286010341375487  0.44095864833832366  0.9136942678579698  1.0000
  C   C12       1.0  0.8877200102888665  0.4727374294844252  0.55907231993514  1.0000
  C   C13       1.0  0.3652066413999435  0.9000330722415271  0.43207832859887657  1.0000
  C   C14       1.0  0.4652389175859923  0.5319847767537452  0.09994070758697393  1.0000
  C   C15       1.0  0.9330849924603369  0.5678853289259536  0.46792533020769855  1.0000
  C   C16       1.0  0.6347761381463854  0.0999688283433144  0.5679246336683761  1.0000
  C   C17       1.0  0.5347869223586912  0.4680140767567664  0.9000596253265768  1.0000
  C   C18       1.0  0.06691508423354259  0.432117334516107  0.5320771212533726  1.0000
  C   C19       1.0  0.7122786154971192  0.012188022402113996  0.5384034056282728  1.0000
  C   C20       1.0  0.7001049128281522  0.5262695364585214  0.9877949828705324  1.0000
  C   C21       1.0  0.17385791554931274  0.4615793394348202  0.47376001247325655  1.0000
  C   C22       1.0  0.28770530693888935  0.9878131159125516  0.461600577915064  1.0000
  C   C23       1.0  0.2999178601969703  0.47372626821424296  0.01220438163761629  1.0000
  C   C24       1.0  0.8261456092401217  0.5384271350271276  0.5262437884354867  1.0000
  O   O1        1.0  0.5604366359063206  0.7366225287996001  0.4024758253248776  1.0000
  O   O2        1.0  0.8239209540538042  0.665647544977645  0.26329942629343606  1.0000
  O   O3        1.0  0.15811566828837442  0.5975659942950031  0.3342280534508787  1.0000
  O   O4        1.0  0.43955772506254226  0.2633778483601077  0.5975212760543158  1.0000
  O   O5        1.0  0.176088791494351  0.3343467352462284  0.7366957899114934  1.0000
  O   O6        1.0  0.8418844198671208  0.4024336204619274  0.665772970771428  1.0000
  O   O7        1.0  0.8853144786735214  0.8418478772321975  0.4729682760319987  1.0000
  O   O8        1.0  0.043587968787434754  0.6312098180855371  0.15810132504986987  1.0000
  O   O9        1.0  0.4122808702156675  0.526910144091964  0.3687627638403157  1.0000
  O   O10       1.0  0.11467636351514433  0.1581578345685982  0.5270356737798918  1.0000
  O   O11       1.0  0.956425936893602  0.3687806505468386  0.8419008586871966  1.0000
  O   O12       1.0  0.5877180514886078  0.47309328148879354  0.631239971732704  1.0000
  O   O13       1.0  0.22914285499724926  0.8097537140881738  0.3672515211532709  1.0000
  O   O14       1.0  0.41940601648796866  0.5575027339555304  0.19020751947957132  1.0000
  O   O15       1.0  0.8617426561310567  0.6326425453430745  0.44240619260304465  1.0000
  O   O16       1.0  0.7708472544509349  0.19024742486041654  0.6327482812532707  1.0000
  O   O17       1.0  0.5806071711057755  0.4424953572225049  0.8097896988670497  1.0000
  O   O18       1.0  0.13825474691919482  0.36735783157484286  0.5575943661068692  1.0000
  O   O19       1.0  0.6916190180342454  0.44541101652257703  0.23852791993708408  1.0000
  O   O20       1.0  0.24607038187262023  0.7929661920391167  0.5543891445131944  1.0000
  O   O21       1.0  0.4535320820623242  0.7614056170990012  0.20696536752195258  1.0000
  O   O22       1.0  0.30839568885182433  0.5545931721348935  0.7614715971233749  1.0000
  O   O23       1.0  0.7539139277893554  0.20703570852342784  0.44561456737839916  1.0000
  O   O24       1.0  0.5464588671107791  0.23859094943522757  0.793026468245479  1.0000
