data_image0
_chemical_formula_structural       Zn8H32C68O26F8
_chemical_formula_sum              "Zn8 H32 C68 O26 F8"
_cell_length_a       22.23782090143761
_cell_length_b       22.324962905415084
_cell_length_c       22.23797310283399
_cell_angle_alpha    109.5858821037996
_cell_angle_beta     109.08660151405425
_cell_angle_gamma    109.5856343741409

_space_group_name_H-M_alt    "P 1"
_space_group_IT_number       1

loop_
  _space_group_symop_operation_xyz
  'x, y, z'

loop_
  _atom_site_type_symbol
  _atom_site_label
  _atom_site_symmetry_multiplicity
  _atom_site_fract_x
  _atom_site_fract_y
  _atom_site_fract_z
  _atom_site_occupancy
  Zn  Zn1       1.0  0.5434971026444373  0.9362741307284851  0.9820931605957027  1.0000
  Zn  Zn2       1.0  0.9820911270110102  0.9362734542715782  0.5434951722180371  1.0000
  Zn  Zn3       1.0  0.9541681342688052  0.936274545144123  0.3927681377680017  1.0000
  Zn  Zn4       1.0  0.3927705498775964  0.9362771216310576  0.9541687998545855  1.0000
  Zn  Zn5       1.0  0.5195295329970692  0.06331729281404119  0.9575538456419039  1.0000
  Zn  Zn6       1.0  0.9575542469958622  0.06331550855298945  0.5195298318561329  1.0000
  Zn  Zn7       1.0  0.10576366839168828  0.06331156118974951  0.5437834072455487  1.0000
  Zn  Zn8       1.0  0.5437828546438368  0.06331248846834114  0.10576345151249458  1.0000
  H   H1        1.0  0.18208154587921385  0.5687725170059179  0.7580028519128417  1.0000
  H   H2        1.0  0.7579953498331448  0.5687732867630331  0.1820847655578034  1.0000
  H   H3        1.0  0.8107774506111625  0.5687892576022762  0.3866923654693365  1.0000
  H   H4        1.0  0.3866903110706871  0.5687883668951201  0.810767330978578  1.0000
  H   H5        1.0  0.3179528677485521  0.07236131953284537  0.38675176158753993  1.0000
  H   H6        1.0  0.386751054244094  0.07235994325647255  0.3179508255853137  1.0000
  H   H7        1.0  0.6880705919932311  0.0747128611664537  0.756878701661435  1.0000
  H   H8        1.0  0.7568758017043252  0.07470917108282285  0.6880702820796712  1.0000
  H   H9        1.0  0.11344055409143283  0.431519415432831  0.689440263072022  1.0000
  H   H10       1.0  0.6894336528119354  0.43152035045901016  0.11344106090479757  1.0000
  H   H11       1.0  0.7420886729227121  0.4315346338996163  0.3180826558822716  1.0000
  H   H12       1.0  0.31808199036132107  0.43153560803954594  0.7420837527935757  1.0000
  H   H13       1.0  0.663500596347383  0.8863420253530664  0.13294984165896315  1.0000
  H   H14       1.0  0.1329557713701917  0.8863433680060098  0.6634979739429312  1.0000
  H   H15       1.0  0.7533771891670256  0.8863413725771992  0.22283387575912883  1.0000
  H   H16       1.0  0.2228414264827379  0.8863440760331399  0.7533782263307386  1.0000
  H   H17       1.0  0.7567839400217693  0.9895756039542007  0.14195694538786083  1.0000
  H   H18       1.0  0.14195482951361535  0.9895656929399903  0.756779843316522  1.0000
  H   H19       1.0  0.847611708772483  0.9895756276667742  0.2327898696976475  1.0000
  H   H20       1.0  0.23278586134498624  0.9895662364089335  0.8476045633425713  1.0000
  H   H21       1.0  0.7337072116199294  0.10801286601667215  0.28437200809432994  1.0000
  H   H22       1.0  0.2843743322838391  0.10802055729100604  0.7337219986199698  1.0000
  H   H23       1.0  0.8236376582718634  0.1080143006427365  0.37430308337310686  1.0000
  H   H24       1.0  0.37429843005808994  0.10802170218364894  0.8236464095022028  1.0000
  H   H25       1.0  0.7868047760146553  0.08113705953034875  0.20380492782749118  1.0000
  H   H26       1.0  0.20379748032777203  0.08113219705207807  0.7868054690654986  1.0000
  H   H27       1.0  0.877332817327833  0.0811391308190396  0.2943357664409447  1.0000
  H   H28       1.0  0.29433165948933043  0.08113380764530828  0.87733500579467  1.0000
  H   H29       1.0  0.1820617993527732  0.92684583615339  0.11324856777518016  1.0000
  H   H30       1.0  0.11324889882251181  0.9268467870992011  0.1820638994895275  1.0000
  H   H31       1.0  0.8112695002969517  0.924686269018757  0.7424565434454208  1.0000
  H   H32       1.0  0.7424613720101475  0.9246881377168918  0.811272840984799  1.0000
  C   C1        1.0  0.3604841437525651  0.9995566842278832  0.8598795712340673  1.0000
  C   C2        1.0  0.8598791204596736  0.999555679833314  0.36048162661082017  1.0000
  C   C3        1.0  0.13966938047082028  0.9995534600709487  0.6390671452021548  1.0000
  C   C4        1.0  0.6390675586559668  0.9995540015605967  0.13966986596197734  1.0000
  C   C5        1.0  0.32737691342015285  0.6547779507670696  0.8273766760403801  1.0000
  C   C6        1.0  0.8273799803057713  0.6547761619578125  0.3273762913046738  1.0000
  C   C7        1.0  0.3607970809134499  0.7216213749762872  0.8608006231114943  1.0000
  C   C8        1.0  0.8607999382369657  0.7216188357663923  0.36079362162734424  1.0000
  C   C9        1.0  0.13929598722710776  0.2785764547242735  0.6392811482355967  1.0000
  C   C10       1.0  0.6392790820288781  0.2785766763686297  0.13929561481396033  1.0000
  C   C11       1.0  0.6727630234041443  0.9208835761484407  0.18746853836454136  1.0000
  C   C12       1.0  0.18747301013082998  0.9208838728031734  0.6727613216430652  1.0000
  C   C13       1.0  0.7333977804715985  0.9208818867193856  0.24810663843550873  1.0000
  C   C14       1.0  0.24811124033011092  0.9208834535405402  0.7333982840228614  1.0000
  C   C15       1.0  0.768779148145356  0.025919340066764187  0.1970691177371151  1.0000
  C   C16       1.0  0.1970668037442636  0.02591619967932251  0.7687797182585214  1.0000
  C   C17       1.0  0.8288453863108672  0.025920193428738973  0.25713734189620396  1.0000
  C   C18       1.0  0.25713508508785315  0.025916899422796333  0.828844959339463  1.0000
  C   C19       1.0  0.7145701358536274  0.05252818870398817  0.2772729023553566  1.0000
  C   C20       1.0  0.2772746954866392  0.05253386132363858  0.7145763732640659  1.0000
  C   C21       1.0  0.7752475552263931  0.05252840514952351  0.3379511858558574  1.0000
  C   C22       1.0  0.33795443556007837  0.05253364854583249  0.7752552687417021  1.0000
  C   C23       1.0  0.6966266713167996  0.999334828400471  0.20058005887877775  1.0000
  C   C24       1.0  0.20057989869706425  0.9993325122568063  0.6966279038084477  1.0000
  C   C25       1.0  0.7987450259967018  0.9993356440775967  0.30270116311299233  1.0000
  C   C26       1.0  0.3027022013667989  0.9993350726607985  0.798746836052011  1.0000
  C   C27       1.0  0.1730378430576918  0.9586313419447163  0.21127637717548703  1.0000
  C   C28       1.0  0.21127634549029736  0.9586313764036305  0.17303775602220386  1.0000
  C   C29       1.0  0.7460820542979361  0.9574636593339249  0.7843209753348857  1.0000
  C   C30       1.0  0.784318851699538  0.9574625456598224  0.7460791629599794  1.0000
  C   C31       1.0  0.21119336528104088  0.9998272073666284  0.2887770404522102  1.0000
  C   C32       1.0  0.2887769237155379  0.999826544278953  0.21119391277552058  1.0000
  C   C33       1.0  0.7111398166651243  0.99993293270159  0.7887197110928597  1.0000
  C   C34       1.0  0.7887175827343357  0.999931428699071  0.7111384586625888  1.0000
  C   C35       1.0  0.2886999527041922  0.04083865422768443  0.3269527629020317  1.0000
  C   C36       1.0  0.32695201331688395  0.04083741456151561  0.2886983467960462  1.0000
  C   C37       1.0  0.7153592309383682  0.042252904367110544  0.7536154261595485  1.0000
  C   C38       1.0  0.7536112286694349  0.04224886249647849  0.7153582464896572  1.0000
  C   C39       1.0  0.5999745713429334  0.00010201544137100183  0.9021232576022696  1.0000
  C   C40       1.0  0.9021244842665936  0.00010400729738076916  0.5999738707232749  1.0000
  C   C41       1.0  0.0979804083266345  0.00011069542294000356  0.4001341241457084  1.0000
  C   C42       1.0  0.40013107528627506  0.00010905795873132168  0.09797836385656918  1.0000
  C   C43       1.0  0.17197766317455163  0.9999135694173089  0.3275850696096113  1.0000
  C   C44       1.0  0.3275840457249116  0.9999118960145025  0.1719759772379064  1.0000
  C   C45       1.0  0.672360855922946  0.9999518680242685  0.8279671331335904  1.0000
  C   C46       1.0  0.8279692746162438  0.9999538691752503  0.6723590435642774  1.0000
  C   C47       1.0  0.3606571658048096  0.9998605716825749  0.13779773361095948  1.0000
  C   C48       1.0  0.13779855633214294  0.9998604902025788  0.36065704480729716  1.0000
  C   C49       1.0  0.8620675393893722  0.9998726745680956  0.6392096153777871  1.0000
  C   C50       1.0  0.6392082574224104  0.9998675400488608  0.862063856685907  1.0000
  C   C51       1.0  0.5998416587126627  0.19970506405353206  0.09986042086372039  1.0000
  C   C52       1.0  0.09986545413986647  0.1997045806693336  0.5998472131568988  1.0000
  C   C53       1.0  0.4002338519753226  0.8004841063340464  0.9002389070844145  1.0000
  C   C54       1.0  0.9002370518475187  0.8004802654573593  0.40022977989764263  1.0000
  C   C55       1.0  0.17317311116806883  0.4621089997915391  0.7161536761785711  1.0000
  C   C56       1.0  0.7161503596479973  0.46210989552329096  0.17317300241555955  1.0000
  C   C57       1.0  0.7459621197186692  0.4621237283700026  0.28894026682917934  1.0000
  C   C58       1.0  0.2889399964477377  0.4621223355244268  0.7459538450606615  1.0000
  C   C59       1.0  0.21153145518555755  0.423060834049373  0.711526775339088  1.0000
  C   C60       1.0  0.7115288629933402  0.4230599805713452  0.21153025694120223  1.0000
  C   C61       1.0  0.32695528902104337  0.5381821220714329  0.7839993837510447  1.0000
  C   C62       1.0  0.7840109320973099  0.538184058444692  0.3269559962244414  1.0000
  C   C63       1.0  0.7541640790105574  0.5381703101551095  0.21121599144333902  1.0000
  C   C64       1.0  0.21121393741032787  0.538170694298408  0.7541668119608571  1.0000
  C   C65       1.0  0.28860866584330575  0.5772260893282564  0.7886062070130462  1.0000
  C   C66       1.0  0.7886070323584988  0.5772223568365077  0.28860543351217416  1.0000
  C   C67       1.0  0.17273140673744794  0.3454570084893263  0.6727212314936466  1.0000
  C   C68       1.0  0.6727203603977967  0.3454570450148111  0.17272945160005548  1.0000
  O   O1        1.0  0.4994871621754626  0.9989718572300603  0.9994814544512279  1.0000
  O   O2        1.0  0.9994793927985481  0.9989685854714238  0.49948378221114326  1.0000
  O   O3        1.0  0.3364017536100832  0.9498290614567395  0.8755199216038249  1.0000
  O   O4        1.0  0.8755210313164237  0.9498312679583305  0.33640373709321353  1.0000
  O   O5        1.0  0.07429527560703508  0.949837276030969  0.6134244065988311  1.0000
  O   O6        1.0  0.6134267458885391  0.9498395868552764  0.07429469484483775  1.0000
  O   O7        1.0  0.5734683284272181  0.04310101639925532  0.9067168573028894  1.0000
  O   O8        1.0  0.9067157599442908  0.04310583650084957  0.5734691905866214  1.0000
  O   O9        1.0  0.1364150453768715  0.043076455440370885  0.46965192931100563  1.0000
  O   O10       1.0  0.4696499563294338  0.04307481655089156  0.13641239362377885  1.0000
  O   O11       1.0  0.5767841902897429  0.16860040638341905  0.030845266209809062  1.0000
  O   O12       1.0  0.030848754821668906  0.16860159204524192  0.5767851970121781  1.0000
  O   O13       1.0  0.1377751460426424  0.1686024117378153  0.5917971371196485  1.0000
  O   O14       1.0  0.591796495825598  0.16860398156155298  0.13777235833786244  1.0000
  O   O15       1.0  0.3620684490640826  0.831492580461294  0.907249492855918  1.0000
  O   O16       1.0  0.907246132358736  0.8314914332047392  0.3620671114542231  1.0000
  O   O17       1.0  0.924236211805578  0.831482640060429  0.4694064163388703  1.0000
  O   O18       1.0  0.46941091606463914  0.8314838144127992  0.9242375510839977  1.0000
  O   O19       1.0  0.595864075009402  0.9575536205237825  0.9292060272795764  1.0000
  O   O20       1.0  0.9292068263652027  0.9575548507327838  0.5958654651159562  1.0000
  O   O21       1.0  0.028335888484249793  0.9576075822241489  0.3616815606051631  1.0000
  O   O22       1.0  0.36168109450542835  0.9576063311612232  0.02833376765587304  1.0000
  O   O23       1.0  0.42638853841112473  0.0504669767528725  0.8912203115944024  1.0000
  O   O24       1.0  0.8912164008892489  0.050461041505272336  0.42638358205055477  1.0000
  O   O25       1.0  0.15924277498360342  0.05046982606164363  0.6240876191861275  1.0000
  O   O26       1.0  0.6240877285326789  0.0504705173074456  0.15924430519589083  1.0000
  F   F1        1.0  0.6057790382452523  0.8901675999963031  0.18583061360849468  1.0000
  F   F2        1.0  0.18584165854627316  0.8901735846970096  0.6057814845835877  1.0000
  F   F3        1.0  0.7043152591721621  0.8901630641208839  0.28437127894184744  1.0000
  F   F4        1.0  0.28438148442526767  0.8901720952058412  0.7043216537847953  1.0000
  F   F5        1.0  0.6521546129751171  0.03417322470452434  0.2850224348910543  1.0000
  F   F6        1.0  0.2850291622258325  0.03418977367419981  0.65216323581879  1.0000
  F   F7        1.0  0.7491377481296412  0.03417076045133871  0.38200653586532946  1.0000
  F   F8        1.0  0.3820224553924803  0.03419139583574799  0.7491551735204851  1.0000
