data_image0
_chemical_formula_structural       AlH21C45O6F6
_chemical_formula_sum              "Al1 H21 C45 O6 F6"
_cell_length_a       3.942431131433167
_cell_length_b       23.56710622260267
_cell_length_c       23.565007953947596
_cell_angle_alpha    60.06063261204966
_cell_angle_beta     87.13837929682383
_cell_angle_gamma    86.87946418196634

_space_group_name_H-M_alt    "P 1"
_space_group_IT_number       1

loop_
  _space_group_symop_operation_xyz
  'x, y, z'

loop_
  _atom_site_type_symbol
  _atom_site_label
  _atom_site_symmetry_multiplicity
  _atom_site_fract_x
  _atom_site_fract_y
  _atom_site_fract_z
  _atom_site_occupancy
  Al  Al1       1.0  0.9959701729809538  0.4997819699787414  0.5002825814098275  1.0000
  H   H1        1.0  0.5006559373266837  0.3202989295706473  0.6802180978959671  1.0000
  H   H2        1.0  0.5020890245958965  0.25703739824598415  0.8012120292777496  1.0000
  H   H3        1.0  0.8407348112373967  0.1648475901184128  0.013005722002567681  1.0000
  H   H4        1.0  0.4848054105977439  0.8041035648997763  0.25654077632114536  1.0000
  H   H5        1.0  0.23581788132631226  0.8968021675489196  0.22709602680201627  1.0000
  H   H6        1.0  0.24453939502877378  0.016293788406805707  0.16529513171673227  1.0000
  H   H7        1.0  0.5235214266975559  0.10632483649002472  0.10493190965586052  1.0000
  H   H8        1.0  0.5318645981020111  0.6789211769944927  0.49874908128335715  1.0000
  H   H9        1.0  0.5316525087214644  0.7996623737618904  0.4419487583233774  1.0000
  H   H10       1.0  0.8189077667943181  0.012504972139794302  0.31871779399379824  1.0000
  H   H11       1.0  0.5563819069190925  0.2565657667268582  0.4381538949809994  1.0000
  H   H12       1.0  0.2687709275153267  0.23017592077850677  0.37903446281036685  1.0000
  H   H13       1.0  0.26088590148313534  0.16791674744821714  0.32139671243066914  1.0000
  H   H14       1.0  0.544794890924038  0.1051716081291829  0.2877996705174297  1.0000
  H   H15       1.0  0.5840780132681118  0.4991056731296979  0.32050251665850044  1.0000
  H   H16       1.0  0.5834254001999569  0.4419477419402469  0.25666296486775764  1.0000
  H   H17       1.0  0.8618078598947391  0.3155429584654144  0.16333469610410845  1.0000
  H   H18       1.0  0.5128699560907675  0.43884344442449225  0.8046521707380451  1.0000
  H   H19       1.0  0.2136602045945963  0.3783620400211305  0.8969029109380388  1.0000
  H   H20       1.0  0.22343687653962255  0.32003625163324756  0.01708431849600341  1.0000
  H   H21       1.0  0.5468718886463647  0.2878147449733532  0.10605191771091434  1.0000
  C   C1        1.0  0.4830692269659025  0.45087002292702744  0.6012375774611627  1.0000
  C   C2        1.0  0.5270361754592231  0.44793186431147797  0.45096870086780433  1.0000
  C   C3        1.0  0.48088271889691475  0.6005939881798241  0.4481463057547543  1.0000
  C   C4        1.0  0.49803625886650577  0.3456479723864163  0.7082860679698302  1.0000
  C   C5        1.0  0.503477496442784  0.310199503496051  0.7762332405546604  1.0000
  C   C6        1.0  0.6857176073548672  0.24496191024047684  0.9212819000416631  1.0000
  C   C7        1.0  0.6938318383805181  0.21095188872461532  0.989012450623811  1.0000
  C   C8        1.0  0.4621636065734265  0.7109347944562714  0.34329753394550994  1.0000
  C   C9        1.0  0.4829103557866361  0.7785523462997617  0.3098729425885765  1.0000
  C   C10       1.0  0.371894100062093  0.9220359653220384  0.2466532580126072  1.0000
  C   C11       1.0  0.3767596978422247  0.9899649377655136  0.21144734116387554  1.0000
  C   C12       1.0  0.48391503345840203  0.4143147259828694  0.6742860590105195  1.0000
  C   C13       1.0  0.5086944907598789  0.3424555937972046  0.8128282605406199  1.0000
  C   C14       1.0  0.5186664793403253  0.30627549494487033  0.8849878730110703  1.0000
  C   C15       1.0  0.5303961641710585  0.23752654756145836  0.025122895805267775  1.0000
  C   C16       1.0  0.5344321170527804  0.2011732741760497  0.09734744856134371  1.0000
  C   C17       1.0  0.5302133679394601  0.1325894086996087  0.13199866149241052  1.0000
  C   C18       1.0  0.5150832444252842  0.7073123005669332  0.4456038636962917  1.0000
  C   C19       1.0  0.5198827257050382  0.7752059495871321  0.41343127036260824  1.0000
  C   C20       1.0  0.6732054001964299  0.9210894147889096  0.3318022460795477  1.0000
  C   C21       1.0  0.6805355539800145  0.9887844227418793  0.29785493630176085  1.0000
  C   C22       1.0  0.5351046891341014  0.3434087302178455  0.4451715493883698  1.0000
  C   C23       1.0  0.5517417996863969  0.3099125289444444  0.4106484329653313  1.0000
  C   C24       1.0  0.4067619408675114  0.24818190238669052  0.3323111857814425  1.0000
  C   C25       1.0  0.402881382337462  0.2127348213698141  0.2997821401282579  1.0000
  C   C26       1.0  0.48306015424427784  0.6734683371459411  0.4113787309986918  1.0000
  C   C27       1.0  0.5092985879925678  0.8122661990987011  0.3446038936225123  1.0000
  C   C28       1.0  0.5201069346121442  0.8844284539887112  0.30850101346823083  1.0000
  C   C29       1.0  0.5303116851258521  0.024983571711629793  0.23656049511441074  1.0000
  C   C30       1.0  0.5339431620535747  0.0972215311899802  0.2005953491576733  1.0000
  C   C31       1.0  0.5422970551196754  0.1319723717762784  0.2344480273556755  1.0000
  C   C32       1.0  0.5735880843158511  0.4458774118577438  0.3455880025199818  1.0000
  C   C33       1.0  0.5769773054124911  0.4135388479095354  0.3098315188306344  1.0000
  C   C34       1.0  0.7239908985199364  0.33028596393805293  0.2436842760596036  1.0000
  C   C35       1.0  0.7226404229940541  0.29609352922494037  0.2100480083114605  1.0000
  C   C36       1.0  0.4799757781302105  0.44564584119353173  0.7113127235301493  1.0000
  C   C37       1.0  0.49897798769596574  0.4113152368916887  0.77901299368461  1.0000
  C   C38       1.0  0.3575616101641401  0.3320133438037587  0.9224356797636732  1.0000
  C   C39       1.0  0.36317327533333815  0.2990939423879837  0.9904072263248979  1.0000
  C   C40       1.0  0.547241943263252  0.411573681220908  0.4141760028027122  1.0000
  C   C41       1.0  0.5678331795253085  0.3447457714152477  0.34177612808968416  1.0000
  C   C42       1.0  0.5679756643416383  0.3085480475725006  0.3056678940180291  1.0000
  C   C43       1.0  0.5592922770922897  0.23632015720153285  0.23752002954887527  1.0000
  C   C44       1.0  0.5484742609878666  0.20049641461575624  0.20120049068506776  1.0000
  C   C45       1.0  0.5433056470829668  0.2344571977857299  0.1325852679505886  1.0000
  O   O1        1.0  0.2532657457757423  0.5722014319338626  0.43593558975271657  1.0000
  O   O2        1.0  0.23894775438559182  0.4916272440192698  0.5729431051726196  1.0000
  O   O3        1.0  0.2821170641804116  0.43578426231650974  0.49230929202258294  1.0000
  O   O4        1.0  0.7079342742078651  0.5714898395514822  0.49110669818907843  1.0000
  O   O5        1.0  0.7521522960019951  0.4900066014453941  0.43722226710407597  1.0000
  O   O6        1.0  0.7281295399563845  0.43715965769742854  0.5722764202915301  1.0000
  F   F1        1.0  0.5200799855280918  0.3076664076654155  0.5117820166355784  1.0000
  F   F2        1.0  0.47256970078823474  0.5123257052814978  0.6803066408013125  1.0000
  F   F3        1.0  0.4375614154033229  0.680662999473718  0.3073973665810001  1.0000
  F   F4        1.0  0.8990088190023116  0.38697391356138416  0.2144199158352365  1.0000
  F   F5        1.0  0.8622704072338152  0.21697264642600797  0.8895326969125463  1.0000
  F   F6        1.0  0.8375834734532219  0.8899534889988063  0.3899835594030918  1.0000
