data_image0
_chemical_formula_structural       Zn2H28C42N6O8
_chemical_formula_sum              "Zn2 H28 C42 N6 O8"
_cell_length_a       15.892550043886866
_cell_length_b       17.329523218841025
_cell_length_c       17.91908404430082
_cell_angle_alpha    90.11649998506675
_cell_angle_beta     92.70144318884034
_cell_angle_gamma    95.61382030693015

_space_group_name_H-M_alt    "P 1"
_space_group_IT_number       1

loop_
  _space_group_symop_operation_xyz
  'x, y, z'

loop_
  _atom_site_type_symbol
  _atom_site_label
  _atom_site_symmetry_multiplicity
  _atom_site_fract_x
  _atom_site_fract_y
  _atom_site_fract_z
  _atom_site_occupancy
  Zn  Zn1       1.0  0.4124406445170835  0.49632748451512737  0.49621813711868146  1.0000
  Zn  Zn2       1.0  0.5875504542477684  0.5036844236438467  0.5037731147399354  1.0000
  H   H1        1.0  0.715341266685762  0.42509018517717573  0.4250863148654601  1.0000
  H   H2        1.0  0.8749237465628001  0.4263317622518485  0.42676962031890037  1.0000
  H   H3        1.0  0.8887394213616775  0.6006712799443007  0.6004192583762843  1.0000
  H   H4        1.0  0.7280201946681404  0.591913761961301  0.5914429760489383  1.0000
  H   H5        1.0  0.11126564297404681  0.39935398587974197  0.3995608541672765  1.0000
  H   H6        1.0  0.12507287975643783  0.5737033423695265  0.5732029237313866  1.0000
  H   H7        1.0  0.28465640371943834  0.5749426039062088  0.5748957528559302  1.0000
  H   H8        1.0  0.27198503703411353  0.40810049264774756  0.40855888503860166  1.0000
  H   H9        1.0  0.6213146327670886  0.25847161197212637  0.5047926961298188  1.0000
  H   H10       1.0  0.6144118580872162  0.11267060829757007  0.50488873458454  1.0000
  H   H11       1.0  0.34286137854481075  0.09977688467979819  0.4939126655757134  1.0000
  H   H12       1.0  0.3501624648362736  0.2461148695891921  0.4938212148161938  1.0000
  H   H13       1.0  0.6571315727269181  0.900220545604995  0.5061562009746438  1.0000
  H   H14       1.0  0.38558351067133867  0.8873558134091795  0.495183077594639  1.0000
  H   H15       1.0  0.3786624551501421  0.7415553520727656  0.4952538389223732  1.0000
  H   H16       1.0  0.6498125461502015  0.7538807822331745  0.5062061993932545  1.0000
  H   H17       1.0  0.3637811126589413  0.4941659051999636  0.7329558617331385  1.0000
  H   H18       1.0  0.36469831909470685  0.4940674612206238  0.8727657244125664  1.0000
  H   H19       1.0  0.634521692612374  0.5051280711786604  0.7429589179698011  1.0000
  H   H20       1.0  0.3654605933226805  0.4948420787749868  0.2570229702174983  1.0000
  H   H21       1.0  0.6361910790471229  0.5056413249114015  0.26704538225018126  1.0000
  H   H22       1.0  0.6352791539273924  0.5055797732845589  0.1272381897170618  1.0000
  H   H23       1.0  0.6963662721271364  0.4561651831930078  0.8802757582645241  1.0000
  H   H24       1.0  0.6535195733060278  0.5058738508208265  0.9544077551140192  1.0000
  H   H25       1.0  0.7027888130906846  0.5587905066425167  0.8806243788857555  1.0000
  H   H26       1.0  0.29729965325619656  0.44090210460107937  0.11908489700386578  1.0000
  H   H27       1.0  0.34648325907168953  0.4943462017965745  0.04558104083599799  1.0000
  H   H28       1.0  0.30349806199898677  0.5435189888018143  0.11999943977939145  1.0000
  C   C1        1.0  0.49093000674209003  0.3473955961056561  0.49864797705765795  1.0000
  C   C2        1.0  0.5002388190778291  0.4994715533786121  0.35349480132015276  1.0000
  C   C3        1.0  0.509045145624853  0.6526139664127654  0.5013593809874377  1.0000
  C   C4        1.0  0.49974893647290497  0.5004783180282858  0.6465000970892021  1.0000
  C   C5        1.0  0.7568846205058081  0.4627282238938689  0.4627721023368777  1.0000
  C   C6        1.0  0.8442649152421  0.4635846834577961  0.46376635775160924  1.0000
  C   C7        1.0  0.8927782151114911  0.5140257291385028  0.5141238052913194  1.0000
  C   C8        1.0  0.8517768152948053  0.5613079912836695  0.5611476843905334  1.0000
  C   C9        1.0  0.7637659293404655  0.5566885045407589  0.556409597072921  1.0000
  C   C10       1.0  0.148229005461495  0.4387184356512889  0.4388341346699248  1.0000
  C   C11       1.0  0.10721944091649505  0.4860070591417839  0.48585323926537427  1.0000
  C   C12       1.0  0.1557289573129594  0.536448097696791  0.5362094209535968  1.0000
  C   C13       1.0  0.24311205989997123  0.5373010852432927  0.5372115932509657  1.0000
  C   C14       1.0  0.23623558478669088  0.44333269802291386  0.44357929569272864  1.0000
  C   C15       1.0  0.4861285256384634  0.260514755330682  0.4988417841910076  1.0000
  C   C16       1.0  0.5607678637509679  0.22287904568774755  0.5021792134644585  1.0000
  C   C17       1.0  0.5571949567985826  0.14261865379341288  0.5023219656242758  1.0000
  C   C18       1.0  0.47786651414651976  0.09832752630515529  0.49916786879891356  1.0000
  C   C19       1.0  0.4032482170502619  0.13568736772884185  0.4961220150024842  1.0000
  C   C20       1.0  0.40738804610798235  0.21621315241827688  0.49596094396669327  1.0000
  C   C21       1.0  0.5967416706547156  0.8643170130069324  0.5039422800992596  1.0000
  C   C22       1.0  0.5221279568981174  0.90168440004647  0.5009010877083853  1.0000
  C   C23       1.0  0.44279714311402074  0.8574008040989797  0.497743006094204  1.0000
  C   C24       1.0  0.4392116016881644  0.7771403871733042  0.49787353889419705  1.0000
  C   C25       1.0  0.5138526074028109  0.7394971407270462  0.5011892540714482  1.0000
  C   C26       1.0  0.5925870386765483  0.7837888784787381  0.5040787637387394  1.0000
  C   C27       1.0  0.49954590156052353  0.5001186806193798  0.7300622678744659  1.0000
  C   C28       1.0  0.423000308672286  0.4967915340558944  0.7665009021492536  1.0000
  C   C29       1.0  0.423745848555754  0.4966419606526315  0.8438791603416929  1.0000
  C   C30       1.0  0.5009389779865003  0.49976345368513375  0.8869739485085402  1.0000
  C   C31       1.0  0.5786247397394322  0.5029239849207839  0.850522046893907  1.0000
  C   C32       1.0  0.575910285111789  0.5029811638632466  0.7725662233451798  1.0000
  C   C33       1.0  0.5000574832295399  0.49973925822492044  0.965888619332659  1.0000
  C   C34       1.0  0.49992946482296224  0.49987842603366045  0.0341066798564427  1.0000
  C   C35       1.0  0.49904949328946213  0.4999110457118547  0.11301315684581675  1.0000
  C   C36       1.0  0.4213645606100087  0.4968786362818919  0.14946368064934748  1.0000
  C   C37       1.0  0.42407113463460894  0.49689043118555537  0.22742156654010864  1.0000
  C   C38       1.0  0.5004402319228803  0.49974364825982315  0.2699312701214751  1.0000
  C   C39       1.0  0.5769756302786038  0.5029913542419066  0.23350044002751244  1.0000
  C   C40       1.0  0.576235584405147  0.5030551375605654  0.1561222227285342  1.0000
  C   C41       1.0  0.6621558370891591  0.5060907816724407  0.8940725197536066  1.0000
  C   C42       1.0  0.33783489844874043  0.49376749685717397  0.10591672747598577  1.0000
  N   N1        1.0  0.7176312603238487  0.5083484583631587  0.5082265953324665  1.0000
  N   N2        1.0  0.9825672812938465  0.5214965768917778  0.5218785676907698  1.0000
  N   N3        1.0  0.017435133829273815  0.47853969765733245  0.4780930916862402  1.0000
  N   N4        1.0  0.2823611198426548  0.49167562675965115  0.49176640647820585  1.0000
  N   N5        1.0  0.46607234942946724  0.016512247107847596  0.49889673858644545  1.0000
  N   N6        1.0  0.5339293240429229  0.9835020129572527  0.5011825528965657  1.0000
  O   O1        1.0  0.42108673363387794  0.3779389988332582  0.49550860876193054  1.0000
  O   O2        1.0  0.5645728023243848  0.3840882013978798  0.501723868652064  1.0000
  O   O3        1.0  0.5718962362285255  0.5024484115822078  0.3891053509606549  1.0000
  O   O4        1.0  0.42845982488609025  0.49638684802068417  0.3829463686183132  1.0000
  O   O5        1.0  0.5788999035813231  0.6220636071363259  0.5043641374285597  1.0000
  O   O6        1.0  0.43541166000530046  0.6159289325095045  0.49839883494673387  1.0000
  O   O7        1.0  0.42810258270706925  0.4974087231175017  0.6108892363545093  1.0000
  O   O8        1.0  0.5715469779918932  0.5037207447787325  0.6170468176038992  1.0000
