data_image0
_chemical_formula_structural       Zn2H36C52N4O16
_chemical_formula_sum              "Zn2 H36 C52 N4 O16"
_cell_length_a       9.605463026493986
_cell_length_b       11.53477511426619
_cell_length_c       13.0378
_cell_angle_alpha    88.38147898488411
_cell_angle_beta     68.37387259795003
_cell_angle_gamma    65.39613122922952

_space_group_name_H-M_alt    "P 1"
_space_group_IT_number       1

loop_
  _space_group_symop_operation_xyz
  'x, y, z'

loop_
  _atom_site_type_symbol
  _atom_site_label
  _atom_site_symmetry_multiplicity
  _atom_site_fract_x
  _atom_site_fract_y
  _atom_site_fract_z
  _atom_site_occupancy
  Zn  Zn1       1.0  0.37165573601977525  0.2500005734530859  0.25001533210031823  1.0000
  Zn  Zn2       1.0  0.6283433495730363  0.7499997920566699  0.7499852138500458  1.0000
  H   H1        1.0  0.1290190252138643  0.9238661587239889  0.3048788626398746  1.0000
  H   H2        1.0  0.8577626642646831  0.5761449952048636  0.19513691683027906  1.0000
  H   H3        1.0  0.8709806042422767  0.0761332426344765  0.695120792730677  1.0000
  H   H4        1.0  0.1422369651914579  0.42385440615360176  0.8048635055408437  1.0000
  H   H5        1.0  0.1684437968959855  0.2680562347014472  0.4891456944293679  1.0000
  H   H6        1.0  0.4256425305593864  0.23198444240770041  0.010846306944173998  1.0000
  H   H7        1.0  0.8315564086028999  0.7319441308083086  0.5108545474393296  1.0000
  H   H8        1.0  0.5743587948455725  0.7680159231020554  0.989153630842857  1.0000
  H   H9        1.0  0.39850685062426555  0.5355291578711388  0.13113105536992004  1.0000
  H   H10       1.0  0.5651765894121183  0.9645379168326542  0.3688633561521256  1.0000
  H   H11       1.0  0.6014927788318757  0.46447024348732674  0.8688693670011954  1.0000
  H   H12       1.0  0.43482415995008933  0.0354614845258112  0.6311367621373235  1.0000
  H   H13       1.0  0.26677567119896384  0.6715255900848192  0.919548698860602  1.0000
  H   H14       1.0  0.35787424950523655  0.8285154525340843  0.5804682565920986  1.0000
  H   H15       1.0  0.7332234143938477  0.3284747754249366  0.08045184708976189  1.0000
  H   H16       1.0  0.6421248360875749  0.1714849129756715  0.41953152235770114  1.0000
  H   H17       1.0  0.7964271502777647  0.9845720165325389  0.953161143828069  1.0000
  H   H18       1.0  0.2341787068051246  0.5154728826915331  0.546830704492308  1.0000
  H   H19       1.0  0.2035730552211206  0.0154283489772169  0.04683833104006398  1.0000
  H   H20       1.0  0.7658220425570901  0.4845265186669323  0.45316864679657687  1.0000
  H   H21       1.0  0.8959517544047915  0.8740243576755446  0.24457389249419473  1.0000
  H   H22       1.0  0.5145489269196233  0.6260041509765628  0.2554407856358907  1.0000
  H   H23       1.0  0.10404733118802059  0.1259760078342111  0.7554266534561691  1.0000
  H   H24       1.0  0.48544961480985893  0.3739971786844833  0.7445606508943  1.0000
  H   H25       1.0  0.07559317659440278  0.811784535161152  0.8332791741546116  1.0000
  H   H26       1.0  0.22068591484992336  0.6882343319780304  0.6667274959416857  1.0000
  H   H27       1.0  0.9244070289044825  0.1882158303485966  0.16672106771409295  1.0000
  H   H28       1.0  0.7793131707428881  0.3117660335317254  0.33327305000867824  1.0000
  H   H29       1.0  0.9986754198123862  0.1658099184699893  0.6067097013681887  1.0000
  H   H30       1.0  0.27113704662807686  0.3341979774952293  0.893321168957641  1.0000
  H   H31       1.0  0.0013247856864993027  0.8341904470397665  0.3932905405005087  1.0000
  H   H32       1.0  0.7288625828280646  0.6658014238632362  0.10667925341347474  1.0000
  H   H33       1.0  0.2891860915276325  0.041441150839816  0.2006693604496732  1.0000
  H   H34       1.0  0.031312521396145584  0.4585503545534309  0.29933400349031547  1.0000
  H   H35       1.0  0.7108129940651793  0.9585592146699397  0.7993304185001262  1.0000
  H   H36       1.0  0.9686882279660692  0.5414490468050275  0.7006661147991338  1.0000
  C   C1        1.0  0.13168309964157734  0.0003393812548396  0.350081367631752  1.0000
  C   C2        1.0  0.982130611957558  0.4996829769797557  0.14992367044293073  1.0000
  C   C3        1.0  0.8683165298145638  0.9996600201036187  0.6499190547393636  1.0000
  C   C4        1.0  0.017870137404656792  0.5003164243787097  0.8500764478465186  1.0000
  C   C5        1.0  0.1546226498786396  0.1917976523989893  0.45243419169504046  1.0000
  C   C6        1.0  0.2988660319374573  0.3082671284924601  0.04757460084243092  1.0000
  C   C7        1.0  0.8453769795775018  0.8082017489594692  0.547566230676075  1.0000
  C   C8        1.0  0.7011347174247505  0.6917322728659983  0.952424750446454  1.0000
  C   C9        1.0  0.048626969773565086  0.0332911799671507  0.46665775812723337  1.0000
  C   C10       1.0  0.04856957448014756  0.466729249964864  0.033345417163410176  1.0000
  C   C11       1.0  0.9513732357253202  0.966709185542605  0.533342483741471  1.0000
  C   C12       1.0  0.951432294788134  0.5332701513935945  0.9666543970443727  1.0000
  C   C13       1.0  0.14364605568578526  0.7453198016845022  0.9718801223676151  1.0000
  C   C14       1.0  0.3608955703643557  0.7547183484805231  0.5281332890809978  1.0000
  C   C15       1.0  0.8563552697191664  0.2546805638252536  0.02811981541941573  1.0000
  C   C16       1.0  0.6391035152284557  0.24528201702923272  0.4718672568693735  1.0000
  C   C17       1.0  0.1962172918235082  0.6826094733395394  0.14788408835793382  1.0000
  C   C18       1.0  0.5267811163723836  0.8174325334306545  0.35214730746287154  1.0000
  C   C19       1.0  0.8037829136753697  0.3173908921702164  0.8521161535107635  1.0000
  C   C20       1.0  0.473219089126502  0.1825678320791013  0.6478521674052545  1.0000
  C   C21       1.0  0.6659755418338447  0.04478771997492  0.17940620848883526  1.0000
  C   C22       1.0  0.3900853215688612  0.4552770609165364  0.32061308229075536  1.0000
  C   C23       1.0  0.3340240876222964  0.9552116813835454  0.8205942138822804  1.0000
  C   C24       1.0  0.6099154277933463  0.544722340441929  0.6793862689981295  1.0000
  C   C25       1.0  0.8799884055609508  0.920954421821648  0.9900142153940051  1.0000
  C   C26       1.0  0.29092651855497553  0.5791213302437725  0.5099856685246706  1.0000
  C   C27       1.0  0.1200117999379273  0.0790459436881079  0.009986026474692305  1.0000
  C   C28       1.0  0.7090753507133057  0.4208780711146929  0.49001261168197624  1.0000
  C   C29       1.0  0.8293268335959141  0.9396213549892423  0.1061453369172085  1.0000
  C   C30       1.0  0.3749575197946697  0.5604968197330322  0.3938480860194388  1.0000
  C   C31       1.0  0.17067225199689767  0.0603790105205064  0.8938552090331553  1.0000
  C   C32       1.0  0.6250432295675451  0.43950258162543326  0.6061512652694461  1.0000
  C   C33       1.0  0.9357269530843624  0.8602032489023657  0.15438348692029533  1.0000
  C   C34       1.0  0.45028794735384986  0.6398831088272701  0.3456298682609712  1.0000
  C   C35       1.0  0.06427213250844939  0.1397971166073901  0.8456162920295044  1.0000
  C   C36       1.0  0.5497117142817058  0.3601182208337761  0.6543704971869745  1.0000
  C   C37       1.0  0.0923900426620819  0.7633629289660675  0.08837078326055796  1.0000
  C   C38       1.0  0.44418799945579934  0.7366646155347425  0.4116358794679441  1.0000
  C   C39       1.0  0.907610706700126  0.23663647239239077  0.9116301020294626  1.0000
  C   C40       1.0  0.5558110861370124  0.2633357499750133  0.5883646664824269  1.0000
  C   C41       1.0  0.0361653816726458  0.8243445340441795  0.9237258368479146  1.0000
  C   C42       1.0  0.2842696364240851  0.6756810821540498  0.5762711623306769  1.0000
  C   C43       1.0  0.963835367689569  0.1756548673142788  0.07627504844210618  1.0000
  C   C44       1.0  0.7157305690748005  0.324319283355706  0.4237275455368846  1.0000
  C   C45       1.0  0.0615575230310768  0.1317801986130434  0.5174414327615152  1.0000
  C   C46       1.0  0.21074618951068658  0.3682267332008777  0.9825794746956191  1.0000
  C   C47       1.0  0.9384421064250571  0.8682192027454222  0.4825589896096004  1.0000
  C   C48       1.0  0.7892534399454545  0.6317726681575806  0.0174201806749323  1.0000
  C   C49       1.0  0.22171515582626  0.0653010028670096  0.2909912686225198  1.0000
  C   C50       1.0  0.07804494310095582  0.4347184629137146  0.20900878712744486  1.0000
  C   C51       1.0  0.7782850496726254  0.9346993626427461  0.7090089732461777  1.0000
  C   C52       1.0  0.9219558062612523  0.5652809384447508  0.7909905641614399  1.0000
  N   N1        1.0  0.2334334662657297  0.1594648388162554  0.3410041511668922  1.0000
  N   N2        1.0  0.23396233468590566  0.3405739099903116  0.15899207642657132  1.0000
  N   N3        1.0  0.766567283096485  0.84053456254221  0.6589952001219925  1.0000
  N   N4        1.0  0.7660367509069133  0.6594264555194442  0.8410077025232283  1.0000
  O   O1        1.0  0.6226854190723259  0.0611194787128895  0.2841493105838139  1.0000
  O   O2        1.0  0.46788368298920335  0.4389125210346307  0.21587448931504835  1.0000
  O   O3        1.0  0.3773125466144125  0.9388808867968662  0.7158515394482236  1.0000
  O   O4        1.0  0.5321159464669378  0.5610868803238347  0.7841251660555029  1.0000
  O   O5        1.0  0.5739822170263124  0.1194940186969902  0.13090681052955935  1.0000
  O   O6        1.0  0.3244164706706342  0.3804965225449664  0.36913324635821704  1.0000
  O   O7        1.0  0.42601686856649923  0.8805063468127656  0.8690937354208117  1.0000
  O   O8        1.0  0.6755842786915734  0.6195028788134991  0.6308661049306605  1.0000
  O   O9        1.0  0.34294898155175707  0.5890549810069459  0.08213127726227742  1.0000
  O   O10       1.0  0.5141356229590031  0.9110111295455567  0.4178706978967595  1.0000
  O   O11       1.0  0.6570506479043842  0.4109444203515196  0.9178691451088382  1.0000
  O   O12       1.0  0.4858662463092784  0.0889882718129087  0.582129116311023  1.0000
  O   O13       1.0  0.14870895127472042  0.7005127986837465  0.2505272052192494  1.0000
  O   O14       1.0  0.5998430875237302  0.799506068455443  0.24948238230203398  1.0000
  O   O15       1.0  0.851291254224165  0.2994875668260093  0.7494730366494481  1.0000
  O   O16       1.0  0.40015487816300777  0.2004942970543127  0.7505177007294319  1.0000
