data_image0
_chemical_formula_structural       Ni4H32C20N8O28
_chemical_formula_sum              "Ni4 H32 C20 N8 O28"
_cell_length_a       7.749512692001651
_cell_length_b       7.552597875001303
_cell_length_c       14.618389421005487
_cell_angle_alpha    89.99993414415344
_cell_angle_beta     89.99992518920529
_cell_angle_gamma    89.99999261685618

_space_group_name_H-M_alt    "P 1"
_space_group_IT_number       1

loop_
  _space_group_symop_operation_xyz
  'x, y, z'

loop_
  _atom_site_type_symbol
  _atom_site_label
  _atom_site_symmetry_multiplicity
  _atom_site_fract_x
  _atom_site_fract_y
  _atom_site_fract_z
  _atom_site_occupancy
  Ni  Ni1       1.0  0.8167587187663584  0.1235274084176368  0.8220341511723602  1.0000
  Ni  Ni2       1.0  0.6832412095016875  0.8764728576165055  0.3220342928159923  1.0000
  Ni  Ni3       1.0  0.3167590250104268  0.3764715715217832  0.17796534705838238  1.0000
  Ni  Ni4       1.0  0.18324289716115055  0.6235277427214283  0.6779656805771805  1.0000
  H   H1        1.0  0.48780649706250045  0.1439138577061527  0.7599898037869153  1.0000
  H   H2        1.0  0.012195222353120998  0.8560852765580973  0.2599900756706361  1.0000
  H   H3        1.0  0.9878050151044702  0.35608642707535404  0.24001026054583005  1.0000
  H   H4        1.0  0.5121951159178335  0.6439140189362503  0.7400106997602974  1.0000
  H   H5        1.0  0.48576623133443053  0.1941057400202482  0.8682636870347478  1.0000
  H   H6        1.0  0.0142352204392466  0.8058931566681409  0.36826398772608826  1.0000
  H   H7        1.0  0.9857650242724174  0.30589322094260035  0.13173637870543328  1.0000
  H   H8        1.0  0.5142353743909849  0.6941074626441049  0.6317374703672982  1.0000
  H   H9        1.0  0.13735991863478597  0.15406003195709414  0.7810496971234356  1.0000
  H   H10       1.0  0.36264045832036357  0.8459390560983663  0.2810490493498249  1.0000
  H   H11       1.0  0.63736107100911  0.3459389681249049  0.2189499248346323  1.0000
  H   H12       1.0  0.8626391120724858  0.6540615240978056  0.7189501162465675  1.0000
  H   H13       1.0  0.10956839914468469  0.9515233503630184  0.8109556339997964  1.0000
  H   H14       1.0  0.3904331942876169  0.04847434802268678  0.31095681525688684  1.0000
  H   H15       1.0  0.6095645068199076  0.5484746101524036  0.1890437061368146  1.0000
  H   H16       1.0  0.89043316938006  0.451525947691664  0.6890433162316965  1.0000
  H   H17       1.0  0.7663528959712449  0.4505472939177507  0.8617470633468185  1.0000
  H   H18       1.0  0.7336495149370492  0.5494515609290573  0.3617480511559775  1.0000
  H   H19       1.0  0.266350766836787  0.04945036763357539  0.1382524696490037  1.0000
  H   H20       1.0  0.23364996309590672  0.9505477096991937  0.6382539396821159  1.0000
  H   H21       1.0  0.8800554450066681  0.3475852832301597  0.935958376824338  1.0000
  H   H22       1.0  0.6199467824580224  0.6524134087805463  0.4359600651405628  1.0000
  H   H23       1.0  0.38005219403073903  0.1524123655548806  0.0640410777535863  1.0000
  H   H24       1.0  0.11994742894259496  0.8475871986625374  0.5640413200455895  1.0000
  H   H25       1.0  0.7226445435918832  0.9218714214163838  0.6704303749656262  1.0000
  H   H26       1.0  0.7773531786173462  0.07812652917279189  0.1704309322904507  1.0000
  H   H27       1.0  0.22264451820463899  0.578127850449768  0.32956957125286823  1.0000
  H   H28       1.0  0.2773570292178463  0.4218684830469143  0.8295692771873318  1.0000
  H   H29       1.0  0.8774299824949665  0.37453540427966897  0.5225072139579935  1.0000
  H   H30       1.0  0.6225577821342154  0.6254708151706367  0.022508232619799198  1.0000
  H   H31       1.0  0.37743216542102687  0.12546489289303508  0.4774942946376512  1.0000
  H   H32       1.0  0.1225715971576733  0.8745324400762441  0.9774910985506082  1.0000
  C   C1        1.0  0.6887948477747228  0.899782488717065  0.5304977412629198  1.0000
  C   C2        1.0  0.8112006395308952  0.10022106510951549  0.0304941575249416  1.0000
  C   C3        1.0  0.18879834450285665  0.6002167869457365  0.4695056486492319  1.0000
  C   C4        1.0  0.31120672822582657  0.3997779154558854  0.9695032923274383  1.0000
  C   C5        1.0  0.8042846430157552  0.15590325418779832  0.6122011804371964  1.0000
  C   C6        1.0  0.6957119327289972  0.8441001203622135  0.11219928075793456  1.0000
  C   C7        1.0  0.3042857256552977  0.34409705119836786  0.387799694535765  1.0000
  C   C8        1.0  0.19571696823128087  0.6558991545283632  0.8877999999637893  1.0000
  C   C9        1.0  0.8272965129378702  0.2404451184371368  0.5260274952446693  1.0000
  C   C10       1.0  0.6726951142051616  0.7595597692448735  0.026024978260217293  1.0000
  C   C11       1.0  0.3272999755901509  0.2595525362689628  0.4739740479273492  1.0000
  C   C12       1.0  0.17270121488039794  0.7404421563268783  0.9739729501947919  1.0000
  C   C13       1.0  0.7838513028234143  0.14675558897824456  0.44873106153935527  1.0000
  C   C14       1.0  0.716143150646097  0.8532470471502478  0.9487326022189533  1.0000
  C   C15       1.0  0.28385456086949273  0.3532447187042749  0.5512677753156436  1.0000
  C   C16       1.0  0.2161489648904008  0.6467509013978299  0.051267348481800895  1.0000
  C   C17       1.0  0.8029145475288144  0.22640907797406126  0.3546194322105549  1.0000
  C   C18       1.0  0.6970853001918441  0.7735884684655331  0.8546196658475083  1.0000
  C   C19       1.0  0.3029162940472431  0.273589903518932  0.6453807596376107  1.0000
  C   C20       1.0  0.19708312786372054  0.7264081581750543  0.14538029800020513  1.0000
  N   N1        1.0  0.7168005743124155  0.9809414054144695  0.4491966851719623  1.0000
  N   N2        1.0  0.7831964588153397  0.0190638777893923  0.9491966295611503  1.0000
  N   N3        1.0  0.21680517220988083  0.5190618392507459  0.5508032650742081  1.0000
  N   N4        1.0  0.2831996450989677  0.48093907805909447  0.0508049440242502  1.0000
  N   N5        1.0  0.7367551792975744  0.9879083679743769  0.6090945919411154  1.0000
  N   N6        1.0  0.763240113721963  0.012096337439437803  0.10909314653991228  1.0000
  N   N7        1.0  0.23675888304964585  0.5120922263549659  0.3909053445438815  1.0000
  N   N8        1.0  0.26324509356270187  0.48790662065187  0.8909063885986865  1.0000
  O   O1        1.0  0.5591451086623919  0.18391460193149806  0.8123573692096143  1.0000
  O   O2        1.0  0.9408561339277666  0.816087009381853  0.31235873767337796  1.0000
  O   O3        1.0  0.059144109310537395  0.3160883790763761  0.1876416226212427  1.0000
  O   O4        1.0  0.4408564985366539  0.6839175341724442  0.6876431102570563  1.0000
  O   O5        1.0  0.07959881800879029  0.07684417148222879  0.8254896564249918  1.0000
  O   O6        1.0  0.4204001586900431  0.9231548190612243  0.32549029047251565  1.0000
  O   O7        1.0  0.5795987786708209  0.423153511037448  0.1745100053705215  1.0000
  O   O8        1.0  0.9204028046654  0.5768470786957778  0.674510203426216  1.0000
  O   O9        1.0  0.8700407027523338  0.3750725881425936  0.8688059674727597  1.0000
  O   O10       1.0  0.6299629811116104  0.6249262512161379  0.36880629728855036  1.0000
  O   O11       1.0  0.37003728975428624  0.1249250617661417  0.13119417808206887  1.0000
  O   O12       1.0  0.1299621672234181  0.8750756791509031  0.6311943969198595  1.0000
  O   O13       1.0  0.621138984227862  0.7474640360469136  0.536609974880534  1.0000
  O   O14       1.0  0.8788642303894532  0.2525434765095084  0.0366076209247339  1.0000
  O   O15       1.0  0.12113731243817227  0.7525405434056082  0.4633914094829875  1.0000
  O   O16       1.0  0.37886132338176975  0.24746079264786394  0.963391834472638  1.0000
  O   O17       1.0  0.842444361939968  0.226012818746284  0.6888990619113426  1.0000
  O   O18       1.0  0.6575533146184894  0.7739877394159931  0.18889791482506263  1.0000
  O   O19       1.0  0.3424443538988484  0.2739835102130143  0.3111011026753373  1.0000
  O   O20       1.0  0.15756111038800916  0.7260115397603216  0.8111000240731412  1.0000
  O   O21       1.0  0.7373879353464685  0.13780255718588552  0.2880492204187135  1.0000
  O   O22       1.0  0.7626133673361293  0.8621951353258905  0.7880466192437365  1.0000
  O   O23       1.0  0.23738821409948224  0.36219907975910803  0.7119517006913936  1.0000
  O   O24       1.0  0.26261233365857356  0.6378001599117766  0.21195124720097877  1.0000
  O   O25       1.0  0.8767553208917247  0.3739636105448696  0.34491035842795265  1.0000
  O   O26       1.0  0.6232419700210556  0.626035281246203  0.844910731816931  1.0000
  O   O27       1.0  0.37675706473319776  0.1260353626551378  0.6550918347034269  1.0000
  O   O28       1.0  0.12324362357919229  0.8739640017806352  0.15508928295687946  1.0000
