data_image0
_chemical_formula_structural       Al6H26C73O35
_chemical_formula_sum              "Al6 H26 C73 O35"
_cell_length_a       12.027283012236511
_cell_length_b       12.520938615780182
_cell_length_c       26.911964170855573
_cell_angle_alpha    82.61804622978178
_cell_angle_beta     81.96421616234764
_cell_angle_gamma    68.27582156164893

_space_group_name_H-M_alt    "P 1"
_space_group_IT_number       1

loop_
  _space_group_symop_operation_xyz
  'x, y, z'

loop_
  _atom_site_type_symbol
  _atom_site_label
  _atom_site_symmetry_multiplicity
  _atom_site_fract_x
  _atom_site_fract_y
  _atom_site_fract_z
  _atom_site_occupancy
  Al  Al1       1.0  0.5964059007418285  0.611339260789869  0.48669257228986135  1.0000
  Al  Al2       1.0  0.5655712469671456  0.36503017804056265  0.5037846688618899  1.0000
  Al  Al3       1.0  0.34161995700416264  0.5778513684295985  0.5019778592125519  1.0000
  Al  Al4       1.0  0.06055594842095498  0.0729722432668325  0.0206693130401092  1.0000
  Al  Al5       1.0  0.31824043982790323  0.1013226077507596  0.004010247478149192  1.0000
  Al  Al6       1.0  0.0968478038562779  0.3169116733525  0.0051887951723515015  1.0000
  H   H1        1.0  0.9184496159399625  0.1575449161375317  0.7137753386079237  1.0000
  H   H2        1.0  0.7513326150936519  0.5210932090017906  0.7934056976321032  1.0000
  H   H3        1.0  0.9220019516133036  0.47602797678652553  0.707249118584741  1.0000
  H   H4        1.0  0.012505323606148911  0.8303291032923423  0.7565799718979419  1.0000
  H   H5        1.0  0.0029465705387891677  0.9678678227502499  0.7254513366386348  1.0000
  H   H6        1.0  0.9103322769533191  0.959952099701418  0.7834484850597646  1.0000
  H   H7        1.0  0.7179640591655383  0.10512447203824136  0.7501492427024559  1.0000
  H   H8        1.0  0.5875199336289967  0.22274653196816263  0.7714697615216437  1.0000
  H   H9        1.0  0.6369901265495769  0.09111087392304279  0.8106086385741733  1.0000
  H   H10       1.0  0.13321349410879435  0.24968144143746676  0.7139285205070678  1.0000
  H   H11       1.0  0.17503168312766348  0.5714469324606523  0.7862581816587522  1.0000
  H   H12       1.0  0.1711754100471907  0.5020065878381812  0.22518989359978997  1.0000
  H   H13       1.0  0.143045140294248  0.703413877406909  0.814817692464281  1.0000
  H   H14       1.0  0.28862538145450134  0.5924800077630151  0.8163044315544568  1.0000
  H   H15       1.0  0.5685187019981868  0.6406249283253799  0.7809547641171761  1.0000
  H   H16       1.0  0.3489266205549839  0.1358882261784942  0.7205381467538601  1.0000
  H   H17       1.0  0.5287366535643017  0.43833012360605034  0.7893336785272138  1.0000
  H   H18       1.0  0.14125827820326717  0.3369745979254545  0.30338573320722156  1.0000
  H   H19       1.0  0.3722945080013885  0.503179915499686  0.2686257120889621  1.0000
  H   H20       1.0  0.5255480325313043  0.3233002240924704  0.20917879378681897  1.0000
  H   H21       1.0  0.49566947445135395  0.15828590751164026  0.28731626718760583  1.0000
  H   H22       1.0  0.2946268410947183  0.1570222254636207  0.2439474521738845  1.0000
  H   H23       1.0  0.18378304561475287  0.030495291492996998  0.6964876930673896  1.0000
  H   H24       1.0  0.52250473289925  0.8229350563887649  0.7092736756043505  1.0000
  H   H25       1.0  0.7052724606677925  0.7200082880765561  0.44189450218780724  1.0000
  H   H26       1.0  0.9578954750518133  0.9587839667553125  0.06570491848727761  1.0000
  C   C1        1.0  0.7089362893210164  0.4141658130878482  0.5623313963235361  1.0000
  C   C2        1.0  0.30606684768351033  0.8948407123128629  0.7965041334582991  1.0000
  C   C3        1.0  0.43009556651863773  0.8418409390271929  0.726511225059248  1.0000
  C   C4        1.0  0.373774441561508  0.4005029601837363  0.5828956488350485  1.0000
  C   C5        1.0  0.3244842337458352  0.838786769740345  0.6988225167619291  1.0000
  C   C6        1.0  0.39317812888247516  0.7769223304552496  0.775026286823902  1.0000
  C   C7        1.0  0.28190838054521095  0.7731667590519391  0.7476744448532313  1.0000
  C   C8        1.0  0.2968185063397397  0.9191729202372156  0.8470408731570201  1.0000
  C   C9        1.0  0.3359133136000167  0.8076937516692693  0.6491178856948423  1.0000
  C   C10       1.0  0.8825695401970459  0.4154434402192136  0.7279834562035461  1.0000
  C   C11       1.0  0.7886080105870689  0.44040282672491304  0.7751823486741928  1.0000
  C   C12       1.0  0.33322690956572387  0.35342538379244093  0.7321620397554014  1.0000
  C   C13       1.0  0.9061851872331202  0.29612599436225645  0.8977741277051906  1.0000
  C   C14       1.0  0.7591222845320684  0.38789062095909077  0.6097550104843988  1.0000
  C   C15       1.0  0.9553355784153437  0.2959655835469235  0.7554117617556528  1.0000
  C   C16       1.0  0.3832680530265617  0.7234159431088752  0.5600403859837185  1.0000
  C   C17       1.0  0.8601348942461157  0.32138677180029857  0.8034652195630441  1.0000
  C   C18       1.0  0.8796618214285841  0.23866506778377777  0.7316679454687005  1.0000
  C   C19       1.0  0.8080254236016342  0.35811796668657786  0.7040078293638032  1.0000
  C   C20       1.0  0.7860883971335824  0.26361642645188244  0.7798421938176929  1.0000
  C   C21       1.0  0.7113617238046783  0.385531575204503  0.7514058093239199  1.0000
  C   C22       1.0  0.8859133563318479  0.3059418594861539  0.8540557032807354  1.0000
  C   C23       1.0  0.33867264179559686  0.3655321866190062  0.6818585086366509  1.0000
  C   C24       1.0  0.7810210221434841  0.374967840102137  0.6534169544408073  1.0000
  C   C25       1.0  0.22635619130350196  0.334024719831909  0.2819136185607505  1.0000
  C   C26       1.0  0.24311372440705264  0.42577902977391346  0.23938439359937289  1.0000
  C   C27       1.0  0.31277137685074047  0.3083072097537709  0.1109270529435094  1.0000
  C   C28       1.0  0.7120463222930054  0.40929021954510597  0.42114876827743325  1.0000
  C   C29       1.0  0.3503664779942992  0.35701252094378316  0.40143717656883376  1.0000
  C   C30       1.0  0.31187344760537866  0.23392894521013113  0.2500496602108626  1.0000
  C   C31       1.0  0.32818552499071524  0.3261211478085641  0.2058530472641067  1.0000
  C   C32       1.0  0.42365872406083577  0.23451048857220502  0.2731678979883796  1.0000
  C   C33       1.0  0.338529503135092  0.33417225981517606  0.3067217683401253  1.0000
  C   C34       1.0  0.3459648548124788  0.3758356967099558  0.6356880390652151  1.0000
  C   C35       1.0  0.44039605347305144  0.3262713950076587  0.23061830429598018  1.0000
  C   C36       1.0  0.35494323007491596  0.426346213414277  0.2624822695375215  1.0000
  C   C37       1.0  0.32186053429402506  0.31775743482273094  0.15460411640222557  1.0000
  C   C38       1.0  0.34371134223402316  0.34418431909541874  0.3578711946602268  1.0000
  C   C39       1.0  0.30120360223934023  0.9054114278689124  0.13447070070413497  1.0000
  C   C40       1.0  0.375886221496742  0.3872021080961331  0.4467323062985002  1.0000
  C   C41       1.0  0.31564266186990125  0.8744728621997023  0.17902756618286023  1.0000
  C   C42       1.0  0.33027357691178566  0.8430184871022203  0.22797499912717709  1.0000
  C   C43       1.0  0.34204233170124315  0.8166877631603524  0.27328397110027675  1.0000
  C   C44       1.0  0.3554336668659558  0.7869314359654568  0.3224156012174859  1.0000
  C   C45       1.0  0.24142665705378627  0.9584306385928794  0.7196329989153013  1.0000
  C   C46       1.0  0.36788507907085227  0.758701901468875  0.36728887022263007  1.0000
  C   C47       1.0  0.8982311732559292  0.30218060443125677  0.13787627859904458  1.0000
  C   C48       1.0  0.8701053284536114  0.3189109291047457  0.18258828944080105  1.0000
  C   C49       1.0  0.8423235285235433  0.335815752482624  0.23163429401468952  1.0000
  C   C50       1.0  0.8194196754053918  0.3496831591763436  0.2770143103247165  1.0000
  C   C51       1.0  0.7917444800177974  0.3657089165441008  0.3261302247747153  1.0000
  C   C52       1.0  0.39287836598558806  0.7118091145075166  0.4179875218172171  1.0000
  C   C53       1.0  0.7643941120450605  0.38102772545310865  0.37099742623566107  1.0000
  C   C54       1.0  0.26220919279314364  0.9736776667590727  0.9413111776970097  1.0000
  C   C55       1.0  0.2915565085695775  0.2857881464647889  0.9273737017165686  1.0000
  C   C56       1.0  0.19970624120068686  0.8938624986169327  0.7686108962081802  1.0000
  C   C57       1.0  0.9517395628058549  0.27345190536733804  0.9460838965410758  1.0000
  C   C58       1.0  0.27243863428567033  0.9584620378878693  0.08483533176768529  1.0000
  C   C59       1.0  0.2856350292579107  0.28377282507658197  0.0646746427910045  1.0000
  C   C60       1.0  0.9506419495992656  0.27171761082971807  0.08787731421888618  1.0000
  C   C61       1.0  0.31927807793198326  0.31393595250590056  0.8748454201305051  1.0000
  C   C62       1.0  0.3264362877140882  0.32645137047989436  0.8286955805927292  1.0000
  C   C63       1.0  0.3314365760004846  0.34029003678671177  0.7784289738894117  1.0000
  C   C64       1.0  0.9982417959802132  0.919959232313495  0.7625841910149872  1.0000
  C   C65       1.0  0.666888860342368  0.15000662119187066  0.7834158022213344  1.0000
  C   C66       1.0  0.08737879989590876  0.24210146075889574  0.7528513081547955  1.0000
  C   C67       1.0  0.2856829935533227  0.937203000110635  0.8911896030880159  1.0000
  C   C68       1.0  0.21195199315109656  0.6347161136478758  0.7939382035922549  1.0000
  C   C69       1.0  0.4794473382463164  0.6804513020151076  0.8032608328399248  1.0000
  C   C70       1.0  0.38998631754336793  0.0579658988756933  0.7464529219654139  1.0000
  C   C71       1.0  0.579595630815575  0.4366722851785738  0.7511315803308847  1.0000
  C   C72       1.0  0.35104582982737725  0.7769343488464882  0.6067617300981355  1.0000
  C   C73       1.0  0.34674404423949323  0.9614597473485416  0.7465901876597059  1.0000
  O   O1        1.0  0.4889978461924468  0.704151753797845  0.5394894996281252  1.0000
  O   O2        1.0  0.19487570737674526  0.3549790304071293  0.9487202112955301  1.0000
  O   O3        1.0  0.9846942081224265  0.3522233795182003  0.9592526871299752  1.0000
  O   O4        1.0  0.6903091973959476  0.51373791876329  0.540554179301118  1.0000
  O   O5        1.0  0.9714827593078537  0.16982774073133558  0.07817367741539981  1.0000
  O   O6        1.0  0.16866010422060634  0.9756348820084283  0.0734541061472314  1.0000
  O   O7        1.0  0.3548953927377454  0.9877296381421128  0.05725500123973147  1.0000
  O   O8        1.0  0.3566866690268639  0.1912968171895315  0.045304491883015885  1.0000
  O   O9        1.0  0.18814295481894314  0.3531943393675687  0.04719116870300158  1.0000
  O   O10       1.0  0.975796381329445  0.35101990944848876  0.05832468968971228  1.0000
  O   O11       1.0  0.1596379658041158  0.16471779168123388  0.010152633773060391  1.0000
  O   O12       1.0  0.4733365704567588  0.3210547615423208  0.4652535233677497  1.0000
  O   O13       1.0  0.6827918908647561  0.3333055588796867  0.5469730708817123  1.0000
  O   O14       1.0  0.47155402749460495  0.3306910092610875  0.5625017599358983  1.0000
  O   O15       1.0  0.30237585097177083  0.49263515962394405  0.5617158099603613  1.0000
  O   O16       1.0  0.3019824574843638  0.695880681910438  0.543764129650647  1.0000
  O   O17       1.0  0.49415855336783915  0.6997074427285455  0.4307775699994068  1.0000
  O   O18       1.0  0.6955535833665462  0.5088673285150306  0.4327803417987822  1.0000
  O   O19       1.0  0.6821324898794996  0.33047754277652064  0.44900062736518714  1.0000
  O   O20       1.0  0.08554811040192331  0.9246659895756647  0.7927480125528774  1.0000
  O   O21       1.0  0.7405227731227553  0.18939062407277157  0.8087915266095678  1.0000
  O   O22       1.0  0.14560843736666837  0.19032427112379213  0.7879723589230564  1.0000
  O   O23       1.0  0.3034097390921601  0.481473474818827  0.4644212981845327  1.0000
  O   O24       1.0  0.25055110925243435  0.6806002673423066  0.7451881047687081  1.0000
  O   O25       1.0  0.4603120314592245  0.6432920453668769  0.8466232208556477  1.0000
  O   O26       1.0  0.4690147951811596  0.052465409322571994  0.7718614297977879  1.0000
  O   O27       1.0  0.5272249241774674  0.4752520106778347  0.7131745762703332  1.0000
  O   O28       1.0  0.3098654660213  0.682800779324502  0.44529383057133026  1.0000
  O   O29       1.0  0.5002791099711316  0.5170341290428765  0.49710875190326215  1.0000
  O   O30       1.0  0.9606894017101906  0.17839024266988443  0.970682567953993  1.0000
  O   O31       1.0  0.1594853406026004  0.9875752369430086  0.9642643111815586  1.0000
  O   O32       1.0  0.3479286088207657  0.9930739327883272  0.9582275593791465  1.0000
  O   O33       1.0  0.3616869908848983  0.19094840711190383  0.94713349084671  1.0000
  O   O34       1.0  0.6835798454055464  0.6982430240016054  0.476596900217622  1.0000
  O   O35       1.0  0.9699622417624024  0.9894800287018267  0.03140795723003723  1.0000
