data_image0
_chemical_formula_structural       Zn6H78C57N18O24
_chemical_formula_sum              "Zn6 H78 C57 N18 O24"
_cell_length_a       9.938392484063312
_cell_length_b       16.988235439527315
_cell_length_c       16.988962225003593
_cell_angle_alpha    116.28290824172645
_cell_angle_beta     101.23633885945115
_cell_angle_gamma    101.25853078927996

_space_group_name_H-M_alt    "P 1"
_space_group_IT_number       1

loop_
  _space_group_symop_operation_xyz
  'x, y, z'

loop_
  _atom_site_type_symbol
  _atom_site_label
  _atom_site_symmetry_multiplicity
  _atom_site_fract_x
  _atom_site_fract_y
  _atom_site_fract_z
  _atom_site_occupancy
  Zn  Zn1       1.0  0.6384095197505032  0.6837648396515165  0.3068583972867105  1.0000
  Zn  Zn2       1.0  0.3314870738324914  0.6929989159418856  0.37673123861467445  1.0000
  Zn  Zn3       1.0  0.9545855615963817  0.6231512111401191  0.31628400056010275  1.0000
  Zn  Zn4       1.0  0.1231479501133705  0.30748405145679675  0.6842747554724299  1.0000
  Zn  Zn5       1.0  0.43909755307856807  0.31576571700807676  0.6233462669913196  1.0000
  Zn  Zn6       1.0  0.8157903650707397  0.376722313840972  0.6925278139386535  1.0000
  H   H1        1.0  0.38021822760222795  0.37316049594622314  0.022225291709929734  1.0000
  H   H2        1.0  0.3582336868354049  0.9778143870537196  0.35093695161448607  1.0000
  H   H3        1.0  0.007449634346173212  0.6489689282886957  0.6267290955411229  1.0000
  H   H4        1.0  0.8686956577777707  0.36771952580687645  0.9782955914778881  1.0000
  H   H5        1.0  0.8907720801457512  0.021710093731989802  0.38950875142483454  1.0000
  H   H6        1.0  0.5013111573508199  0.6105301171733191  0.6322193489849399  1.0000
  H   H7        1.0  0.45492405916203177  0.3873652603996904  0.15890508953017973  1.0000
  H   H8        1.0  0.2962593823057206  0.8411458340341015  0.2285192106546889  1.0000
  H   H9        1.0  0.06813822583162477  0.7715605444870377  0.6126768222562619  1.0000
  H   H10       1.0  0.0001690777764480369  0.23164806813669972  0.869960726642127  1.0000
  H   H11       1.0  0.1306825843653812  0.13018175793169462  0.3618918836633754  1.0000
  H   H12       1.0  0.7688752268271628  0.6381222786190509  0.7681823449942942  1.0000
  H   H13       1.0  0.34761833073367404  0.5368397551277156  0.178290222798026  1.0000
  H   H14       1.0  0.1697058296453236  0.8217500289813419  0.3589458405174358  1.0000
  H   H15       1.0  0.8107544901797896  0.6411256350735287  0.46278325785660024  1.0000
  H   H16       1.0  0.6538157553045706  0.362873081863846  0.8217645569258922  1.0000
  H   H17       1.0  0.8321841272682136  0.1783271326829379  0.5411171475843446  1.0000
  H   H18       1.0  0.2910525896662364  0.45875925087005254  0.6370780044729544  1.0000
  H   H19       1.0  0.24654143567316567  0.3255942759191157  0.8789370575939728  1.0000
  H   H20       1.0  0.3677747547426761  0.12112349047429662  0.44664389730142073  1.0000
  H   H21       1.0  0.9214499849028001  0.5535156440325368  0.6746443957081498  1.0000
  H   H22       1.0  0.8825141503796201  0.4516549587782708  0.12356758152598263  1.0000
  H   H23       1.0  0.7593314855483442  0.876385197158193  0.3278926558183387  1.0000
  H   H24       1.0  0.4312596367012702  0.6719414732180979  0.5483504758839929  1.0000
  H   H25       1.0  0.7657589675114167  0.1682262506795738  0.8844348098091218  1.0000
  H   H26       1.0  0.8817953986142866  0.1157744339813291  0.2840997860740231  1.0000
  H   H27       1.0  0.5979400149232816  0.7160133887772064  0.8316367703784808  1.0000
  H   H28       1.0  0.7365152417204398  0.1429994639319574  0.7677372254422538  1.0000
  H   H29       1.0  0.9692482413494331  0.2324450544850052  0.375646693140304  1.0000
  H   H30       1.0  0.5937466535883262  0.6244638826505098  0.8567912939419318  1.0000
  H   H31       1.0  0.6855225925135001  0.23467881222869386  0.8451268290511464  1.0000
  H   H32       1.0  0.8408750379361649  0.15492800662377704  0.38984934476924593  1.0000
  H   H33       1.0  0.45117667228398534  0.6102836581371777  0.7651218566842319  1.0000
  H   H34       1.0  0.5472010945578915  0.2551482328589003  0.09361168315656704  1.0000
  H   H35       1.0  0.45349504406173213  0.9065049740442819  0.16147260678135228  1.0000
  H   H36       1.0  0.2927085729069817  0.8383688538879073  0.7448347071961197  1.0000
  H   H37       1.0  0.6526876379125851  0.33870994482131783  0.21123333083455983  1.0000
  H   H38       1.0  0.4415729060666536  0.7888976730020831  0.12740309408399508  1.0000
  H   H39       1.0  0.31454704739941525  0.8725189361039158  0.6613026131781441  1.0000
  H   H40       1.0  0.7203310412123258  0.3315163181518345  0.11907084327370408  1.0000
  H   H41       1.0  0.6013584513212322  0.8811486983351671  0.2122714807398226  1.0000
  H   H42       1.0  0.3893987592628676  0.7875342414956564  0.6684207591381581  1.0000
  H   H43       1.0  0.5946285676601306  0.6192614803013045  0.10689018308408296  1.0000
  H   H44       1.0  0.4877477550280461  0.8930143423032891  0.5124819458326545  1.0000
  H   H45       1.0  0.9752613225898017  0.48765267787667455  0.38083123188164353  1.0000
  H   H46       1.0  0.6141004767866107  0.7137488739597089  0.08744210358090503  1.0000
  H   H47       1.0  0.52677816962764  0.9127757821463477  0.6265173716670844  1.0000
  H   H48       1.0  0.9000159064136  0.3737020103038305  0.28643094048772627  1.0000
  H   H49       1.0  0.24106665641140532  0.5872092377841371  0.9965093593370826  1.0000
  H   H50       1.0  0.24462346010951558  0.0035455805835412006  0.59073781139265  1.0000
  H   H51       1.0  0.6535175023638689  0.40931194063103504  0.4128553129429734  1.0000
  H   H52       1.0  0.0009652847548550322  0.6957233108343388  0.02707213124165269  1.0000
  H   H53       1.0  0.9738787214337207  0.9728349631170733  0.6684409923739809  1.0000
  H   H54       1.0  0.3050775319708734  0.331316616313707  0.30435080264200576  1.0000
  H   H55       1.0  0.08717346751024733  0.6761325530444539  0.11576310239124886  1.0000
  H   H56       1.0  0.9712927186828682  0.8841765427970715  0.5601308792810616  1.0000
  H   H57       1.0  0.410655840429861  0.43960416214081743  0.32378243558524394  1.0000
  H   H58       1.0  0.9143047255905046  0.5297381853518673  0.9349524635831871  1.0000
  H   H59       1.0  0.9795171270542795  0.06507708822692851  0.5946511565161856  1.0000
  H   H60       1.0  0.38466683235135696  0.4052337463217271  0.4702999509450408  1.0000
  H   H61       1.0  0.4293904524342054  0.604292111856907  0.9259241822305457  1.0000
  H   H62       1.0  0.5035431713146394  0.07425004720701621  0.6781583558499591  1.0000
  H   H63       1.0  0.8250712007789146  0.3218608193624419  0.3962066141407234  1.0000
  H   H64       1.0  0.41013156239946374  0.5150590237400581  0.9552648729563773  1.0000
  H   H65       1.0  0.45476743327955654  0.044583460111567816  0.559517806327392  1.0000
  H   H66       1.0  0.89475598751698  0.4405236570422134  0.48514399000691116  1.0000
  H   H67       1.0  0.6787742648054119  0.5391250317627653  0.9621640555618002  1.0000
  H   H68       1.0  0.7165964343322528  0.037842601603784914  0.5768490779492695  1.0000
  H   H69       1.0  0.13952246486808662  0.4230107278902012  0.4609497835507171  1.0000
  H   H70       1.0  0.7294876340994492  0.6489730684656438  0.9705364035656104  1.0000
  H   H71       1.0  0.7590833273924034  0.02950820474322311  0.6783209554844021  1.0000
  H   H72       1.0  0.08015945850185352  0.32153412942450643  0.3511321130526072  1.0000
  H   H73       1.0  0.8473872725529857  0.5987788578427955  0.11616875799585821  1.0000
  H   H74       1.0  0.7311999826926865  0.8838828034450759  0.48248985738676736  1.0000
  H   H75       1.0  0.24832888452519344  0.5172935357618585  0.4011370804200426  1.0000
  H   H76       1.0  0.874527310672967  0.7148429444921194  0.14275309950142673  1.0000
  H   H77       1.0  0.7317192870458558  0.8572144323012342  0.5719187243668815  1.0000
  H   H78       1.0  0.15928863130147156  0.4277798216961984  0.28513027902630483  1.0000
  C   C1        1.0  0.10769298115980067  0.4612850567355553  0.11307932154685583  1.0000
  C   C2        1.0  0.9950075562725401  0.886931154359239  0.34831717118133565  1.0000
  C   C3        1.0  0.6466123157022138  0.6516309117608259  0.5385099787594783  1.0000
  C   C4        1.0  0.48247214235449576  0.35156534415724394  0.8890063655494844  1.0000
  C   C5        1.0  0.593650981113626  0.1110871361917063  0.4625228021361494  1.0000
  C   C6        1.0  0.1313144158705698  0.5374897927869073  0.6485856786522322  1.0000
  C   C7        1.0  0.5646123694026457  0.37413607032205215  0.9827079097976397  1.0000
  C   C8        1.0  0.58213914123575  0.0173906379551028  0.3913735728778961  1.0000
  C   C9        1.0  0.19097566716283862  0.6086150906470564  0.6259931053293502  1.0000
  C   C10       1.0  0.925724480911569  0.2994807713500763  0.7989544064514931  1.0000
  C   C11       1.0  0.12714875721590596  0.20108384911605987  0.5006921909731475  1.0000
  C   C12       1.0  0.626467285747438  0.49932069581221594  0.700390175942161  1.0000
  C   C13       1.0  0.5492032337522018  0.39470618014563297  0.13453596440222534  1.0000
  C   C14       1.0  0.41490120416905546  0.8655322717710308  0.2601353893633134  1.0000
  C   C15       1.0  0.15502584047177947  0.7398336351372947  0.6053094440600831  1.0000
  C   C16       1.0  0.08880827791802662  0.3862898673599134  0.020889761095695375  1.0000
  C   C17       1.0  0.0683263470662399  0.9791458340712116  0.36551749082087814  1.0000
  C   C18       1.0  0.7027517650308397  0.6344080684647297  0.6134855372989565  1.0000
  C   C19       1.0  0.9177737843966439  0.2661160598939675  0.8691479930936198  1.0000
  C   C20       1.0  0.0490608277636824  0.1309184918584592  0.39715064969186653  1.0000
  C   C21       1.0  0.6519844392801133  0.6028610372910922  0.7337157053492621  1.0000
  C   C22       1.0  0.23759843787208013  0.5280685227568114  0.18083003737418582  1.0000
  C   C23       1.0  0.05712212029085617  0.8191969631158075  0.34750134535546834  1.0000
  C   C24       1.0  0.7095823794341811  0.6525178084894208  0.47163311859517193  1.0000
  C   C25       1.0  0.5416202826558277  0.3506428360524084  0.8200735513421052  1.0000
  C   C26       1.0  0.7216904726199687  0.18000835204617974  0.5305641858327733  1.0000
  C   C27       1.0  0.19118592086095276  0.4693866137398218  0.6494030065978296  1.0000
  C   C28       1.0  0.3333264255932704  0.33097768742259603  0.8494190803947465  1.0000
  C   C29       1.0  0.4840690965432514  0.1506472236033574  0.4815474360223676  1.0000
  C   C30       1.0  0.0027675741225153434  0.5185592385886437  0.669235151471085  1.0000
  C   C31       1.0  0.9992673609982672  0.4838207041152671  0.15220432079652121  1.0000
  C   C32       1.0  0.8474128376219667  0.8477697147323512  0.3315736436179011  1.0000
  C   C33       1.0  0.5157117660473531  0.6683195092892192  0.5160787874313757  1.0000
  C   C34       1.0  0.6409097728864666  0.497655239773316  0.20035787403487165  1.0000
  C   C35       1.0  0.4408830599440066  0.7996735739948735  0.2972087783838831  1.0000
  C   C36       1.0  0.1436960818644621  0.7027258625447317  0.5023506914931561  1.0000
  C   C37       1.0  0.7667267692632365  0.19877795869093975  0.8394852513446979  1.0000
  C   C38       1.0  0.9277149789810363  0.1606448682550977  0.35959094291374777  1.0000
  C   C39       1.0  0.5682930658395263  0.6405079266524113  0.8010502526603958  1.0000
  C   C40       1.0  0.6229979211170614  0.3257938746302146  0.1399285185367206  1.0000
  C   C41       1.0  0.48315690820488316  0.8602127023726782  0.1857789569274858  1.0000
  C   C42       1.0  0.2977889606992221  0.8140960772353766  0.6741858838379218  1.0000
  C   C43       1.0  0.5918528001758999  0.6381683201453825  0.05271763170203769  1.0000
  C   C44       1.0  0.5391800193560955  0.9473367574944478  0.5854999862349574  1.0000
  C   C45       1.0  0.9534566078646378  0.414580556125138  0.3619907558972742  1.0000
  C   C46       1.0  0.990346976602865  0.6481262245816455  0.055350128552653755  1.0000
  C   C47       1.0  0.9349801292546901  0.944618717781893  0.5925987661068535  1.0000
  C   C48       1.0  0.3419558012368  0.40720607617856813  0.3518757865613794  1.0000
  C   C49       1.0  0.4382496205219936  0.5907156672968271  0.9844107286031021  1.0000
  C   C50       1.0  0.4538728932214653  0.015626108666566604  0.6061932176460233  1.0000
  C   C51       1.0  0.8473294627849057  0.3938291417179087  0.4095265149032628  1.0000
  C   C52       1.0  0.7120514264229243  0.6141911555537334  0.01093086826173105  1.0000
  C   C53       1.0  0.7011627029957239  0.9891006229200273  0.6031787853076696  1.0000
  C   C54       1.0  0.0975930533393949  0.3967054624312709  0.3858983988668357  1.0000
  C   C55       1.0  0.8557054901393568  0.6443179296010797  0.08597813422761662  1.0000
  C   C56       1.0  0.7697246258654643  0.9140318355675136  0.558210639670584  1.0000
  C   C57       1.0  0.21107482112869036  0.4415707591995855  0.3556610135085735  1.0000
  N   N1        1.0  0.20729872374793967  0.5861792057070192  0.25491047927116045  1.0000
  N   N2        1.0  0.9526321305471653  0.7450971740435649  0.33146199252951913  1.0000
  N   N3        1.0  0.6211558503281863  0.6685473437075587  0.41358179777857634  1.0000
  N   N4        1.0  0.4350698434477991  0.3312651076779148  0.7452461583557054  1.0000
  N   N5        1.0  0.6899385047908665  0.2547982058706354  0.5860522593050561  1.0000
  N   N6        1.0  0.10391730773063303  0.4139515860629147  0.668784407747225  1.0000
  N   N7        1.0  0.06052603754954333  0.558315407859574  0.2368809015493129  1.0000
  N   N8        1.0  0.8238922093662711  0.763090398311775  0.32142828024783665  1.0000
  N   N9        1.0  0.5023793025945764  0.6784953584449415  0.44156485292273145  1.0000
  N   N10       1.0  0.4873249206232231  0.37698935885552515  0.040571787456727425  1.0000
  N   N11       1.0  0.44699255564358975  0.9594879581241502  0.33639518265367524  1.0000
  N   N12       1.0  0.11080111300012879  0.663579826071903  0.6230364763307822  1.0000
  N   N13       1.0  0.9514522805545126  0.34293417305909923  0.9615895210599137  1.0000
  N   N14       1.0  0.9902811774818189  0.03844404401390731  0.3814752865755083  1.0000
  N   N15       1.0  0.6088534127303334  0.6185264999738184  0.6569222095385856  1.0000
  N   N16       1.0  0.3068462952782268  0.3194270990721932  0.7639188928144947  1.0000
  N   N17       1.0  0.5430553355298712  0.23611859224572387  0.555543795672179  1.0000
  N   N18       1.0  0.9876511534923295  0.4445496951940698  0.6807145962316599  1.0000
  O   O1        1.0  0.575523937836401  0.5554860892640363  0.20086232351621194  1.0000
  O   O2        1.0  0.37491661050431463  0.7990249024752675  0.3544751818459135  1.0000
  O   O3        1.0  0.020441173699922047  0.6453898403226648  0.44453874387789966  1.0000
  O   O4        1.0  0.8656283666492326  0.3603246897535898  0.8028069825890257  1.0000
  O   O5        1.0  0.06318985247978759  0.19720248579337615  0.5576792391519519  1.0000
  O   O6        1.0  0.5056126314457642  0.44232072434552083  0.6394463384780948  1.0000
  O   O7        1.0  0.9876991805901479  0.262135375717591  0.7396833534110314  1.0000
  O   O8        1.0  0.2483568643091587  0.26040567695921624  0.5226070559256756  1.0000
  O   O9        1.0  0.7256074030257622  0.4773905586519335  0.7378943031086893  1.0000
  O   O10       1.0  0.7684773000332469  0.5179702037281545  0.2506106162925336  1.0000
  O   O11       1.0  0.5183204423650877  0.7495202279496169  0.2672810222230171  1.0000
  O   O12       1.0  0.25092995044527566  0.7327013825354386  0.48203529573259385  1.0000
  O   O13       1.0  0.699235971101018  0.3901786833596504  0.006123134935016614  1.0000
  O   O14       1.0  0.6933526088303028  0.9940051960631566  0.38396311286722123  1.0000
  O   O15       1.0  0.3096128621953085  0.6160431078920681  0.6100462226772194  1.0000
  O   O16       1.0  0.19266711957370566  0.3616847133772366  0.997474172657917  1.0000
  O   O17       1.0  0.19561181905706349  0.0025833951974263  0.3643133923212218  1.0000
  O   O18       1.0  0.8312364128880461  0.6355292562900419  0.6380104143215493  1.0000
  O   O19       1.0  0.34156065171403344  0.625501931118585  0.033526138621582054  1.0000
  O   O20       1.0  0.3081175943105094  0.9665552105373366  0.5920533201403091  1.0000
  O   O21       1.0  0.715705079100907  0.40789652809061056  0.37452108150562685  1.0000
  O   O22       1.0  0.9984811036949353  0.5602434186433527  0.9904871339726854  1.0000
  O   O23       1.0  0.008081840906115198  0.0095112391269723  0.5696168835284325  1.0000
  O   O24       1.0  0.43811693175164385  0.43036286434868043  0.4397594798013032  1.0000
