data_image0
_chemical_formula_structural       K4H8C12N12O8
_chemical_formula_sum              "K4 H8 C12 N12 O8"
_cell_length_a       6.398642881384084
_cell_length_b       9.597317423337461
_cell_length_c       10.339573513859865
_cell_angle_alpha    110.79177327721871
_cell_angle_beta     98.41208624785692
_cell_angle_gamma    110.5514825094665

_space_group_name_H-M_alt    "P 1"
_space_group_IT_number       1

loop_
  _space_group_symop_operation_xyz
  'x, y, z'

loop_
  _atom_site_type_symbol
  _atom_site_label
  _atom_site_symmetry_multiplicity
  _atom_site_fract_x
  _atom_site_fract_y
  _atom_site_fract_z
  _atom_site_occupancy
  K   K1        1.0  0.2857705209301711  0.5493711011277039  0.8420838167230826  1.0000
  K   K2        1.0  0.9432761754832266  0.7074443126972695  0.15841427079139686  1.0000
  K   K3        1.0  0.029931667198347445  0.6245239108923925  0.5040057793628492  1.0000
  K   K4        1.0  0.02554913176425798  0.1206277759292718  0.49614835545941116  1.0000
  H   H1        1.0  0.384299224658278  0.9228707301157257  0.3851240694803267  1.0000
  H   H2        1.0  0.49940021759790904  0.5379998229578292  0.6148925663348308  1.0000
  H   H3        1.0  0.3571890319483159  0.9733110019709983  0.5442846803626652  1.0000
  H   H4        1.0  0.3131534204569632  0.4289640359462438  0.4558037436949434  1.0000
  H   H5        1.0  0.7114401819284308  0.2848668852190386  0.4703264243470144  1.0000
  H   H6        1.0  0.7411421354241126  0.8145118126422728  0.5295090660124515  1.0000
  H   H7        1.0  0.7054715279057645  0.3404305496805477  0.6332622674655611  1.0000
  H   H8        1.0  0.5721749448023273  0.7068881368372216  0.3666626065566234  1.0000
  C   C1        1.0  0.3961707038523769  0.9535036654255649  0.8802924125438097  1.0000
  C   C2        1.0  0.015640893785302996  0.072826243144938  0.11969148608388741  1.0000
  C   C3        1.0  0.475339075479688  0.10367679690188679  0.8576995466100075  1.0000
  C   C4        1.0  0.11714136153401705  0.245585132408813  0.1422719444196616  1.0000
  C   C5        1.0  0.5899056419251706  0.2651000843581812  0.9715273298430136  1.0000
  C   C6        1.0  0.11787428276667805  0.29330572062688276  0.028449874128774907  1.0000
  C   C7        1.0  0.6500083195736082  0.3039863051314314  0.12670554643212034  1.0000
  C   C8        1.0  0.023012247217600562  0.17738549548221977  0.8733108355491624  1.0000
  C   C9        1.0  0.5694636507948445  0.15408162517717727  0.1493430947639283  1.0000
  C   C10       1.0  0.920134557296535  0.0048349016785565  0.8506520287758691  1.0000
  C   C11       1.0  0.4521749530173123  0.9926422509936543  0.03556142399921206  1.0000
  C   C12       1.0  0.9164744442761472  0.9569296137030746  0.9643942331611086  1.0000
  N   N1        1.0  0.45953905055447547  0.11812548071365109  0.7316603099970395  1.0000
  N   N2        1.0  0.22768924423677808  0.38591893678104566  0.268302109974428  1.0000
  N   N3        1.0  0.5589034402282917  0.2807895864448468  0.7669733632389466  1.0000
  N   N4        1.0  0.29187125892674687  0.5132817697146874  0.23293894854984393  1.0000
  N   N5        1.0  0.6394825221792998  0.3729631147119079  0.9120357483564379  1.0000
  N   N6        1.0  0.22720829511652588  0.4605601274768745  0.08788865733315987  1.0000
  N   N7        1.0  0.40448625640372154  0.8850412586282488  0.09540603558393462  1.0000
  N   N8        1.0  0.8089506367839615  0.7895616649584125  0.9044831978806797  1.0000
  N   N9        1.0  0.4901058320657582  0.9777862608632475  0.2404373913224802  1.0000
  N   N10       1.0  0.749624881401729  0.7375633787203313  0.7594536200062691  1.0000
  N   N11       1.0  0.5898542813697459  0.14031979057106275  0.27567840632158896  1.0000
  N   N12       1.0  0.8142306546364179  0.8649575590734812  0.7242881524551167  1.0000
  O   O1        1.0  0.7591440175993893  0.4472437317974423  0.22575392600479924  1.0000
  O   O2        1.0  0.03283241326973747  0.22188924969508858  0.7743282840119577  1.0000
  O   O3        1.0  0.29530072877133035  0.8098110070644042  0.7812625706673586  1.0000
  O   O4        1.0  0.013803065112689694  0.02811555751151929  0.2187535934674614  1.0000
  O   O5        1.0  0.2742261656924824  0.893787680734178  0.43960854575868785  1.0000
  O   O6        1.0  0.3348972965634828  0.45445896666904406  0.5605800264755203  1.0000
  O   O7        1.0  0.8096703237314385  0.36005629432219166  0.5733357182024008  1.0000
  O   O8        1.0  0.7362508280406173  0.7864649050593612  0.42641402533126893  1.0000
