data_image0
_chemical_formula_structural       Zn2H52C46N4O12
_chemical_formula_sum              "Zn2 H52 C46 N4 O12"
_cell_length_a       9.668269754413348
_cell_length_b       10.907328923953155
_cell_length_c       17.005818306161604
_cell_angle_alpha    88.41208521161444
_cell_angle_beta     99.39429185455728
_cell_angle_gamma    96.19287605759895

_space_group_name_H-M_alt    "P 1"
_space_group_IT_number       1

loop_
  _space_group_symop_operation_xyz
  'x, y, z'

loop_
  _atom_site_type_symbol
  _atom_site_label
  _atom_site_symmetry_multiplicity
  _atom_site_fract_x
  _atom_site_fract_y
  _atom_site_fract_z
  _atom_site_occupancy
  Zn  Zn1       1.0  0.3347118541990922  0.4828426510601533  0.4828587224368377  1.0000
  Zn  Zn2       1.0  0.6412657387168823  0.5183398129370361  0.5187313371473508  1.0000
  H   H1        1.0  0.35677923458497673  0.3945777558924703  0.0960253448190826  1.0000
  H   H2        1.0  0.17801845262447807  0.04380245587545771  0.6561798475634575  1.0000
  H   H3        1.0  0.048145831630144194  0.13756873954473997  0.608527052982808  1.0000
  H   H4        1.0  0.15533155503787552  0.22601066845997766  0.7431676380222997  1.0000
  H   H5        1.0  0.19839259351098795  0.3276606681509903  0.6660027652009718  1.0000
  H   H6        1.0  0.42875931361024305  0.2310911925341443  0.6731908752437761  1.0000
  H   H7        1.0  0.38926232376676506  0.1475647030475571  0.7576978907796956  1.0000
  H   H8        1.0  0.7481542186454108  0.9262842146709503  0.3994000526527586  1.0000
  H   H9        1.0  0.8019675371431632  0.9890971404117296  0.3103691728231865  1.0000
  H   H10       1.0  0.6533230175138556  0.0391419870956398  0.3443488788613394  1.0000
  H   H11       1.0  0.5758220155573994  0.8914750053407449  0.23018190565736055  1.0000
  H   H12       1.0  0.6132660018591664  0.627396681623111  0.9051968785500506  1.0000
  H   H13       1.0  0.519749483399913  0.8297653272602904  0.3177217087378423  1.0000
  H   H14       1.0  0.7237757021139687  0.7047235965099504  0.34325718405054323  1.0000
  H   H15       1.0  0.7878450795862548  0.7692656501945122  0.2582496332040947  1.0000
  H   H16       1.0  0.37879850327286135  0.04774431261952121  0.021125040356423604  1.0000
  H   H17       1.0  0.33931768252011096  0.9733173435024867  0.9274036838617903  1.0000
  H   H18       1.0  0.5044553225273277  0.9614285133468388  0.9889350606448984  1.0000
  H   H19       1.0  0.534749141778633  0.1148145838539065  0.8784995623852865  1.0000
  H   H20       1.0  0.5711775842762564  0.1896571580223281  0.9713016186635386  1.0000
  H   H21       1.0  0.3319915901435451  0.2582823827991447  0.9517250550721102  1.0000
  H   H22       1.0  0.28737832058046553  0.180523752073114  0.8596138530499503  1.0000
  H   H23       1.0  0.3375682074859725  0.40726521377428787  0.24134834386585172  1.0000
  H   H24       1.0  0.9025161747144422  0.7841519964867983  0.007112800036807691  1.0000
  H   H25       1.0  0.9732096505265703  0.8535005790565366  0.10039971164609089  1.0000
  H   H26       1.0  0.049573564155004114  0.7268262910387905  0.06807405049222132  1.0000
  H   H27       1.0  0.8984563354031606  0.6552561313292388  0.1708446782121911  1.0000
  H   H28       1.0  0.8273643914959123  0.5875997372544647  0.07794776119780518  1.0000
  H   H29       1.0  0.6582284725749403  0.7450406418464225  0.049789865911179704  1.0000
  H   H30       1.0  0.7257764981197781  0.8160735341895775  0.14237711510209286  1.0000
  H   H31       1.0  0.7872717083480509  0.26475596235285787  0.6548189683108632  1.0000
  H   H32       1.0  0.03779331553322151  0.7952609863232282  0.43663206374854724  1.0000
  H   H33       1.0  0.783514085050257  0.7884978928192011  0.702943305439554  1.0000
  H   H34       1.0  0.6260776642599382  0.6251105366846018  0.7587491117846099  1.0000
  H   H35       1.0  0.9610638849397688  0.8063579563449181  0.7524564690718378  1.0000
  H   H36       1.0  0.8964383969976097  0.9230351728612192  0.6860228471744847  1.0000
  H   H37       1.0  0.04041390027241221  0.80030323713855  0.6152519355231619  1.0000
  H   H38       1.0  0.8610964390585494  0.7728052037533643  0.5717974829006353  1.0000
  H   H39       1.0  0.839604883781405  0.5799342134225398  0.6594031617821514  1.0000
  H   H40       1.0  0.024312495831942685  0.6040687217527462  0.6918832354650419  1.0000
  H   H41       1.0  0.9998411960075233  0.19998545276539664  0.24422986349082274  1.0000
  H   H42       1.0  0.17520711910487563  0.2030705787886333  0.296111553349327  1.0000
  H   H43       1.0  0.0509775400669312  0.07362327831044982  0.3061438616916519  1.0000
  H   H44       1.0  0.0878603351655229  0.20979042536462347  0.4273513754062392  1.0000
  H   H45       1.0  0.6907532342343431  0.9121835349847627  0.56752583741752  1.0000
  H   H46       1.0  0.9123979748592037  0.2034031116628583  0.37826354229621734  1.0000
  H   H47       1.0  0.9632997498116113  0.4053356355032847  0.3118398650843162  1.0000
  H   H48       1.0  0.1449231643882882  0.4092328642262332  0.3509482785230276  1.0000
  H   H49       1.0  0.2629284523660047  0.0864220485721532  0.42843246126532364  1.0000
  H   H50       1.0  0.19261016606701992  0.570269289377528  0.5994483696901085  1.0000
  H   H51       1.0  0.7857302724477861  0.4199195503316134  0.4078117812620122  1.0000
  H   H52       1.0  0.21698042064736714  0.1500800014610419  0.5798392031809243  1.0000
  C   C1        1.0  0.4669121297102663  0.2630417927672327  0.48177426344798857  1.0000
  C   C2        1.0  0.8780135612243214  0.4536903799792498  0.45021526970521825  1.0000
  C   C3        1.0  0.49197096803631984  0.5456770619148941  0.3508253385808118  1.0000
  C   C4        1.0  0.5096537541465055  0.4569284272831667  0.6538847513487696  1.0000
  C   C5        1.0  0.5031314069068314  0.5563454761402937  0.2640778247918689  1.0000
  C   C6        1.0  0.5052699129979102  0.4469073602236905  0.7413591894586347  1.0000
  C   C7        1.0  0.600510972903301  0.6423480195405203  0.23242550313755578  1.0000
  C   C8        1.0  0.438407813180774  0.3428684348321696  0.7759004532276208  1.0000
  C   C9        1.0  0.6064703063996503  0.6386676551631253  0.1500504747175953  1.0000
  C   C10       1.0  0.43604208107104375  0.34209525755635883  0.8588203562484723  1.0000
  C   C11       1.0  0.521235186750225  0.5453212073958653  0.10282794340248812  1.0000
  C   C12       1.0  0.4848973759714639  0.7356991551549045  0.5177873908818711  1.0000
  C   C13       1.0  0.4972204567780595  0.44746745020356826  0.9037422006384618  1.0000
  C   C14       1.0  0.4232665613571739  0.46235166513177006  0.1350375808838749  1.0000
  C   C15       1.0  0.5655661246086724  0.5494796132244915  0.8679701643739222  1.0000
  C   C16       1.0  0.4133620164222975  0.46962683783753073  0.21475499129052622  1.0000
  C   C17       1.0  0.5715185187846004  0.5480267089269263  0.7875129852569601  1.0000
  C   C18       1.0  0.5960887061833945  0.07900825423048731  0.5289437597054487  1.0000
  C   C19       1.0  0.3574155148402127  0.9195743835527496  0.46687754321627745  1.0000
  C   C20       1.0  0.3732056127652541  0.23422314703792327  0.7244721046892693  1.0000
  C   C21       1.0  0.21492561937128582  0.2364296580272408  0.6929141046983958  1.0000
  C   C22       1.0  0.1609209671025269  0.1361830783412969  0.6312072024070405  1.0000
  C   C23       1.0  0.5977958687018585  0.9517878751213755  0.536827361094737  1.0000
  C   C24       1.0  0.6911575952282405  0.7416846869930964  0.2833057763226918  1.0000
  C   C25       1.0  0.6144477994326323  0.8565344541751543  0.2903378328521526  1.0000
  C   C26       1.0  0.7094425376405482  0.9582254671589822  0.33863854831854917  1.0000
  C   C27       1.0  0.37493458358310516  0.22960179601150096  0.9000446935893507  1.0000
  C   C28       1.0  0.4860783637341869  0.1403246748023719  0.9291797285875063  1.0000
  C   C29       1.0  0.4239919934346972  0.024394201110702306  0.9688195790177757  1.0000
  C   C30       1.0  0.7070019918545755  0.7272002956680839  0.11148660750276922  1.0000
  C   C31       1.0  0.848742628881709  0.6761524977733019  0.10956085291048372  1.0000
  C   C32       1.0  0.9491925638668591  0.764891717908206  0.06910494004367254  1.0000
  C   C33       1.0  0.7237576775597745  0.1615190495528012  0.5647289309715262  1.0000
  C   C34       1.0  0.3562013728976652  0.04692927390890131  0.4587732507285196  1.0000
  C   C35       1.0  0.22867791004220814  0.8417287004265005  0.42698683042789304  1.0000
  C   C36       1.0  0.9397915372258012  0.6192556338851744  0.641908942233286  1.0000
  C   C37       1.0  0.9363531193855156  0.7591219348345251  0.6264627949300065  1.0000
  C   C38       1.0  0.8920522434271021  0.8227560296302769  0.6958407520191798  1.0000
  C   C39       1.0  0.03872876965228041  0.37741836375694504  0.3632882324306834  1.0000
  C   C40       1.0  0.02182663239904061  0.23561870534519622  0.3717546845692681  1.0000
  C   C41       1.0  0.0640226452558394  0.1747328397953112  0.3007102550603378  1.0000
  C   C42       1.0  0.4793844335036895  0.8716214396958011  0.5067647011820142  1.0000
  C   C43       1.0  0.47405321963670133  0.12699557586978474  0.4895039984516671  1.0000
  C   C44       1.0  0.964309542360645  0.5527098551442363  0.5704321975944779  1.0000
  C   C45       1.0  0.014063899577990896  0.440172539696178  0.4360902808269387  1.0000
  C   C46       1.0  0.099987771756183  0.5376267815273224  0.5568368038729403  1.0000
  N   N1        1.0  0.5364343256662281  0.5436830855380492  0.02208016166560609  1.0000
  N   N2        1.0  0.48685225094111223  0.44449479618116783  0.9857111225222327  1.0000
  N   N3        1.0  0.1239709544196756  0.4835465825783486  0.49111191819987704  1.0000
  N   N4        1.0  0.8539467273391068  0.5096557414429697  0.5151268728488603  1.0000
  O   O1        1.0  0.3444139113864964  0.2992620836916728  0.4691352653537209  1.0000
  O   O2        1.0  0.7065807752545085  0.2044285422832673  0.6362906872519717  1.0000
  O   O3        1.0  0.21607587908879114  0.7978113741154402  0.36080773671661603  1.0000
  O   O4        1.0  0.12039930110572782  0.8386551321430176  0.4696065020629733  1.0000
  O   O5        1.0  0.6054395389314565  0.6976608873949744  0.538669015898499  1.0000
  O   O6        1.0  0.5834427749907505  0.33113707383504487  0.4896608049097964  1.0000
  O   O7        1.0  0.36711978253590877  0.669485699031526  0.5047880733005528  1.0000
  O   O8        1.0  0.37000688336974  0.5162691170519623  0.3690203095291267  1.0000
  O   O9        1.0  0.6321307604149737  0.4737825525638825  0.6338877728112209  1.0000
  O   O10       1.0  0.6061218009762115  0.5606688053572314  0.4007306040596461  1.0000
  O   O11       1.0  0.3937130650240306  0.45316046975511176  0.6062645666118627  1.0000
  O   O12       1.0  0.8322251706204256  0.1813023510635148  0.5363539231613998  1.0000
