data_image0
_chemical_formula_structural       La2H22C34O22
_chemical_formula_sum              "La2 H22 C34 O22"
_cell_length_a       8.891346858151996
_cell_length_b       8.902368007155461
_cell_length_c       12.727453413626915
_cell_angle_alpha    81.95756978782258
_cell_angle_beta     69.30030769760194
_cell_angle_gamma    60.92654757272096

_space_group_name_H-M_alt    "P 1"
_space_group_IT_number       1

loop_
  _space_group_symop_operation_xyz
  'x, y, z'

loop_
  _atom_site_type_symbol
  _atom_site_label
  _atom_site_symmetry_multiplicity
  _atom_site_fract_x
  _atom_site_fract_y
  _atom_site_fract_z
  _atom_site_occupancy
  La  La1       1.0  0.08558659878670488  0.7655498785351823  0.5846558324589709  1.0000
  La  La2       1.0  0.9144134850237937  0.2344495581386211  0.41534460502542453  1.0000
  H   H1        1.0  0.546212499585707  0.8153641665160335  0.4611847398225566  1.0000
  H   H2        1.0  0.45378575787849934  0.18463653734533378  0.5388144446202219  1.0000
  H   H3        1.0  0.485675649464966  0.0043688400673574  0.1423419924839777  1.0000
  H   H4        1.0  0.5143243604494148  0.9956331653762904  0.8576581999186034  1.0000
  H   H5        1.0  0.9316758886044526  0.9674394899152504  0.22688050511879967  1.0000
  H   H6        1.0  0.0683248341892835  0.03255866059596709  0.7731199073191632  1.0000
  H   H7        1.0  0.7211399900449469  0.9077459002067413  0.986037883599515  1.0000
  H   H8        1.0  0.2788581768158452  0.09225739495482087  0.013962629024163703  1.0000
  H   H9        1.0  0.8549949734605278  0.008112881119487306  0.8988988854581381  1.0000
  H   H10       1.0  0.1450050364538527  0.9918891243241604  0.10110130694444311  1.0000
  H   H11       1.0  0.8329262830134568  0.27248861970356586  0.9387334360625775  1.0000
  H   H12       1.0  0.16707318687475955  0.7275120693372938  0.06126466657416074  1.0000
  H   H13       1.0  0.059668499940784124  0.5361735020551707  0.8432411117358786  1.0000
  H   H14       1.0  0.9403340826138444  0.46382333620778843  0.15675740721826514  1.0000
  H   H15       1.0  0.6193348235668382  0.6636096305796998  0.7137989859211589  1.0000
  H   H16       1.0  0.3806627865604854  0.3363923707094257  0.28620101019940597  1.0000
  H   H17       1.0  0.3406136492985895  0.3695449737421939  0.8861414586485239  1.0000
  H   H18       1.0  0.659386442865561  0.6304544516664378  0.11385819220451052  1.0000
  H   H19       1.0  0.2157490326230232  0.4000266704994145  0.49625987878270206  1.0000
  H   H20       1.0  0.7842492081338861  0.5999740558922967  0.5037408789227912  1.0000
  H   H21       1.0  0.3939819521020597  0.4298155172361575  0.44531621589057835  1.0000
  H   H22       1.0  0.6060169443453917  0.5701839004626238  0.5546829435057674  1.0000
  C   C1        1.0  0.8451462999195416  0.855316010922408  0.43513614588764676  1.0000
  C   C2        1.0  0.1548538494334295  0.14468086824673074  0.5648653233099241  1.0000
  C   C3        1.0  0.748773490929466  0.8890855287977998  0.3530804214552249  1.0000
  C   C4        1.0  0.2512253888106812  0.11091391143133218  0.6469203112038501  1.0000
  C   C5        1.0  0.5975768019740644  0.8614928467239409  0.3798548273752189  1.0000
  C   C6        1.0  0.4024208653420801  0.1385066083256916  0.6201469870898821  1.0000
  C   C7        1.0  0.504478246019417  0.9038777233963202  0.30319289013531403  1.0000
  C   C8        1.0  0.4955224112318534  0.09612298461956931  0.6968064905894737  1.0000
  C   C9        1.0  0.3297962336391082  0.8942957893931478  0.3373921722229056  1.0000
  C   C10       1.0  0.6702037929825766  0.10570619352014887  0.6626064469169536  1.0000
  C   C11       1.0  0.5652326550468846  0.9667084650040393  0.19842256882810722  1.0000
  C   C12       1.0  0.4347667242379175  0.03329481533702251  0.8015768619895455  1.0000
  C   C13       1.0  0.7241189509471655  0.9815886422615492  0.1694565600700031  1.0000
  C   C14       1.0  0.2758798548968571  0.018413366737426905  0.8305439275072504  1.0000
  C   C15       1.0  0.8120354717469951  0.9490919489802963  0.2481285978818236  1.0000
  C   C16       1.0  0.18796636451367732  0.05090878927579469  0.7518728475623746  1.0000
  C   C17       1.0  0.7453472171538851  0.019447825805080806  0.9771540555572218  1.0000
  C   C18       1.0  0.2546515886901375  0.9805541831938882  0.022846432020031768  1.0000
  C   C19       1.0  0.590035642573632  0.3021130673459567  0.9146627508768577  1.0000
  C   C20       1.0  0.4099638189609326  0.6978876329600819  0.08533613839124139  1.0000
  C   C21       1.0  0.7307998670910439  0.34225668764292283  0.897313341064468  1.0000
  C   C22       1.0  0.2691995860898688  0.6577440239282949  0.10268633483499198  1.0000
  C   C23       1.0  0.7386534572648102  0.47431026089454786  0.8246173757534196  1.0000
  C   C24       1.0  0.26134720834011216  0.5256904358561627  0.1753812183400072  1.0000
  C   C25       1.0  0.8853052674943174  0.523747671961722  0.796892961366652  1.0000
  C   C26       1.0  0.11469484137713697  0.4762517309165588  0.20310511622366081  1.0000
  C   C27       1.0  0.6077900318934655  0.5645352453119089  0.7715182019693289  1.0000
  C   C28       1.0  0.39221064206510187  0.4354654401736298  0.22847960549273694  1.0000
  C   C29       1.0  0.4622510150056129  0.5297535241640929  0.7948818706548267  1.0000
  C   C30       1.0  0.5377509118584742  0.470244622791803  0.20511824660846406  1.0000
  C   C31       1.0  0.3280146316374799  0.6221688750543991  0.7339269180900488  1.0000
  C   C32       1.0  0.6719848215434395  0.3778318365168118  0.2660727578094112  1.0000
  C   C33       1.0  0.45128205954638645  0.40067899108500876  0.8684379674994036  1.0000
  C   C34       1.0  0.5487192450417668  0.5993204195031153  0.1315606015475907  1.0000
  O   O1        1.0  0.8590691356958118  0.7341345681050129  0.5034953022201452  1.0000
  O   O2        1.0  0.14092670527403336  0.26586615413217624  0.49650525920333893  1.0000
  O   O3        1.0  0.9175454310796244  0.9493970017704141  0.4351530485665123  1.0000
  O   O4        1.0  0.08245536561022963  0.0505985799709663  0.5648476089532722  1.0000
  O   O5        1.0  0.31346696303452165  0.7797685557874842  0.40466107408644814  1.0000
  O   O6        1.0  0.6865324985000428  0.2202321445185547  0.5953378151816581  1.0000
  O   O7        1.0  0.20647352712223477  0.009105411042220603  0.2985619960464876  1.0000
  O   O8        1.0  0.793528325845735  0.9908953046835192  0.7014378761349889  1.0000
  O   O9        1.0  0.8026234162459931  0.029152716771967797  0.0653878360116877  1.0000
  O   O10       1.0  0.19737721594432137  0.9708480250394516  0.934613904607183  1.0000
  O   O11       1.0  0.5782313494808734  0.1651649151786501  0.9759706154291126  1.0000
  O   O12       1.0  0.42176928270944103  0.8348358266327695  0.02403112518975791  1.0000
  O   O13       1.0  0.9718797831398266  0.4857028679269532  0.8712456220095036  1.0000
  O   O14       1.0  0.028123438398040445  0.5142926841734193  0.1287528718982074  1.0000
  O   O15       1.0  0.9205849441464272  0.5989707012779917  0.7092852671395705  1.0000
  O   O16       1.0  0.07941329661048263  0.40103002511372665  0.2907154905659226  1.0000
  O   O17       1.0  0.1629347395362687  0.6490803236998702  0.7784234963120514  1.0000
  O   O18       1.0  0.837065335920578  0.3509191242391125  0.22157772780370513  1.0000
  O   O19       1.0  0.3805764369171671  0.6738294788422436  0.6353237884898848  1.0000
  O   O20       1.0  0.6194224428229804  0.3261699613868885  0.36467694416918306  1.0000
  O   O21       1.0  0.26432841649467775  0.4814719364712019  0.49555761268425164  1.0000
  O   O22       1.0  0.7356704799527665  0.5185274812275794  0.5044415467120944  1.0000
