data_image0
_chemical_formula_structural       Zn2H16C36N2O8F4
_chemical_formula_sum              "Zn2 H16 C36 N2 O8 F4"
_cell_length_a       13.975388135844787
_cell_length_b       15.304253261767144
_cell_length_c       16.23638650467912
_cell_angle_alpha    90.26729134849866
_cell_angle_beta     89.98304144675868
_cell_angle_gamma    90.0153832668117

_space_group_name_H-M_alt    "P 1"
_space_group_IT_number       1

loop_
  _space_group_symop_operation_xyz
  'x, y, z'

loop_
  _atom_site_type_symbol
  _atom_site_label
  _atom_site_symmetry_multiplicity
  _atom_site_fract_x
  _atom_site_fract_y
  _atom_site_fract_z
  _atom_site_occupancy
  Zn  Zn1       1.0  0.3996257852169762  0.4998805114069497  0.5000420118497855  1.0000
  Zn  Zn2       1.0  0.600496079898612  0.49992906882149407  0.4999677427290335  1.0000
  H   H1        1.0  0.35482014798938616  0.0582556791692852  0.4531657210306576  1.0000
  H   H2        1.0  0.6434617815771873  0.9390360927492623  0.45401030023356964  1.0000
  H   H3        1.0  0.3547781110798809  0.941500747229945  0.5468300022583461  1.0000
  H   H4        1.0  0.6434564282123176  0.0608509930156274  0.5460023238583387  1.0000
  H   H5        1.0  0.353661817803406  0.22103680969538433  0.4543294860313123  1.0000
  H   H6        1.0  0.642117296146509  0.7760375197803454  0.45593812216262086  1.0000
  H   H7        1.0  0.3536037631765864  0.7787148190254102  0.5456960870664883  1.0000
  H   H8        1.0  0.642112618612053  0.2238537895846306  0.5440637710437455  1.0000
  H   H9        1.0  0.9315294778480022  0.43204916164437185  0.3826760512275838  1.0000
  H   H10       1.0  0.06850504796948087  0.6267707005083238  0.5594266180949956  1.0000
  H   H11       1.0  0.9314779356349445  0.5678055883623969  0.6172829984086331  1.0000
  H   H12       1.0  0.06846153710792181  0.37308628598424326  0.4405478883808198  1.0000
  H   H13       1.0  0.7524385310294904  0.4353879203801938  0.38783745069414255  1.0000
  H   H14       1.0  0.24775901771575795  0.6208276625706902  0.5569228755255081  1.0000
  H   H15       1.0  0.7523906309040315  0.564464233226758  0.6121139031409438  1.0000
  H   H16       1.0  0.24772139679118513  0.37898955961724573  0.44309366505567016  1.0000
  C   C1        1.0  0.4968268652561462  0.3301583642191731  0.4993185974347012  1.0000
  C   C2        1.0  0.49683364122059703  0.669664165483198  0.5006994092566683  1.0000
  C   C3        1.0  0.4992045639870426  0.04807919377261529  0.4996591399039543  1.0000
  C   C4        1.0  0.4991999960385129  0.9517419626714486  0.5003625666913647  1.0000
  C   C5        1.0  0.8951916657834216  0.4614830535030663  0.4353200984886597  1.0000
  C   C6        1.0  0.10486571101439071  0.5698818502822008  0.5337080013626403  1.0000
  C   C7        1.0  0.8951665986634937  0.5383589107074512  0.5646426838044076  1.0000
  C   C8        1.0  0.10484589984658038  0.4299592059581414  0.46627377238026185  1.0000
  C   C9        1.0  0.7958154297610988  0.4631007090454772  0.4373195894360008  1.0000
  C   C10       1.0  0.20422312098877873  0.567580869928058  0.5324199656122273  1.0000
  C   C11       1.0  0.7957891405322215  0.5367463620021341  0.562632334664073  1.0000
  C   C12       1.0  0.2042021084475323  0.4322394265904136  0.4675892604566484  1.0000
  C   C13       1.0  0.9471540788968867  0.49993025365186133  0.49997321560201147  1.0000
  C   C14       1.0  0.052816108487071696  0.49993146304816355  0.49997879804211437  1.0000
  C   C15       1.0  0.5036602446806172  0.49884069191523395  0.3389781659316851  1.0000
  C   C16       1.0  0.5036607223060514  0.5010788753109452  0.6610254066089352  1.0000
  C   C17       1.0  0.4154328380254739  0.49985501508290753  0.9572644336580036  1.0000
  C   C18       1.0  0.5876350417254486  0.5007598973235332  0.04272792642221648  1.0000
  C   C19       1.0  0.41542999655667495  0.49967712579582  0.04275767074527439  1.0000
  C   C20       1.0  0.5876379278111231  0.5012756635356368  0.9572645076696698  1.0000
  C   C21       1.0  0.5015563750580085  0.5006737091478897  0.9119091271078898  1.0000
  C   C22       1.0  0.5015243836813069  0.49994579641998627  0.08809186578648107  1.0000
  C   C23       1.0  0.5018774489966874  0.5008967906153359  0.825235656504695  1.0000
  C   C24       1.0  0.5018250833033093  0.49949671657559236  0.17476898546751574  1.0000
  C   C25       1.0  0.5028998566647118  0.4990871511832822  0.2497458224211328  1.0000
  C   C26       1.0  0.5029206458508213  0.5010374004454262  0.7502553912656249  1.0000
  C   C27       1.0  0.417478407940294  0.0943898789408237  0.47447111563094047  1.0000
  C   C28       1.0  0.5802976396996938  0.9040167644988983  0.4755598239334516  1.0000
  C   C29       1.0  0.4174380198842158  0.9053825229021868  0.5255326116523233  1.0000
  C   C30       1.0  0.5803027819926854  0.0958392268918331  0.5244602828190208  1.0000
  C   C31       1.0  0.41673545173691917  0.18520655010076578  0.47439181852012496  1.0000
  C   C32       1.0  0.5796609798997991  0.8131219513395391  0.4758521983913794  1.0000
  C   C33       1.0  0.41670910000087946  0.8145670145164556  0.5256293456047059  1.0000
  C   C34       1.0  0.5796593337913407  0.1867299610044597  0.5241668300665765  1.0000
  C   C35       1.0  0.4977885055180379  0.23240728634590366  0.49920877074960385  1.0000
  C   C36       1.0  0.4977696209984471  0.7674082958441061  0.5008132861979246  1.0000
  N   N1        1.0  0.7471159809804816  0.4999300018299521  0.49997482620475586  1.0000
  N   N2        1.0  0.25295150861900595  0.49989979370548104  0.5000183581040856  1.0000
  O   O1        1.0  0.41712406785165973  0.36772109970081596  0.48452820555224435  1.0000
  O   O2        1.0  0.5756576495570158  0.6308555790474485  0.48565426956331226  1.0000
  O   O3        1.0  0.41712188654132387  0.6320578744468078  0.5155341352477975  1.0000
  O   O4        1.0  0.5756643238131504  0.3689978939926776  0.5143276018585465  1.0000
  O   O5        1.0  0.42407443062958095  0.5139784966550565  0.3740968300013135  1.0000
  O   O6        1.0  0.5839921335478806  0.5163002618873306  0.6269155326095726  1.0000
  O   O7        1.0  0.42406237614652303  0.48584271770181425  0.6259810850594574  1.0000
  O   O8        1.0  0.583994863979072  0.48357866307723896  0.3730143810451806  1.0000
  F   F1        1.0  0.3312199625097207  0.4990225035626138  0.08324445177344587  1.0000
  F   F2        1.0  0.6718680345736417  0.5021615556654027  0.9167573795637264  1.0000
  F   F3        1.0  0.33123950384961626  0.499381588514872  0.9168061772190509  1.0000
  F   F4        1.0  0.6718491152258537  0.501196153430527  0.08322119078735567  1.0000
