data_image0
_chemical_formula_structural       Zn4H16C48S4N4O24F4
_chemical_formula_sum              "Zn4 H16 C48 S4 N4 O24 F4"
_cell_length_a       7.397470835683637
_cell_length_b       12.535994224098356
_cell_length_c       35.026055223650104
_cell_angle_alpha    89.60444126046812
_cell_angle_beta     89.76335725390621
_cell_angle_gamma    89.85640980440436

_space_group_name_H-M_alt    "P 1"
_space_group_IT_number       1

loop_
  _space_group_symop_operation_xyz
  'x, y, z'

loop_
  _atom_site_type_symbol
  _atom_site_label
  _atom_site_symmetry_multiplicity
  _atom_site_fract_x
  _atom_site_fract_y
  _atom_site_fract_z
  _atom_site_occupancy
  Zn  Zn1       1.0  0.718619257609653  0.9973647732556261  0.49975179336124853  1.0000
  Zn  Zn2       1.0  0.34754466681481927  0.0010626251211575996  0.5000486951003894  1.0000
  Zn  Zn3       1.0  0.19059649229593834  0.9969031290876629  0.00020789866159989963  1.0000
  Zn  Zn4       1.0  0.5616285977737903  0.9994187070648763  0.9999262402980734  1.0000
  H   H1        1.0  0.728154006182585  0.9816933730782297  0.8768651302875343  1.0000
  H   H2        1.0  0.7080814336178847  0.9773746909873182  0.8062705767917466  1.0000
  H   H3        1.0  0.1291651111001073  0.0174531668511264  0.8146205004504524  1.0000
  H   H4        1.0  0.7804740341845573  0.019269669612946006  0.6851362326835826  1.0000
  H   H5        1.0  0.202223662417012  0.9775080375332268  0.6938821579858258  1.0000
  H   H6        1.0  0.18139230470172416  0.981899301375357  0.6232813807242437  1.0000
  H   H7        1.0  0.24852962166086454  0.9984635241365821  0.754613308492253  1.0000
  H   H8        1.0  0.6617059398346044  0.9997827677579851  0.7453248007447544  1.0000
  H   H9        1.0  0.7280486369816543  0.016333194251785695  0.12284685957567384  1.0000
  H   H10       1.0  0.706939585127202  0.0194275444988179  0.193451777785036  1.0000
  H   H11       1.0  0.12921386399726487  0.9758854263675759  0.18576159228565817  1.0000
  H   H12       1.0  0.7796659007099291  0.9758603314925197  0.3143607106948353  1.0000
  H   H13       1.0  0.20184305375811104  0.020950360736996704  0.30640166780546  1.0000
  H   H14       1.0  0.1808194911158054  0.018687069891996103  0.37702861900292833  1.0000
  H   H15       1.0  0.24784026887571287  0.9959835462930472  0.2457437514032535  1.0000
  H   H16       1.0  0.6610589826596962  0.9957929222283327  0.2542701651670641  1.0000
  C   C1        1.0  0.5986734143058711  0.7981490544811934  0.499644488121014  1.0000
  C   C2        1.0  0.45615039006612773  0.0007490811508433004  0.5716909982760541  1.0000
  C   C3        1.0  0.6113710938697635  0.1987609033958222  0.49970087455179885  1.0000
  C   C4        1.0  0.45522071890374594  0.9993278117505686  0.42825921444090653  1.0000
  C   C5        1.0  0.31052806810686207  0.7972870358507792  0.0005510535232816  1.0000
  C   C6        1.0  0.45296443848553036  0.0002208363516373969  0.9282669524270165  1.0000
  C   C7        1.0  0.29790315696212827  0.19794628665621866  0.9999263687501244  1.0000
  C   C8        1.0  0.45378797154386774  0.9971616653936836  0.07172648039777842  1.0000
  C   C9        1.0  0.4432961190193226  0.002000883453064298  0.8857680188186309  1.0000
  C   C10       1.0  0.5978855925187289  0.9905284606629366  0.8626942642743602  1.0000
  C   C11       1.0  0.5853237036533301  0.9883583274475284  0.8231395872134827  1.0000
  C   C12       1.0  0.41663604838784357  0.9982457313871151  0.8046904697967394  1.0000
  C   C13       1.0  0.2620093941414652  0.0096131082954543  0.8277321369279564  1.0000
  C   C14       1.0  0.27664407800093466  0.0114281838143953  0.8671094717014186  1.0000
  C   C15       1.0  0.39000427871786053  0.9974719842934407  0.763551130611184  1.0000
  C   C16       1.0  0.520222701471795  0.9980124739534093  0.7364098450142508  1.0000
  C   C17       1.0  0.6476196255906784  0.0109992804869137  0.6721193809714381  1.0000
  C   C18       1.0  0.49336227092464907  0.9990569004460568  0.6952645964194277  1.0000
  C   C19       1.0  0.3246779625825269  0.9887997101196293  0.676925971425277  1.0000
  C   C20       1.0  0.31172587893465215  0.9910085259570213  0.6373628663958187  1.0000
  C   C21       1.0  0.4660045065106431  0.0027461562204039005  0.6141788500346763  1.0000
  C   C22       1.0  0.6326116665912522  0.012666467107777598  0.6327404360064719  1.0000
  C   C23       1.0  0.443714538646759  0.9947138558371479  0.1142315800897293  1.0000
  C   C24       1.0  0.5977701527447081  0.006543641061171002  0.1371414954751771  1.0000
  C   C25       1.0  0.5847086187787055  0.0079292410891725  0.1767176363549083  1.0000
  C   C26       1.0  0.416097879638528  0.996758786501296  0.1953648227308804  1.0000
  C   C27       1.0  0.26199401529712657  0.9847630010724656  0.1725020366523253  1.0000
  C   C28       1.0  0.2771283993056244  0.9839172847922767  0.1330980422248302  1.0000
  C   C29       1.0  0.38929214142466856  0.9973624221628796  0.23655382000954017  1.0000
  C   C30       1.0  0.5195756650621277  0.9974262640679042  0.2634545525626707  1.0000
  C   C31       1.0  0.6468779771973345  0.9853241917784817  0.3275568396970243  1.0000
  C   C32       1.0  0.4927227760925703  0.9974556567242487  0.3046324676298938  1.0000
  C   C33       1.0  0.32414430194815924  0.009375884194760398  0.3232103063512285  1.0000
  C   C34       1.0  0.3110828982453668  0.0083962133602284  0.3627944176091021  1.0000
  C   C35       1.0  0.4652278516315035  0.9965951899183381  0.3857733456977926  1.0000
  C   C36       1.0  0.6318352157148012  0.9851287918652646  0.3669669990266514  1.0000
  C   C37       1.0  0.7579879169001914  0.3859285145955909  0.4994472582674947  1.0000
  C   C38       1.0  0.45912802633757377  0.6107489681746898  0.49941678028952935  1.0000
  C   C39       1.0  0.6137709262213276  0.3154773796411093  0.4995758730801329  1.0000
  C   C40       1.0  0.6033499554491187  0.6814475193100052  0.4993822800328047  1.0000
  C   C41       1.0  0.5138919004212068  0.5029022169748174  0.49941039101663176  1.0000
  C   C42       1.0  0.7034239672670068  0.49395631078989066  0.4993282569308094  1.0000
  C   C43       1.0  0.1511756649545788  0.3855122492736811  0.00032972765588820007  1.0000
  C   C44       1.0  0.45004267999417635  0.609466058934963  0.0005546859958513999  1.0000
  C   C45       1.0  0.2954446225877875  0.31465518453780567  8.652544188689994e-05  1.0000
  C   C46       1.0  0.3058499815559585  0.680595750598812  0.0007055089248452998  1.0000
  C   C47       1.0  0.39526029252885303  0.5017823277590736  0.00045688247009680006  1.0000
  C   C48       1.0  0.20572265510797652  0.49338619844233733  0.0005100986073145  1.0000
  S   S1        1.0  0.4058567648490907  0.381433586132701  0.49960497096374484  1.0000
  S   S2        1.0  0.8111482699958755  0.6155498559272418  0.499207802880953  1.0000
  S   S3        1.0  0.5033463865405707  0.3800426486139941  0.00010074679450869999  1.0000
  S   S4        1.0  0.0980212024845883  0.6153057423577764  0.0007779077073735003  1.0000
  N   N1        1.0  0.1029002988606464  0.024091219015595296  0.8876758568050465  1.0000
  N   N2        1.0  0.8059512495883608  0.025752473036192196  0.6120260999690929  1.0000
  N   N3        1.0  0.10378010731228221  0.9714753036069794  0.11269341058110882  1.0000
  N   N4        1.0  0.8052887714607025  0.972507151194435  0.38740839471617516  1.0000
  O   O1        1.0  0.7547168329126278  0.8450689405637134  0.4996159582168858  1.0000
  O   O2        1.0  0.4457670457141346  0.8442769619835461  0.49990047450809544  1.0000
  O   O3        1.0  0.3007036682954691  0.0019418875057794986  0.5554559914432106  1.0000
  O   O4        1.0  0.6066124171760023  0.9971822221964433  0.5542328165816458  1.0000
  O   O5        1.0  0.45547071209738726  0.15556265179802864  0.4998971468120815  1.0000
  O   O6        1.0  0.7641860149279937  0.14888368082689146  0.4995755255121068  1.0000
  O   O7        1.0  0.6056923985263937  0.9996100684407597  0.4454934764825752  1.0000
  O   O8        1.0  0.2997377689085993  0.0015487190434697988  0.44474366397959403  1.0000
  O   O9        1.0  0.15453250874393376  0.8446843900199852  0.0005978196864334003  1.0000
  O   O10       1.0  0.46343658776149965  0.8429610300030815  0.0003392222130286998  1.0000
  O   O11       1.0  0.6083862554685666  0.0009137652086152998  0.9445118739329175  1.0000
  O   O12       1.0  0.3024205071148316  0.9973968826683263  0.9457173529899169  1.0000
  O   O13       1.0  0.4537641720315762  0.1542438857891426  0.9996737422097868  1.0000
  O   O14       1.0  0.14508066730246577  0.1485448250713119  0.00010968040549389991  1.0000
  O   O15       1.0  0.3033794513669222  0.9977426717883162  0.0544668718434522  1.0000
  O   O16       1.0  0.6092985329239795  0.9989375072669663  0.055241249799109916  1.0000
  O   O17       1.0  0.05631251998996589  0.1153982087553871  0.8962587970417247  1.0000
  O   O18       1.0  0.011465483133243002  0.9421808050147079  0.8918729348503122  1.0000
  O   O19       1.0  0.8507551902382245  0.11713314520709162  0.6028476341924502  1.0000
  O   O20       1.0  0.8988018318505553  0.9441083597928782  0.6082776974169591  1.0000
  O   O21       1.0  0.057196439527110995  0.8801805208570247  0.10433575846568033  1.0000
  O   O22       1.0  0.012582520783034602  0.05363892581470961  0.10840673589418513  1.0000
  O   O23       1.0  0.8524803435479312  0.8812069033546666  0.3962301499932722  1.0000
  O   O24       1.0  0.8959185820331185  0.054626310906400015  0.3912895523595453  1.0000
  F   F1        1.0  0.9327656357783594  0.35651923445034583  0.49942469832690506  1.0000
  F   F2        1.0  0.28399664901225913  0.6394654457904494  0.4995261735934592  1.0000
  F   F3        1.0  0.9763857900295748  0.35660625970787413  0.00034569423149830014  1.0000
  F   F4        1.0  0.6251726384169701  0.6377057664471053  0.0005023811487134998  1.0000
