data_image0
_chemical_formula_structural       Cu2H34C24N6O10
_chemical_formula_sum              "Cu2 H34 C24 N6 O10"
_cell_length_a       7.122612985375146
_cell_length_b       9.791945975840685
_cell_length_c       10.107382584363439
_cell_angle_alpha    103.05397057984845
_cell_angle_beta     102.50310326659026
_cell_angle_gamma    90.71893439648497

_space_group_name_H-M_alt    "P 1"
_space_group_IT_number       1

loop_
  _space_group_symop_operation_xyz
  'x, y, z'

loop_
  _atom_site_type_symbol
  _atom_site_label
  _atom_site_symmetry_multiplicity
  _atom_site_fract_x
  _atom_site_fract_y
  _atom_site_fract_z
  _atom_site_occupancy
  Cu  Cu1       1.0  0.7538169271068965  0.37128438836355565  0.13094720054312592  1.0000
  Cu  Cu2       1.0  0.24618392614878104  0.6287147725559092  0.8690534565102082  1.0000
  H   H1        1.0  0.8130846366169918  0.6082094349896676  0.0797212701201814  1.0000
  H   H2        1.0  0.18691485322436557  0.3917907761668715  0.9202784319136437  1.0000
  H   H3        1.0  0.5975025912830035  0.6014224533938161  0.11659199447626618  1.0000
  H   H4        1.0  0.40249814117944993  0.39857567082717793  0.8834054449261541  1.0000
  H   H5        1.0  0.7887883326985728  0.8472524850942023  0.8686970815212901  1.0000
  H   H6        1.0  0.21122246893322943  0.15274567328648916  0.13130184460675304  1.0000
  H   H7        1.0  0.7574563123163714  0.8252865781382609  0.6186991641483741  1.0000
  H   H8        1.0  0.2425371642825027  0.17471046196128978  0.3812989460075683  1.0000
  H   H9        1.0  0.6904688789179474  0.037322372280044605  0.5194387286050952  1.0000
  H   H10       1.0  0.30951590336457707  0.962673578818098  0.48055983991498846  1.0000
  H   H11       1.0  0.6493079846758435  0.26631402994415515  0.6760533782849193  1.0000
  H   H12       1.0  0.3506796337898379  0.7336808619829541  0.3239493278548409  1.0000
  H   H13       1.0  0.9053752490847059  0.8947517055723465  0.1151538546718526  1.0000
  H   H14       1.0  0.09463283075086791  0.10524746593299031  0.8848508345391508  1.0000
  H   H15       1.0  0.6641238406431145  0.843539744668611  0.025265264762850712  1.0000
  H   H16       1.0  0.33588273713993283  0.1564583622350995  0.974740944759176  1.0000
  H   H17       1.0  0.7161119967685111  0.9321114751405803  0.2036321668717065  1.0000
  H   H18       1.0  0.283899219404013  0.06789085766183689  0.7963736894384325  1.0000
  H   H19       1.0  0.7794969416918249  0.7595790121843676  0.31830649489065616  1.0000
  H   H20       1.0  0.2204953330083228  0.24042118378167032  0.6816901650557695  1.0000
  H   H21       1.0  0.9790719712843626  0.6515542981292626  0.3100373736232669  1.0000
  H   H22       1.0  0.0209264260128066  0.3484501101968789  0.6899631057817144  1.0000
  H   H23       1.0  0.8228797829836977  0.6120881777976308  0.4990104879043995  1.0000
  H   H24       1.0  0.1771183548820403  0.38791307899134614  0.5009892491801864  1.0000
  H   H25       1.0  0.5967656662330896  0.5654882217973024  0.3737580076570665  1.0000
  H   H26       1.0  0.40323238515550486  0.4345119844792861  0.6262414819873923  1.0000
  H   H27       1.0  0.5549000494160125  0.3348229214137888  0.35571698303976956  1.0000
  H   H28       1.0  0.445099752017839  0.6651815056062276  0.6442807385437985  1.0000
  H   H29       1.0  0.7540682725073609  0.33219279451694206  0.49867648664581304  1.0000
  H   H30       1.0  0.24592580943151182  0.6678115991693331  0.5013233555910401  1.0000
  H   H31       1.0  0.9093184887743745  0.1583678582642989  0.3511783583234801  1.0000
  H   H32       1.0  0.09067522941093391  0.8416312552322008  0.6488261871343037  1.0000
  H   H33       1.0  0.66169337184661  0.0997505637689002  0.31657682812513593  1.0000
  H   H34       1.0  0.3383006236151189  0.9002527794049796  0.6834227666715903  1.0000
  C   C1        1.0  0.755529957035968  0.9390190587726791  0.8265942141253432  1.0000
  C   C2        1.0  0.24447758105935688  0.0609738188675948  0.17340701030435204  1.0000
  C   C3        1.0  0.7406811319220096  0.9264962181156664  0.6853470723839263  1.0000
  C   C4        1.0  0.259315371659298  0.07350294197784989  0.31464997729050026  1.0000
  C   C5        1.0  0.7017230129474187  0.0451647979491057  0.6302437194892645  1.0000
  C   C6        1.0  0.298268800083342  0.9548290719193988  0.3697564061676956  1.0000
  C   C7        1.0  0.6772012199457151  0.1722210050707034  0.7159251691019646  1.0000
  C   C8        1.0  0.322790938993613  0.8277770668473607  0.28407594631551786  1.0000
  C   C9        1.0  0.6913414320135587  0.1884116496238306  0.8615338006490771  1.0000
  C   C10       1.0  0.30865909821092435  0.8115833000368013  0.13846784678426616  1.0000
  C   C11       1.0  0.7316094745097388  0.06667783477737999  0.9185401728977207  1.0000
  C   C12       1.0  0.2683957805813719  0.9333223912943468  0.08146136876387541  1.0000
  C   C13       1.0  0.743953344060479  0.06602124203879361  0.06493814550574224  1.0000
  C   C14       1.0  0.2560535453150691  0.9339810807283869  0.9350660835660133  1.0000
  C   C15       1.0  0.756217755836147  0.9267007787722222  0.10437397462159473  1.0000
  C   C16       1.0  0.2437917738908766  0.07329839300842877  0.8956319170490513  1.0000
  C   C17       1.0  0.821609143242533  0.6504518776836649  0.2936104952408413  1.0000
  C   C18       1.0  0.17838752185436146  0.3495493880392715  0.7063860592435772  1.0000
  C   C19       1.0  0.7547929117376526  0.5698415396525573  0.38839302657754615  1.0000
  C   C20       1.0  0.2452066531421622  0.4301597266210138  0.6116059328261513  1.0000
  C   C21       1.0  0.710107937414186  0.3212997450440794  0.38554077113981566  1.0000
  C   C22       1.0  0.28989020045155206  0.6787015117448902  0.6144589659447702  1.0000
  C   C23       1.0  0.7612088897351158  0.18139203981962737  0.3060003193446476  1.0000
  C   C24       1.0  0.2387892824466959  0.8186092031554253  0.6940023879507251  1.0000
  N   N1        1.0  0.7465754446549014  0.1824135926935924  0.15907573368394878  1.0000
  N   N2        1.0  0.2534267605763958  0.8175845225934493  0.840924888318632  1.0000
  N   N3        1.0  0.7389722530744578  0.578462868219532  0.14672077003707068  1.0000
  N   N4        1.0  0.2610286637809693  0.42153735242160206  0.8532781543158733  1.0000
  N   N5        1.0  0.23655362843208394  0.41789779820538797  0.18099114028017022  1.0000
  N   N6        1.0  0.7634504540439833  0.5821066572684118  0.8190042482607321  1.0000
  O   O1        1.0  0.8137623582474802  0.4282196217608387  0.3469205181561249  1.0000
  O   O2        1.0  0.1862386565237841  0.5717816447880537  0.6530796437072083  1.0000
  O   O3        1.0  0.23885937805290075  0.48552409436409494  0.30338130290978427  1.0000
  O   O4        1.0  0.761146529506881  0.5144856369701641  0.6966115749400854  1.0000
  O   O5        1.0  0.391504113627832  0.3793875614768538  0.14575935991803848  1.0000
  O   O6        1.0  0.6084978843330973  0.6206084665993145  0.8542377969934943  1.0000
  O   O7        1.0  0.6624631526562013  0.3132775674811867  0.9318718993853278  1.0000
  O   O8        1.0  0.33753887962080853  0.6867184467810717  0.06812822773699165  1.0000
  O   O9        1.0  0.0778807146816831  0.38482790840213704  0.08987482665764897  1.0000
  O   O10       1.0  0.9221204908888652  0.6151765373117472  0.910120137104499  1.0000
