data_image0
_chemical_formula_structural       Nd2H18C9O24
_chemical_formula_sum              "Nd2 H18 C9 O24"
_cell_length_a       8.923739772458577
_cell_length_b       8.923723019617713
_cell_length_c       8.923744387071814
_cell_angle_alpha    65.86631498684505
_cell_angle_beta     65.8662015564449
_cell_angle_gamma    65.8662380322304

_space_group_name_H-M_alt    "P 1"
_space_group_IT_number       1

loop_
  _space_group_symop_operation_xyz
  'x, y, z'

loop_
  _atom_site_type_symbol
  _atom_site_label
  _atom_site_symmetry_multiplicity
  _atom_site_fract_x
  _atom_site_fract_y
  _atom_site_fract_z
  _atom_site_occupancy
  Nd  Nd1       1.0  0.769884086916676  0.7698845306364319  0.7698838502443973  1.0000
  Nd  Nd2       1.0  0.23011751579567624  0.230117770697305  0.23011731157522056  1.0000
  H   H1        1.0  0.6729549469910552  0.452073010328327  0.8128878631031781  1.0000
  H   H2        1.0  0.8128868230355053  0.6729538061963469  0.4520713850196571  1.0000
  H   H3        1.0  0.4520715640500725  0.8128837889605978  0.6729552779891179  1.0000
  H   H4        1.0  0.18711324270089597  0.5479306977522282  0.327046005489187  1.0000
  H   H5        1.0  0.5479305712625616  0.3270456096379277  0.18711515832495001  1.0000
  H   H6        1.0  0.32704424649686814  0.18711485163942143  0.5479313144500466  1.0000
  H   H7        1.0  0.7814694188213733  0.7153815766960535  0.14305763867818633  1.0000
  H   H8        1.0  0.14305844062965178  0.7814673377892232  0.7153830390717955  1.0000
  H   H9        1.0  0.715381984238597  0.1430568714169169  0.7814705031378748  1.0000
  H   H10       1.0  0.8569432721353821  0.28462015951028263  0.21853170529648466  1.0000
  H   H11       1.0  0.2846215404961043  0.21853162233858822  0.8569433331599753  1.0000
  H   H12       1.0  0.2185320273049811  0.856942925791266  0.28462137311574753  1.0000
  H   H13       1.0  0.963103946937828  0.6265414652952188  0.028656952403096483  1.0000
  H   H14       1.0  0.028658743028387244  0.9631021201010199  0.6265425861878455  1.0000
  H   H15       1.0  0.6265423741812627  0.028656143482045596  0.9631055519621082  1.0000
  H   H16       1.0  0.9713449949110353  0.3734625796211972  0.03689617866071162  1.0000
  H   H17       1.0  0.3734625402634251  0.03689686741754631  0.9713445185469564  1.0000
  H   H18       1.0  0.03689665515143756  0.9713451828970393  0.37346363919692743  1.0000
  C   C1        1.0  0.46237470189011987  0.537629417869809  0.9999991905702288  1.0000
  C   C2        1.0  2.281295437006588e-06  0.4623727150870991  0.5376287644526059  1.0000
  C   C3        1.0  0.5376295292592347  1.7523328920077943e-07  0.46237118400626537  1.0000
  C   C4        1.0  0.4116735268506274  0.6824637362997237  0.08325302250692337  1.0000
  C   C5        1.0  0.08325432798046253  0.4116740517492872  0.6824626779381902  1.0000
  C   C6        1.0  0.6824595075989207  0.08325111328112202  0.4116763575512791  1.0000
  C   C7        1.0  0.9167457487450361  0.3175395526514109  0.5883273142547409  1.0000
  C   C8        1.0  0.3175415707162798  0.5883262122883225  0.9167457779231396  1.0000
  C   C9        1.0  0.5883274607117953  0.9167445319300427  0.3175426022652347  1.0000
  O   O1        1.0  0.6241357743756597  0.5388966055217138  0.8803007396727621  1.0000
  O   O2        1.0  0.8803010048995785  0.6241368392419417  0.5388955164945842  1.0000
  O   O3        1.0  0.5388958910899717  0.8803007677451689  0.6241368543811133  1.0000
  O   O4        1.0  0.1197018616496024  0.46110463852296146  0.3758650548875124  1.0000
  O   O5        1.0  0.4611055243854453  0.3758638796388709  0.1197023049339876  1.0000
  O   O6        1.0  0.37586304493675016  0.11970160358737301  0.461104774547536  1.0000
  O   O7        1.0  0.4855566184301167  0.7993171454388062  0.9972898691119879  1.0000
  O   O8        1.0  0.9972901933100217  0.4855578150206838  0.7993150545759418  1.0000
  O   O9        1.0  0.7993146204806224  0.9972904480714535  0.4855579469375255  1.0000
  O   O10       1.0  0.0027111461269698042  0.20068431924799054  0.5144437364916428  1.0000
  O   O11       1.0  0.20068508730143014  0.5144430242498358  0.002711411935557354  1.0000
  O   O12       1.0  0.5144425908177013  0.0027128459730505  0.20068115270010614  1.0000
  O   O13       1.0  0.29585592753863216  0.6782939718303069  0.2254577966610895  1.0000
  O   O14       1.0  0.22545894777678638  0.2958566956422787  0.6782918149092223  1.0000
  O   O15       1.0  0.6782923396644167  0.22545882598736708  0.29585653925857247  1.0000
  O   O16       1.0  0.7745473225374864  0.3217082647759781  0.7041406243896801  1.0000
  O   O17       1.0  0.32171140939421156  0.7041382996762166  0.7745422645363504  1.0000
  O   O18       1.0  0.7041393799913533  0.7745405587513404  0.32171062040302406  1.0000
  O   O19       1.0  0.8408607231825653  0.681291641676296  0.034769276849566155  1.0000
  O   O20       1.0  0.03476803746423946  0.840863113886371  0.6812897820207907  1.0000
  O   O21       1.0  0.6812899313437197  0.0347725898723539  0.8408583762458688  1.0000
  O   O22       1.0  0.9652324783316432  0.3187112375594126  0.15914211133231482  1.0000
  O   O23       1.0  0.3187106559798565  0.15913975024103885  0.9652310243973617  1.0000
  O   O24       1.0  0.15914063230265882  0.9652324185240462  0.3187122982155088  1.0000
