data_image0
_chemical_formula_structural       Mn4H52C64N12O16
_chemical_formula_sum              "Mn4 H52 C64 N12 O16"
_cell_length_a       11.636940072221416
_cell_length_b       11.6369056912949
_cell_length_c       16.18951790520175
_cell_angle_alpha    71.10035681275718
_cell_angle_beta     71.10029056297061
_cell_angle_gamma    82.32340539848617

_space_group_name_H-M_alt    "P 1"
_space_group_IT_number       1

loop_
  _space_group_symop_operation_xyz
  'x, y, z'

loop_
  _atom_site_type_symbol
  _atom_site_label
  _atom_site_symmetry_multiplicity
  _atom_site_fract_x
  _atom_site_fract_y
  _atom_site_fract_z
  _atom_site_occupancy
  Mn  Mn1       1.0  0.6243068227447636  0.8420661646329184  0.045550816860604436  1.0000
  Mn  Mn2       1.0  0.1579372650430884  0.37569073332169023  0.45444833583543703  1.0000
  Mn  Mn3       1.0  0.37569281938691285  0.15793610595609667  0.9544456008636644  1.0000
  Mn  Mn4       1.0  0.8420712596446974  0.6243046457392512  0.5455544282830045  1.0000
  H   H1        1.0  0.15578862107491886  0.4065491512216041  0.043950262467937824  1.0000
  H   H2        1.0  0.5934543809396117  0.844206308330712  0.45605071900019567  1.0000
  H   H3        1.0  0.8442064448523466  0.5934524090240031  0.9560485826587026  1.0000
  H   H4        1.0  0.40654875301828497  0.15579385933618545  0.5439527986293624  1.0000
  H   H5        1.0  0.8185443539493844  0.6844590799716385  0.27402894635319097  1.0000
  H   H6        1.0  0.31554565417216196  0.18145223876938132  0.22597048949356943  1.0000
  H   H7        1.0  0.18145692549740747  0.31553756257511634  0.7259745486475779  1.0000
  H   H8        1.0  0.684461195058816  0.818548730196021  0.7740276855616983  1.0000
  H   H9        1.0  0.15140383575342753  0.4723490001356583  0.25261687940749766  1.0000
  H   H10       1.0  0.5276538838722757  0.8485923877629634  0.24738524333683634  1.0000
  H   H11       1.0  0.848599327658256  0.5276476225865921  0.7473818710305267  1.0000
  H   H12       1.0  0.4723428334613685  0.1514044521290572  0.7526204712441852  1.0000
  H   H13       1.0  0.9799564259590878  0.5595005824827411  0.03784903556078944  1.0000
  H   H14       1.0  0.44050664834831815  0.020042019289185503  0.46215168099622156  1.0000
  H   H15       1.0  0.020036822327504894  0.4405028511025366  0.9621516502710604  1.0000
  H   H16       1.0  0.5595001809642993  0.9799625041553173  0.5378506391972592  1.0000
  H   H17       1.0  0.2550778829320278  0.34742956422059024  0.19173826059743249  1.0000
  H   H18       1.0  0.6525721469679837  0.7449132083187991  0.30826202748242093  1.0000
  H   H19       1.0  0.7449198856176905  0.6525691621793829  0.8082593786047098  1.0000
  H   H20       1.0  0.34742910927587894  0.255080730230823  0.6917408468780053  1.0000
  H   H21       1.0  0.3250793549616517  0.3322331977516627  0.08148777195881961  1.0000
  H   H22       1.0  0.6677660631656364  0.6749128104322752  0.4185139994891783  1.0000
  H   H23       1.0  0.6749147978013211  0.667767507622557  0.9185108540313109  1.0000
  H   H24       1.0  0.33223068277428064  0.3250840580631051  0.5814898489318593  1.0000
  H   H25       1.0  0.2832195185759048  0.6318092845070282  0.002617355924655744  1.0000
  H   H26       1.0  0.36818803058019967  0.716783570775718  0.49738140590256547  1.0000
  H   H27       1.0  0.7167792340181689  0.3681930484337315  0.9973780127876779  1.0000
  H   H28       1.0  0.6318061445381886  0.2832234121436344  0.5026207417594577  1.0000
  H   H29       1.0  0.4614388245031121  0.3897109045357254  0.19073842019302842  1.0000
  H   H30       1.0  0.6102832160876587  0.5385526853123539  0.30926583571502414  1.0000
  H   H31       1.0  0.5385589345111866  0.6102878123297942  0.809259841062442  1.0000
  H   H32       1.0  0.3897116554227863  0.46144421254198437  0.6907421352154302  1.0000
  H   H33       1.0  0.5953951865333735  0.5610977927604851  0.1585663009850506  1.0000
  H   H34       1.0  0.4388928285207072  0.40460303511206774  0.34143849356866707  1.0000
  H   H35       1.0  0.404605261012108  0.43889718257072047  0.841430962168026  1.0000
  H   H36       1.0  0.5611021088902035  0.5953975030314355  0.6585680240200273  1.0000
  H   H37       1.0  0.42202726538753416  0.7947024691141639  0.9796687003882524  1.0000
  H   H38       1.0  0.2052907667295115  0.5779779572027267  0.5203331978869484  1.0000
  H   H39       1.0  0.5779749798802669  0.20529418735646496  0.020330867197820658  1.0000
  H   H40       1.0  0.7947016102428107  0.4220291313512023  0.47966809585785336  1.0000
  H   H41       1.0  0.9886052403593696  0.1294132994662363  0.9678456785119777  1.0000
  H   H42       1.0  0.8705885611787068  0.0113936249586359  0.5321554240490372  1.0000
  H   H43       1.0  0.011398901269565396  0.8705913919645808  0.03215473875233956  1.0000
  H   H44       1.0  0.12940558660467616  0.9886079690353498  0.467844238225652  1.0000
  H   H45       1.0  0.9556845654648566  0.15533767696256723  0.8627227665391858  1.0000
  H   H46       1.0  0.8446631069846402  0.0443155980262517  0.6372752404186245  1.0000
  H   H47       1.0  0.0443141767462762  0.8446682199917396  0.13727612525802602  1.0000
  H   H48       1.0  0.155328560351883  0.9556970943560049  0.36271753684830804  1.0000
  H   H49       1.0  0.8791665296941673  0.24352156879950837  0.9368560015053617  1.0000
  H   H50       1.0  0.7564831073217916  0.12083107448227542  0.5631436788373987  1.0000
  H   H51       1.0  0.12083310576289819  0.7564887375052938  0.06314725456655874  1.0000
  H   H52       1.0  0.24352037277222385  0.8791774816751289  0.4368436611666339  1.0000
  C   C1        1.0  0.8889275648153612  0.6328195075101989  0.2369496163480775  1.0000
  C   C2        1.0  0.36718122272989  0.11107184111563845  0.2630524695967296  1.0000
  C   C3        1.0  0.11107383276485192  0.36718172115220693  0.7630497292755081  1.0000
  C   C4        1.0  0.6328173400031929  0.8889267275880715  0.7369524391506417  1.0000
  C   C5        1.0  0.9845461444666836  0.5766826479362168  0.2719110972117421  1.0000
  C   C6        1.0  0.42331974069055184  0.0154521964430856  0.22809136156005388  1.0000
  C   C7        1.0  0.015458863920684995  0.42331749037172284  0.7280882979083997  1.0000
  C   C8        1.0  0.5766805451764653  0.9845408300284294  0.7719150259838443  1.0000
  C   C9        1.0  0.7926254536630849  0.6941077847872922  0.1100696863840298  1.0000
  C   C10       1.0  0.30589923227405075  0.207375001646014  0.389929625468696  1.0000
  C   C11       1.0  0.20737233268621935  0.30589632100358705  0.8899310602587747  1.0000
  C   C12       1.0  0.6941048625252718  0.7926260685645375  0.6100710010307182  1.0000
  C   C13       1.0  0.07697455590407289  0.5021508774639473  0.13941252047530375  1.0000
  C   C14       1.0  0.49785110387963266  0.9230213940894816  0.36058561951247725  1.0000
  C   C15       1.0  0.9230250389742379  0.4978495586788087  0.8605855569998438  1.0000
  C   C16       1.0  0.5021483919361031  0.07697447500652294  0.6394153632331907  1.0000
  C   C17       1.0  0.8879638089956288  0.6252741527633249  0.15252892368140172  1.0000
  C   C18       1.0  0.3747278577510399  0.11203416087145973  0.34747010379658144  1.0000
  C   C19       1.0  0.11203404410164809  0.3747300197687197  0.8474674685880997  1.0000
  C   C20       1.0  0.6252689018563798  0.8879654020866001  0.6525349873181197  1.0000
  C   C21       1.0  0.07843976005833038  0.5138436482143619  0.2232836193488055  1.0000
  C   C22       1.0  0.4861606208086187  0.9215533073470826  0.2767165155162558  1.0000
  C   C23       1.0  0.9215570517820451  0.4861568605701837  0.7767187757304724  1.0000
  C   C24       1.0  0.5138397177151148  0.0784388781769181  0.723285725476444  1.0000
  C   C25       1.0  0.9804764846989541  0.5602783485701437  0.10477299490733577  1.0000
  C   C26       1.0  0.43972693138100266  0.019521021150758617  0.3952252847050914  1.0000
  C   C27       1.0  0.0195185762487213  0.4397241002952371  0.8952268865038561  1.0000
  C   C28       1.0  0.5602744330371009  0.980479280754068  0.6047755128472545  1.0000
  C   C29       1.0  0.9860799282915946  0.5823326322306317  0.363017555046916  1.0000
  C   C30       1.0  0.4176672193710401  0.013916260270967503  0.136980404210199  1.0000
  C   C31       1.0  0.013923325070990695  0.41766676122991003  0.6369774616581337  1.0000
  C   C32       1.0  0.5823313255624569  0.9860769290418294  0.8630213970965028  1.0000
  C   C33       1.0  0.36066849987166444  0.49778304772952015  0.09924117906692938  1.0000
  C   C34       1.0  0.5022161661161134  0.6393305809378521  0.40075913904662025  1.0000
  C   C35       1.0  0.6393320085946995  0.5022164565106237  0.9007556670289462  1.0000
  C   C36       1.0  0.4977833574583883  0.360668890309512  0.5992428785706068  1.0000
  C   C37       1.0  0.27681528646203896  0.3974615333555678  0.11817662278311045  1.0000
  C   C38       1.0  0.6025362184576861  0.7231775932150202  0.3818241754793448  1.0000
  C   C39       1.0  0.7231815216700213  0.6025345037267444  0.8818224570333938  1.0000
  C   C40       1.0  0.3974641764310788  0.2768182230636997  0.6181772342249303  1.0000
  C   C41       1.0  0.35100460427482716  0.6133708517956296  0.03895068050097444  1.0000
  C   C42       1.0  0.3866271620337755  0.6489988341359664  0.4610490174480546  1.0000
  C   C43       1.0  0.6489967987087295  0.38662770147300335  0.9610461783222845  1.0000
  C   C44       1.0  0.6133696779891267  0.3510034900259385  0.5389529619870146  1.0000
  C   C45       1.0  0.4507715379011898  0.4781507147056135  0.14271850196922728  1.0000
  C   C46       1.0  0.5218427049905897  0.5492244097183632  0.3572856017736328  1.0000
  C   C47       1.0  0.5492316586726034  0.5218468347742162  0.8572787965400293  1.0000
  C   C48       1.0  0.47815493504277373  0.45077329457950566  0.6427197098905635  1.0000
  C   C49       1.0  0.8216506310903354  0.06425188118870302  0.9810618982590641  1.0000
  C   C50       1.0  0.9357463006968841  0.17833900168905364  0.5189421898064026  1.0000
  C   C51       1.0  0.17834062505711756  0.9357452088658749  0.018945608943610612  1.0000
  C   C52       1.0  0.06425704304036367  0.8216613757357795  0.48104764264991207  1.0000
  C   C53       1.0  0.524808815158515  0.572810541260509  0.12545456043460484  1.0000
  C   C54       1.0  0.4271848515583087  0.47518653331016497  0.37454863088500184  1.0000
  C   C55       1.0  0.47519075651686643  0.42718719088511403  0.8745428964002001  1.0000
  C   C56       1.0  0.5728137343777034  0.5248147393906849  0.6254568985027049  1.0000
  C   C57       1.0  0.42795497105168306  0.703484785633819  0.02580401265832683  1.0000
  C   C58       1.0  0.296511104025825  0.5720492502470479  0.47419599733526496  1.0000
  C   C59       1.0  0.5720472978428006  0.2965127880599425  0.9741947250523069  1.0000
  C   C60       1.0  0.7034839610539335  0.42795588354656644  0.5258057488229183  1.0000
  C   C61       1.0  0.9161171252817083  0.15216120552037893  0.9348819783399379  1.0000
  C   C62       1.0  0.8478432313649121  0.08388387353249274  0.5651168966182638  1.0000
  C   C63       1.0  0.08387800071891857  0.8478484571821737  0.06511935076104443  1.0000
  C   C64       1.0  0.15215193404868899  0.9161204669858667  0.43487759272207416  1.0000
  N   N1        1.0  0.16888999292818596  0.4407639700094421  0.09088431074714978  1.0000
  N   N2        1.0  0.5592391457111816  0.8311093152479433  0.40911332183290466  1.0000
  N   N3        1.0  0.8311104587493787  0.5592336902499895  0.9091148171529184  1.0000
  N   N4        1.0  0.4407631559216582  0.16889097197740463  0.5908854144647435  1.0000
  N   N5        1.0  0.5137285513042471  0.6844637487210152  0.0684949330461251  1.0000
  N   N6        1.0  0.31553000272678833  0.4862713546011863  0.4315089262249714  1.0000
  N   N7        1.0  0.4862727430813222  0.31553022796641284  0.9315054531009822  1.0000
  N   N8        1.0  0.6844677318133137  0.5137300185892074  0.5684930659374815  1.0000
  N   N9        1.0  0.7455743344797199  0.993461295306759  0.01850310930598901  1.0000
  N   N10       1.0  0.006540230630989198  0.2544277517142249  0.48149670882609286  1.0000
  N   N11       1.0  0.25443868144116516  0.006531134739525217  0.9814999248585038  1.0000
  N   N12       1.0  0.993464143980219  0.745579853471668  0.5184906439053236  1.0000
  O   O1        1.0  0.701366565983477  0.7429780622161317  0.1582349603661513  1.0000
  O   O2        1.0  0.257029324330709  0.29863347206907065  0.3417644648885059  1.0000
  O   O3        1.0  0.29863307074485584  0.2570268837666633  0.8417639441584441  1.0000
  O   O4        1.0  0.7429765400084135  0.7013674639035516  0.6582388816881206  1.0000
  O   O5        1.0  0.8041138957150122  0.7061799718607208  0.026638457987630253  1.0000
  O   O6        1.0  0.29382515097803713  0.19588570026046176  0.4733627106113758  1.0000
  O   O7        1.0  0.19588566102159885  0.29382042614422943  0.9733621077008364  1.0000
  O   O8        1.0  0.7061752198602989  0.804110985569125  0.5266409794841138  1.0000
  O   O9        1.0  0.07605150692999268  0.5344129634168271  0.3919758857228998  1.0000
  O   O10       1.0  0.4655842452306515  0.9239486164238572  0.1080187071748854  1.0000
  O   O11       1.0  0.9239617792673515  0.465585992070345  0.6080144967269162  1.0000
  O   O12       1.0  0.534420683588756  0.07604518713223742  0.8919808985933456  1.0000
  O   O13       1.0  0.8950427642958445  0.6356661449177851  0.40691672111796606  1.0000
  O   O14       1.0  0.36433062256638477  0.10496221059071333  0.09308376479848593  1.0000
  O   O15       1.0  0.1049702334017013  0.3643226925115854  0.5930846561216326  1.0000
  O   O16       1.0  0.6356697814340534  0.8950354019964595  0.9069184733682363  1.0000
