data_image0
_chemical_formula_structural       Zn2H35C46N2O8F5
_chemical_formula_sum              "Zn2 H35 C46 N2 O8 F5"
_cell_length_a       11.798650320263267
_cell_length_b       13.247317960639998
_cell_length_c       13.426358863634844
_cell_angle_alpha    86.45292974164708
_cell_angle_beta     59.11723234758971
_cell_angle_gamma    82.26624515524703

_space_group_name_H-M_alt    "P 1"
_space_group_IT_number       1

loop_
  _space_group_symop_operation_xyz
  'x, y, z'

loop_
  _atom_site_type_symbol
  _atom_site_label
  _atom_site_symmetry_multiplicity
  _atom_site_fract_x
  _atom_site_fract_y
  _atom_site_fract_z
  _atom_site_occupancy
  Zn  Zn1       1.0  0.6232459277835859  0.4853575403779615  0.4808208542601803  1.0000
  Zn  Zn2       1.0  0.35157351531195485  0.5121181787680557  0.5414923427773957  1.0000
  H   H1        1.0  0.22419818620700474  0.3747628505013553  0.8882182210753911  1.0000
  H   H2        1.0  0.6243478553939993  0.2022479225124273  0.3008094911880974  1.0000
  H   H3        1.0  0.8672264597431293  0.5830778814629626  0.3195444435815347  1.0000
  H   H4        1.0  0.9037966458300486  0.3793269486128494  0.7051207731571694  1.0000
  H   H5        1.0  0.10929650880419213  0.41928977438863785  0.7001518970826552  1.0000
  H   H6        1.0  0.2583228536027065  0.3294859441491056  0.2276678237899006  1.0000
  H   H7        1.0  0.2321401759463625  0.5831508825706423  0.3970718982671784  1.0000
  H   H8        1.0  0.1942765058633356  0.322823717820974  0.08206594874974361  1.0000
  H   H9        1.0  0.7055790833919104  0.5188079152918379  0.8427191025435191  1.0000
  H   H10       1.0  0.395321726726614  0.3911866872920058  0.2953659958837703  1.0000
  H   H11       1.0  0.781874016534786  0.8651111591847783  0.22540019323100316  1.0000
  H   H12       1.0  0.756491334989029  0.7408348002805172  0.2859936808197997  1.0000
  H   H13       1.0  0.7601632402032477  0.7684416251543525  0.15286502228813975  1.0000
  H   H14       1.0  0.5287028479239594  0.760117369570523  0.3188283900299779  1.0000
  H   H15       1.0  0.5468743206962755  0.8819394095515493  0.25695393511453796  1.0000
  H   H16       1.0  0.045255406842706195  0.6290921941384301  0.14900156531792416  1.0000
  H   H17       1.0  0.973990529625915  0.737180979035557  0.24314216350026632  1.0000
  H   H18       1.0  0.14205198770947894  0.7277153232226894  0.1286214157161822  1.0000
  H   H19       1.0  0.1371741222106309  0.6892588802185883  0.3126020947209156  1.0000
  H   H20       1.0  0.20478050351695018  0.5809847794749246  0.22238815190314648  1.0000
  H   H21       1.0  0.3660983445728618  0.7099974491816993  0.9723252717716733  1.0000
  H   H22       1.0  0.5142899743570197  0.6764527860612761  0.9767644759295776  1.0000
  H   H23       1.0  0.5121605162351414  0.7647162845060367  0.8724593086679774  1.0000
  H   H24       1.0  0.6217281746242945  0.5955329598937739  0.7737660918923267  1.0000
  H   H25       1.0  0.4774021613629812  0.6369688023572453  0.7721640566291867  1.0000
  H   H26       1.0  0.8762294986673992  0.3874797191371473  0.16626586918217598  1.0000
  H   H27       1.0  0.9831115804796081  0.40294530775728543  0.01376552990264921  1.0000
  H   H28       1.0  0.014682514167993996  0.4580794033244403  0.11262647813747859  1.0000
  H   H29       1.0  0.9085015237482352  0.5917419388416079  0.03807311136302611  1.0000
  H   H30       1.0  0.8009803262865985  0.5751617345379643  0.1888180579551103  1.0000
  H   H31       1.0  0.20992461023227088  0.24071688664287197  0.6942029631997357  1.0000
  H   H32       1.0  0.19229925707213613  0.11903321774788374  0.7609889541689012  1.0000
  H   H33       1.0  0.17893480754615607  0.22777774997841505  0.8388807274223352  1.0000
  H   H34       1.0  0.4046246465968223  0.1305606699723612  0.7650410490867898  1.0000
  H   H35       1.0  0.41774804257841686  0.24934612814418958  0.6975497574929006  1.0000
  C   C1        1.0  0.4797468381215921  0.6950191570576935  0.5086695825748604  1.0000
  C   C2        1.0  0.5493528753433451  0.484104756939729  0.01702478748763529  1.0000
  C   C3        1.0  0.5233011321246933  0.46482112541129084  0.13213217990596607  1.0000
  C   C4        1.0  0.451398217302838  0.46840052644606095  0.9861580255743903  1.0000
  C   C5        1.0  0.3519516089131968  0.40475540196946014  0.06073026502753008  1.0000
  C   C6        1.0  0.3358104583862199  0.377325576395613  0.17180712124022787  1.0000
  C   C7        1.0  0.4123460557726091  0.4109560928052288  0.209177408741553  1.0000
  C   C8        1.0  0.45097531558651827  0.512037555945483  0.8863729498617872  1.0000
  C   C9        1.0  0.2836295065263101  0.40202059063070555  0.91935924966846  1.0000
  C   C10       1.0  0.6146924755177707  0.4902561895438853  0.16400624364329994  1.0000
  C   C11       1.0  0.5148642116204485  0.18908179562377825  0.4893024620298261  1.0000
  C   C12       1.0  0.5716829099272899  0.49380370306626287  0.2902863651030214  1.0000
  C   C13       1.0  0.47549594939211914  0.8081973886296155  0.5208686455606467  1.0000
  C   C14       1.0  0.4129593353142054  0.9480575379093285  0.6547870093456466  1.0000
  C   C15       1.0  0.41918427265792957  0.8467826951810198  0.6336381038074419  1.0000
  C   C16       1.0  0.5255137773367905  0.8734528676288634  0.4264741916649299  1.0000
  C   C17       1.0  0.523169294399544  0.9791783391230526  0.4467586133949837  1.0000
  C   C18       1.0  0.46363865114911107  0.019875726212660507  0.563882362944021  1.0000
  C   C19       1.0  0.45712143192251625  0.12615624801558314  0.584629176610953  1.0000
  C   C20       1.0  0.5776021842777295  0.15207162963801585  0.3748171852448081  1.0000
  C   C21       1.0  0.5788024672098331  0.051442320311231506  0.3563813379418476  1.0000
  C   C22       1.0  0.9732470994682672  0.42529155231516574  0.636255293711798  1.0000
  C   C23       1.0  0.5100841758604489  0.3015211853868465  0.5036374771948076  1.0000
  C   C24       1.0  0.08560113924004036  0.4463533834534631  0.6339246281130714  1.0000
  C   C25       1.0  0.15443949995037087  0.5410948856379676  0.4639035269220173  1.0000
  C   C26       1.0  0.04074051858908229  0.5262455521783096  0.4588680103218721  1.0000
  C   C27       1.0  0.9490685440477691  0.46576405545521754  0.5482140748051874  1.0000
  C   C28       1.0  0.8351133516722623  0.451273048969533  0.5433391532991864  1.0000
  C   C29       1.0  0.8971948975227446  0.550792250300667  0.3801476964118604  1.0000
  C   C30       1.0  0.014405408377974981  0.5691882064825935  0.37109254289155297  1.0000
  C   C31       1.0  0.3919385621889901  0.4930053228459743  0.7318043071078859  1.0000
  C   C32       1.0  0.26888444975911335  0.3723215055674061  0.025243471902605567  1.0000
  C   C33       1.0  0.37330205112357356  0.47180005720083784  0.8500884197744867  1.0000
  C   C34       1.0  0.7398904794354592  0.5176438824441973  0.08056220103446782  1.0000
  C   C35       1.0  0.7664854406852157  0.5232483295468386  0.9657054832443066  1.0000
  C   C36       1.0  0.6760629608821134  0.5107390803151689  0.9335011376349056  1.0000
  C   C37       1.0  0.5771724877795491  0.8287852301845574  0.30727855470744464  1.0000
  C   C38       1.0  0.7283121945731565  0.7993642116773645  0.23862351238086885  1.0000
  C   C39       1.0  0.11137024609784861  0.6314872046905436  0.2743007725444073  1.0000
  C   C40       1.0  0.06480961130016277  0.6839399967194667  0.1948625256215664  1.0000
  C   C41       1.0  0.5130529251072389  0.609010081038129  0.8306494284701101  1.0000
  C   C42       1.0  0.4749034090375445  0.6943277547259971  0.9186060362765005  1.0000
  C   C43       1.0  0.8467571272476349  0.5384452799339599  0.10366290258225744  1.0000
  C   C44       1.0  0.9352881442235981  0.4405345651482266  0.09898814452081706  1.0000
  C   C45       1.0  0.3826480119695431  0.17507840622558757  0.7041914824615814  1.0000
  C   C46       1.0  0.2319002107504247  0.191483363026734  0.7526070947030945  1.0000
  N   N1        1.0  0.8085059561907638  0.49203386597775994  0.46534027165580494  1.0000
  N   N2        1.0  0.17447779449655335  0.5032109694147807  0.5483223923489788  1.0000
  O   O1        1.0  0.5940782210625385  0.6435089518778202  0.4600908745084879  1.0000
  O   O2        1.0  0.3680170268542753  0.6615735932177246  0.5512282921795161  1.0000
  O   O3        1.0  0.6578407321414517  0.4620226407376011  0.3190544631735222  1.0000
  O   O4        1.0  0.4524511677894267  0.5312400885373665  0.35953191284841773  1.0000
  O   O5        1.0  0.6064152657359116  0.33158473474500033  0.5057922305402229  1.0000
  O   O6        1.0  0.41023494649546405  0.3571014574911828  0.5088891496095443  1.0000
  O   O7        1.0  0.5080167235941389  0.5117072096988338  0.6532142863657312  1.0000
  O   O8        1.0  0.29697014312496617  0.4856618823569576  0.7140907429986426  1.0000
  F   F1        1.0  0.3566867640340305  0.9755134670745353  0.7681303721384793  1.0000
  F   F2        1.0  0.6404137791059838  0.021260808678618993  0.2427457946615164  1.0000
  F   F3        1.0  0.3697938197980334  0.7827777602587886  0.7255193212013394  1.0000
  F   F4        1.0  0.748614806300992  0.3926083058312032  0.6242556660218739  1.0000
  F   F5        1.0  0.8902475332192664  0.5449666166475922  0.8801063604433349  1.0000
