data_image0
_chemical_formula_structural       Cd2H14C8Br4N2O2
_chemical_formula_sum              "Cd2 H14 C8 Br4 N2 O2"
_cell_length_a       4.057943351162363
_cell_length_b       10.346145680111524
_cell_length_c       10.831030130642997
_cell_angle_alpha    63.88176070580321
_cell_angle_beta     79.16802081945386
_cell_angle_gamma    78.64471625813536

_space_group_name_H-M_alt    "P 1"
_space_group_IT_number       1

loop_
  _space_group_symop_operation_xyz
  'x, y, z'

loop_
  _atom_site_type_symbol
  _atom_site_label
  _atom_site_symmetry_multiplicity
  _atom_site_fract_x
  _atom_site_fract_y
  _atom_site_fract_z
  _atom_site_occupancy
  Cd  Cd1       1.0  0.8497059414322902  0.9360887580885874  0.3649974979191839  1.0000
  Cd  Cd2       1.0  0.15029719186574653  0.0639119776840857  0.635010929096147  1.0000
  H   H1        1.0  0.07634312752247754  0.43026689501711957  0.4173558022156599  1.0000
  H   H2        1.0  0.9236615028572145  0.5697284959269879  0.582644790586066  1.0000
  H   H3        1.0  0.9743512816313213  0.4172153645811037  0.1953140505499603  1.0000
  H   H4        1.0  0.5908959440929141  0.5836603001602612  0.8049146349435289  1.0000
  H   H5        1.0  0.0256446179027421  0.5827855011035651  0.8046788993292537  1.0000
  H   H6        1.0  0.4091169571610892  0.416338381836333  0.1950803947056697  1.0000
  H   H7        1.0  0.9556162957295482  0.6508249356312206  0.00588959362669058  1.0000
  H   H8        1.0  0.6121937719319064  0.3496756096418494  0.993476571196247  1.0000
  H   H9        1.0  0.04437484893102121  0.3491780463044591  0.994109164893274  1.0000
  H   H10       1.0  0.38781347481666023  0.6503295554354125  0.0065196050366793665  1.0000
  H   H11       1.0  0.2504806705350121  0.815835763475377  0.11133550137078164  1.0000
  H   H12       1.0  0.17955352983685186  0.18423156363181192  0.8883790382946941  1.0000
  H   H13       1.0  0.749502203251247  0.18416392740780907  0.88866882030171  1.0000
  H   H14       1.0  0.8204453504645459  0.8157659774895052  0.1116233059901289  1.0000
  C   C1        1.0  0.027934853997557133  0.6508827387398598  0.29306028059914263  1.0000
  C   C2        1.0  0.9720338125374325  0.3491103682458672  0.7069553425750428  1.0000
  C   C3        1.0  0.16033977217677653  0.48181908596694  0.19455710838039406  1.0000
  C   C4        1.0  0.8396668813965462  0.5181817631699631  0.8054376441730754  1.0000
  C   C5        1.0  0.1457782907968689  0.6347137221640581  0.07275365747636894  1.0000
  C   C6        1.0  0.8542192829960417  0.36528931286874666  0.9272386142059262  1.0000
  C   C7        1.0  0.05796107452373877  0.743263482403428  0.13935409447353198  1.0000
  C   C8        1.0  0.9420311324048853  0.2567329785250507  0.8606481509181662  1.0000
  Br  Br1       1.0  0.3905439581493867  0.043216184103023594  0.1771389280570332  1.0000
  Br  Br2       1.0  0.6094530133467807  0.9567846061439339  0.8228630628285669  1.0000
  Br  Br3       1.0  0.697069345378509  0.17723238227335975  0.4295220888919431  1.0000
  Br  Br4       1.0  0.3029606440467772  0.8227705200931439  0.5704855585106188  1.0000
  N   N1        1.0  0.08559338160934271  0.5106610366168384  0.31786391790220136  1.0000
  N   N2        1.0  0.9144095450793298  0.48934742089006994  0.682126745886123  1.0000
  O   O1        1.0  0.9590592153500808  0.6963245688480768  0.38724426056658245  1.0000
  O   O2        1.0  0.04094156890953832  0.3036665003628586  0.6127556600501478  1.0000
