data_image0
_chemical_formula_structural       Cu4H44C74N8O18
_chemical_formula_sum              "Cu4 H44 C74 N8 O18"
_cell_length_a       11.372139055021732
_cell_length_b       12.550779955521415
_cell_length_c       14.936503107571161
_cell_angle_alpha    80.07357397380534
_cell_angle_beta     67.62508842483419
_cell_angle_gamma    63.0619774767616

_space_group_name_H-M_alt    "P 1"
_space_group_IT_number       1

loop_
  _space_group_symop_operation_xyz
  'x, y, z'

loop_
  _atom_site_type_symbol
  _atom_site_label
  _atom_site_symmetry_multiplicity
  _atom_site_fract_x
  _atom_site_fract_y
  _atom_site_fract_z
  _atom_site_occupancy
  Cu  Cu1       1.0  0.31616008628076026  0.33729667834660393  0.01028616256286339  1.0000
  Cu  Cu2       1.0  0.6636437224159549  0.6626815784558032  0.9897731636369118  1.0000
  Cu  Cu3       1.0  0.07634494422430284  0.8374664084020225  0.4896820318485596  1.0000
  Cu  Cu4       1.0  0.4035182514264262  0.1626375736016357  0.5101993447942235  1.0000
  H   H1        1.0  0.21169387468846415  0.2835946158814764  0.21905476468263174  1.0000
  H   H2        1.0  0.7141869454098067  0.7164346772918719  0.7810216169809648  1.0000
  H   H3        1.0  0.18067804969908965  0.7834215185118935  0.2810419518542275  1.0000
  H   H4        1.0  0.24524664882684277  0.21657888551871446  0.7189174280366899  1.0000
  H   H5        1.0  0.015964569255103797  0.23973591349514586  0.3342147666541706  1.0000
  H   H6        1.0  0.5899163699775443  0.7601295312297153  0.6657752059014328  1.0000
  H   H7        1.0  0.10001945002238692  0.7395230799017158  0.16595603457307112  1.0000
  H   H8        1.0  0.005669267152015344  0.2602973931006858  0.8340657196672225  1.0000
  H   H9        1.0  0.8509827458808914  0.3127880460502865  0.10060016815391044  1.0000
  H   H10       1.0  0.26419015518620625  0.6872503138630607  0.8994109434621224  1.0000
  H   H11       1.0  0.7012987821619276  0.8129678199757895  0.39961767625912614  1.0000
  H   H12       1.0  0.9139233369945003  0.18710836143033296  0.6003946154207611  1.0000
  H   H13       1.0  0.05614183671703186  0.3458097450818798  0.9955422266269878  1.0000
  H   H14       1.0  0.39733907354980147  0.6541937536451883  0.004485132895006038  1.0000
  H   H15       1.0  0.8015294362400736  0.8460382898677993  0.504577956642251  1.0000
  H   H16       1.0  0.15212390203869564  0.1540995530881801  0.495391008763157  1.0000
  H   H17       1.0  0.6931217850411784  0.10532591593312192  0.5060095154477083  1.0000
  H   H18       1.0  0.3046651590247791  0.8945533941623225  0.49389562987922625  1.0000
  H   H19       1.0  0.9491386101676509  0.6053006235889383  0.9941110535397188  1.0000
  H   H20       1.0  0.5485576416290598  0.3946352824387631  0.005937204782021866  1.0000
  H   H21       1.0  0.896144971205665  0.14029873243782728  0.3996474206735671  1.0000
  H   H22       1.0  0.4363569969584376  0.859320113874311  0.6002878020290867  1.0000
  H   H23       1.0  0.04565094891314912  0.6403658950827376  0.10053597344987251  1.0000
  H   H24       1.0  0.7865113479765923  0.35970311433924007  0.899493433436149  1.0000
  H   H25       1.0  0.6573101872670293  0.33650401761143206  0.20930354506521817  1.0000
  H   H26       1.0  0.2025891009150058  0.6638424691125165  0.7908092711418889  1.0000
  H   H27       1.0  0.616430786222729  0.836458775504873  0.29083307587536233  1.0000
  H   H28       1.0  0.7437034727214287  0.1636752783052557  0.7091166065413506  1.0000
  H   H29       1.0  0.4652402700618835  0.28633724877416006  0.32296216573984543  1.0000
  H   H30       1.0  0.07415437718033485  0.7140589845679415  0.6770289021900171  1.0000
  H   H31       1.0  0.5381295469523553  0.7864052368950637  0.17703764710925896  1.0000
  H   H32       1.0  0.5015563298426285  0.21369277154884975  0.8229066619532689  1.0000
  H   H33       1.0  0.16169046956918717  0.4380903976918303  0.3251974925688614  1.0000
  H   H34       1.0  0.9249527823721307  0.5615641269590768  0.6748955175028328  1.0000
  H   H35       1.0  0.23672662352944923  0.9382421798476204  0.1747976830317128  1.0000
  H   H36       1.0  0.34993610073658504  0.0614862286868245  0.8250521663988125  1.0000
  H   H37       1.0  0.463151034775308  0.6329596167128669  0.3126704386270662  1.0000
  H   H38       1.0  0.40864608585097506  0.36720920351150005  0.6876474981792384  1.0000
  H   H39       1.0  0.5258957120556288  0.1328829814977155  0.18739632727512398  1.0000
  H   H40       1.0  0.846326576643271  0.8676400235569874  0.8124349053161736  1.0000
  H   H41       1.0  0.3045469271366913  0.5981645991679443  0.47026635603232597  1.0000
  H   H42       1.0  0.37301756495688204  0.4017332063109293  0.5299753032119625  1.0000
  H   H43       1.0  0.5247956147791227  0.09818622362453766  0.029795356641848535  1.0000
  H   H44       1.0  0.6529740066085733  0.9019665626547065  0.9700438022732527  1.0000
  C   C1        1.0  0.1291445925933417  0.2887570605530172  0.19632899125532793  1.0000
  C   C2        1.0  0.6141284690413329  0.7111828223855596  0.8037049019739444  1.0000
  C   C3        1.0  0.07535774164045955  0.788678217063442  0.3037822008922006  1.0000
  C   C4        1.0  0.16792253653001404  0.21131679051836025  0.6961795400706379  1.0000
  C   C5        1.0  0.018040028521426138  0.2650837313489732  0.2603251994217572  1.0000
  C   C6        1.0  0.5434411698055681  0.7347524530833739  0.7396569653824586  1.0000
  C   C7        1.0  0.028199580149767194  0.7650022740710225  0.23982614333252172  1.0000
  C   C8        1.0  0.03314048310486564  0.23492746825786534  0.7601648046359842  1.0000
  C   C9        1.0  0.9139760175415148  0.2711262429673624  0.22833559659704866  1.0000
  C   C10       1.0  0.41342163827162176  0.7286614469848873  0.771637717559763  1.0000
  C   C11       1.0  0.8920687250457179  0.7711640677235181  0.27185703089094204  1.0000
  C   C12       1.0  0.9351869175890712  0.22877762954762199  0.7281550596872537  1.0000
  C   C13       1.0  0.9279583818465227  0.30337711468436623  0.13138555583558537  1.0000
  C   C14       1.0  0.3626166575726938  0.6965467717514073  0.868610407348534  1.0000
  C   C15       1.0  0.8090741582844102  0.8035279905403454  0.36879797684049015  1.0000
  C   C16       1.0  0.981460575506631  0.19651594097081934  0.6312093955285505  1.0000
  C   C17       1.0  0.043490633099494906  0.3237996096119886  0.07114679881130574  1.0000
  C   C18       1.0  0.4383179985816954  0.6761471102191124  0.9288716377301542  1.0000
  C   C19       1.0  0.8644491119282521  0.8239631341555977  0.4289915566039256  1.0000
  C   C20       1.0  0.11742930040170307  0.1761215048203724  0.570994841331988  1.0000
  C   C21       1.0  0.6884911102227844  0.15504641065603414  0.43944771118194853  1.0000
  C   C22       1.0  0.28310455120814737  0.844865578539185  0.5604573739273988  1.0000
  C   C23       1.0  0.8778819220303689  0.655112966774574  0.06062495456060892  1.0000
  C   C24       1.0  0.5935978734247411  0.3449262202518071  0.9393620850136629  1.0000
  C   C25       1.0  0.8027777956701883  0.17720956196398424  0.3790398787875446  1.0000
  C   C26       1.0  0.359185249135514  0.8225291909641469  0.6208814672055213  1.0000
  C   C27       1.0  0.9316740781100634  0.6773364806624755  0.12107567937722756  1.0000
  C   C28       1.0  0.7300415327713241  0.3227993763953094  0.8788901973159325  1.0000
  C   C29       1.0  0.7958000959747621  0.24381178972584652  0.2939356123878556  1.0000
  C   C30       1.0  0.3334438907124593  0.7561195299695528  0.7060706914646389  1.0000
  C   C31       1.0  0.8395642481900798  0.7438611433240822  0.2062268463794084  1.0000
  C   C32       1.0  0.7896370812137897  0.2562447371841756  0.7937453127168298  1.0000
  C   C33       1.0  0.6715916933383569  0.28344094069940706  0.2735823949323475  1.0000
  C   C34       1.0  0.22824081749151062  0.7167693940685638  0.7264769922781866  1.0000
  C   C35       1.0  0.6950117336680393  0.7834475734591139  0.22653403951327528  1.0000
  C   C36       1.0  0.7049686965077839  0.21666651738916443  0.7734288290073439  1.0000
  C   C37       1.0  0.5622679720150215  0.25696752144607166  0.33721737799422863  1.0000
  C   C38       1.0  0.15618208678924342  0.7432856939081918  0.6627755382487807  1.0000
  C   C39       1.0  0.6494066487971679  0.7570564754183026  0.16280487611285122  1.0000
  C   C40       1.0  0.5692373992256919  0.24306206849433207  0.8371405552238685  1.0000
  C   C41       1.0  0.23056049752774035  0.4785464687123877  0.3211962565089622  1.0000
  C   C42       1.0  0.03023864411284884  0.5212369918417892  0.6789371508063554  1.0000
  C   C43       1.0  0.3017063875147483  0.9785896023156013  0.17878802953908493  1.0000
  C   C44       1.0  0.45927893344194337  0.021248644789260102  0.8210223053620141  1.0000
  C   C45       1.0  0.3214418857718258  0.49622913923579387  0.2323398159122903  1.0000
  C   C46       1.0  0.04988591352516638  0.5037070080736471  0.7678114532571955  1.0000
  C   C47       1.0  0.3037171055677277  0.9962835486811625  0.2676421677807213  1.0000
  C   C48       1.0  0.5677964416700617  0.0037109592767947995  0.73217048758805  1.0000
  C   C49       1.0  0.4067216540160033  0.5515725804517758  0.22926108377414073  1.0000
  C   C50       1.0  0.18738667864283068  0.4485071998181099  0.7709489938815184  1.0000
  C   C51       1.0  0.38601739147100034  0.051516522401080116  0.2707570781022142  1.0000
  C   C52       1.0  0.7084063285144142  0.9486904374743048  0.729093411714189  1.0000
  C   C53       1.0  0.39967857844598587  0.5877273851972477  0.31525736729566506  1.0000
  C   C54       1.0  0.3025453092936062  0.41229054925418757  0.684999016734679  1.0000
  C   C55       1.0  0.46493142800093773  0.0877282542790141  0.1848106369421743  1.0000
  C   C56       1.0  0.7376010310215975  0.9126402931684723  0.815046332682215  1.0000
  C   C57       1.0  0.3100732596576137  0.5681946778813796  0.40396952360793387  1.0000
  C   C58       1.0  0.2822045846787304  0.4316482338110177  0.5962493915388976  1.0000
  C   C59       1.0  0.4639882344291451  0.06822450143229021  0.09608074102933982  1.0000
  C   C60       1.0  0.6284665785504512  0.9319431045897916  0.9037716103783923  1.0000
  C   C61       1.0  0.22405539911184744  0.5140158112094683  0.4077395963734888  1.0000
  C   C62       1.0  0.14579441674352694  0.4857084993542316  0.5924526106591942  1.0000
  C   C63       1.0  0.3817938126831066  0.014023818651779202  0.09226765917271253  1.0000
  C   C64       1.0  0.4882983679958239  0.9858419695852731  0.9075518370417869  1.0000
  C   C65       1.0  0.11832769384943018  0.49984641752588027  0.5000798608832683  1.0000
  C   C66       1.0  0.36849129968766176  0.9998225857732805  0.9998999417270511  1.0000
  C   C67       1.0  0.317760847974249  0.4678699263352896  0.13975440905682043  1.0000
  C   C68       1.0  0.9252930302806492  0.5320380670345485  0.860367972203072  1.0000
  C   C69       1.0  0.20738730305384895  0.9680941633356143  0.3602120124752162  1.0000
  C   C70       1.0  0.5357522664576848  0.031942230729392  0.6396226349429597  1.0000
  C   C71       1.0  0.5126797365669943  0.5638024441421691  0.13492396940244333  1.0000
  C   C72       1.0  0.21129088540627797  0.4361791669063067  0.8652741354201723  1.0000
  C   C73       1.0  0.3976305272704225  0.063694737597018  0.36511292198046164  1.0000
  C   C74       1.0  0.8265667378888037  0.9364381857766587  0.6347790366040941  1.0000
  N   N1        1.0  0.14348254783509148  0.3166957986944681  0.10243320481200867  1.0000
  N   N2        1.0  0.562488384867464  0.6832462114618991  0.8976106413113598  1.0000
  N   N3        1.0  0.9957711746507911  0.8167660271816857  0.39766231957478493  1.0000
  N   N4        1.0  0.21025926453815913  0.1833076425493303  0.6022918246596376  1.0000
  N   N5        1.0  0.5693245908331973  0.1941009905642304  0.41964351791436655  1.0000
  N   N6        1.0  0.18300560472597016  0.8060159818195628  0.580277617090431  1.0000
  N   N7        1.0  0.7389207496642101  0.6941676719361852  0.08037478417899283  1.0000
  N   N8        1.0  0.5134564203037754  0.3058664704582057  0.9196162936881225  1.0000
  O   O1        1.0  0.3553576628022768  0.3566406811671143  0.12497962762542163  1.0000
  O   O2        1.0  0.8367943889241899  0.6432513562016382  0.8750420080793335  1.0000
  O   O3        1.0  0.2301434625556665  0.8568645601611635  0.3750103750119038  1.0000
  O   O4        1.0  0.46214665972505037  0.1431746536272485  0.624837255337141  1.0000
  O   O5        1.0  0.2777481486557036  0.5516322622356569  0.08386575823297451  1.0000
  O   O6        1.0  0.9132410655146757  0.4483411001516088  0.9163656770317702  1.0000
  O   O7        1.0  0.1115440943759863  0.0518610687482166  0.41611931167516764  1.0000
  O   O8        1.0  0.5793790158134443  0.9481611468006932  0.5837856322536581  1.0000
  O   O9        1.0  0.6107879685450752  0.47106488113153944  0.09056192468649023  1.0000
  O   O10       1.0  0.1724249849868683  0.5288380701890176  0.9096834562416946  1.0000
  O   O11       1.0  0.4514850121374961  0.9710025235524354  0.40946477908831713  1.0000
  O   O12       1.0  0.8321707296278761  0.029130392038730697  0.5904629970193227  1.0000
  O   O13       1.0  0.49579574730375253  0.671511813949671  0.10648169514178832  1.0000
  O   O14       1.0  0.27368672859152804  0.328424888345701  0.8936360027375089  1.0000
  O   O15       1.0  0.3522268321048755  0.1714256262045026  0.3935582708935997  1.0000
  O   O16       1.0  0.9172268189176336  0.8286918818091137  0.6063191758693803  1.0000
  O   O17       1.0  0.00955963137315035  0.49994936725240524  0.500059315884883  1.0000
  O   O18       1.0  0.25982075534897586  0.9996538401360624  0.9998975844199549  1.0000
