data_image0
_chemical_formula_structural       Zn2H8C36N10O24
_chemical_formula_sum              "Zn2 H8 C36 N10 O24"
_cell_length_a       14.395609691617349
_cell_length_b       16.549392126600903
_cell_length_c       18.0000822488059
_cell_angle_alpha    90.01652000309498
_cell_angle_beta     90.67209668144861
_cell_angle_gamma    89.8873230965902

_space_group_name_H-M_alt    "P 1"
_space_group_IT_number       1

loop_
  _space_group_symop_operation_xyz
  'x, y, z'

loop_
  _atom_site_type_symbol
  _atom_site_label
  _atom_site_symmetry_multiplicity
  _atom_site_fract_x
  _atom_site_fract_y
  _atom_site_fract_z
  _atom_site_occupancy
  Zn  Zn1       1.0  0.499832646153557  0.41578521181470046  0.5000049849763643  1.0000
  Zn  Zn2       1.0  0.5000717630638862  0.5842499354728046  0.5000258137974215  1.0000
  H   H1        1.0  0.6116544245018718  0.41251413809544596  0.12395730685710055  1.0000
  H   H2        1.0  0.6112706306857518  0.5893231789589494  0.8769131955810112  1.0000
  H   H3        1.0  0.3899866387842224  0.4120739489527807  0.8765732827620385  1.0000
  H   H4        1.0  0.38834847248458715  0.5886172337478756  0.12258506959580732  1.0000
  H   H5        1.0  0.5931868657043895  0.28625059914681117  0.5890790179757489  1.0000
  H   H6        1.0  0.4036243564688818  0.7141371047203577  0.4132602378564912  1.0000
  H   H7        1.0  0.40859334683207765  0.2861173547022204  0.4092759145984318  1.0000
  H   H8        1.0  0.5951449048312228  0.713844530020779  0.5889911313692694  1.0000
  C   C1        1.0  0.5007227374756626  0.4980712276142113  0.6454304306812946  1.0000
  C   C2        1.0  0.4989527254152223  0.49838329281957533  0.3545914139517877  1.0000
  C   C3        1.0  0.679136877628949  0.5010447978526855  0.5017334886979086  1.0000
  C   C4        1.0  0.3207856680782372  0.5017662909070495  0.49843054736339826  1.0000
  C   C5        1.0  0.7788837533681063  0.5005512591649577  0.5013051173985235  1.0000
  C   C6        1.0  0.22103853044733068  0.5013999800577056  0.4988660285995366  1.0000
  C   C7        1.0  0.8640436765269686  0.5001871330120194  0.5006380598692319  1.0000
  C   C8        1.0  0.13588276486159864  0.5007356499805553  0.49943075363780326  1.0000
  C   C9        1.0  0.9571097106600421  0.5000732661179298  0.5001454518101057  1.0000
  C   C10       1.0  0.042819911328699334  0.5002482743196667  0.4998638569518621  1.0000
  C   C11       1.0  0.5624069382381551  0.4511028546361827  0.15270705163542436  1.0000
  C   C12       1.0  0.562718908030071  0.5497755961493381  0.8477896564687698  1.0000
  C   C13       1.0  0.4387316723668635  0.4507367990944431  0.8475929331417051  1.0000
  C   C14       1.0  0.4372666879769513  0.5494172163504275  0.15188882157621467  1.0000
  C   C15       1.0  0.5616514461953559  0.452534181936393  0.2297858013240203  1.0000
  C   C16       1.0  0.5621317221982309  0.5467150144811653  0.7707365814676097  1.0000
  C   C17       1.0  0.4388216603757442  0.452074658180436  0.7705164041327068  1.0000
  C   C18       1.0  0.43712731077653205  0.5463651273670038  0.2289409664743901  1.0000
  C   C19       1.0  0.49913138601209545  0.49902876530191514  0.2707219071775455  1.0000
  C   C20       1.0  0.500597902559953  0.4987713827595853  0.7292915206403665  1.0000
  C   C21       1.0  0.5000669240034271  0.5006537101214263  0.11259843330299905  1.0000
  C   C22       1.0  0.5009228281501806  0.5005450023017771  0.887373536226683  1.0000
  C   C23       1.0  0.5005318966441338  0.5011873667001009  0.03382275799113901  1.0000
  C   C24       1.0  0.5009503238025346  0.5011566359390045  0.9661493135000757  1.0000
  C   C25       1.0  0.5592861808963862  0.1672350266633913  0.5471158655577997  1.0000
  C   C26       1.0  0.44027205317085827  0.8329818377717473  0.45407415533023976  1.0000
  C   C27       1.0  0.4535725241245601  0.1671436246897571  0.4444636787939232  1.0000
  C   C28       1.0  0.5482676615276746  0.832717195658546  0.5552522787962533  1.0000
  C   C29       1.0  0.5542255114929873  0.2509762786681193  0.5481735968509158  1.0000
  C   C30       1.0  0.44456717933614  0.7491976740084424  0.45312106114204204  1.0000
  C   C31       1.0  0.45106728373819766  0.250898442526548  0.44802838364302044  1.0000
  C   C32       1.0  0.5508774117923921  0.7489785682302424  0.5513948204585761  1.0000
  C   C33       1.0  0.5076902920422768  0.12122491177099444  0.4950566683575064  1.0000
  C   C34       1.0  0.4930663504567364  0.8786984924749744  0.5055082920547209  1.0000
  C   C35       1.0  0.5047676937514397  0.0363421102689401  0.4972217459370258  1.0000
  C   C36       1.0  0.4960134341898482  0.9636024474600191  0.5034922429615635  1.0000
  N   N1        1.0  0.5013587825601749  0.2915254669969726  0.49887297526873214  1.0000
  N   N2        1.0  0.49878852731825435  0.7085470096239704  0.5014741780418179  1.0000
  N   N3        1.0  0.6333316121134019  0.40415325716087847  0.2692586043484014  1.0000
  N   N4        1.0  0.6318630605139647  0.5958121681596679  0.7314733755245302  1.0000
  N   N5        1.0  0.3668223423826049  0.4038921548077851  0.7314138252387326  1.0000
  N   N6        1.0  0.365600878621649  0.5943713416538754  0.26754062009342056  1.0000
  N   N7        1.0  0.6227151355121451  0.12791914452602532  0.601265275440774  1.0000
  N   N8        1.0  0.376823619110148  0.8730174757559935  0.4004191780684892  1.0000
  N   N9        1.0  0.3994425019644226  0.12766795865304914  0.384397876913603  1.0000
  N   N10       1.0  0.6035423386733002  0.8724166560349644  0.6145261208741533  1.0000
  O   O1        1.0  0.5108160035119341  0.42961768346617646  0.6152029433887806  1.0000
  O   O2        1.0  0.5089474568175377  0.5664405177208991  0.3856847420067454  1.0000
  O   O3        1.0  0.48914958852027735  0.4298665284098675  0.3846895135543634  1.0000
  O   O4        1.0  0.4909480677501465  0.5662690980622855  0.6144820063376458  1.0000
  O   O5        1.0  0.6391341957569594  0.43264124891542366  0.4953443687471479  1.0000
  O   O6        1.0  0.36007368923008454  0.5703756505865697  0.49202452938526886  1.0000
  O   O7        1.0  0.360863673978784  0.4332661595108505  0.5046790964725433  1.0000
  O   O8        1.0  0.6397718013762699  0.5697210108165434  0.508303450656449  1.0000
  O   O9        1.0  0.6448820275300735  0.333885381050237  0.24764347098378192  1.0000
  O   O10       1.0  0.6771728547651608  0.4383733440832954  0.31952991528588376  1.0000
  O   O11       1.0  0.6788905518924012  0.5609964088386262  0.6841927842105165  1.0000
  O   O12       1.0  0.6382356858971363  0.6677717859827864  0.7496986900913357  1.0000
  O   O13       1.0  0.35428019363119745  0.3341599095830574  0.7538526310235981  1.0000
  O   O14       1.0  0.32355952333170995  0.4379623209605369  0.680642303877484  1.0000
  O   O15       1.0  0.32212233260874973  0.5598800767095254  0.3171303116081604  1.0000
  O   O16       1.0  0.3540030751173903  0.6648870229483845  0.24653189383237625  1.0000
  O   O17       1.0  0.6263978853748571  0.15812723546278556  0.6639989251672135  1.0000
  O   O18       1.0  0.6681406232952868  0.0697957503838964  0.5785024054530015  1.0000
  O   O19       1.0  0.3757176897357867  0.8455137278352323  0.336678498765565  1.0000
  O   O20       1.0  0.32929323611602984  0.929188531302131  0.4246195734503219  1.0000
  O   O21       1.0  0.3233771756947946  0.15826851733201855  0.3687025072850859  1.0000
  O   O22       1.0  0.4360233894559187  0.0689717852525504  0.3539774798128193  1.0000
  O   O23       1.0  0.6819975170901031  0.8448990253740403  0.6264956758922368  1.0000
  O   O24       1.0  0.5651511026805242  0.9283489833701779  0.6478366939437806  1.0000
