data_image0
_chemical_formula_structural       Ag4H24C20N4O8
_chemical_formula_sum              "Ag4 H24 C20 N4 O8"
_cell_length_a       8.139428834542057
_cell_length_b       8.139445904983118
_cell_length_c       9.50580176653671
_cell_angle_alpha    89.19442287487797
_cell_angle_beta     89.19435637912912
_cell_angle_gamma    71.42519686580215

_space_group_name_H-M_alt    "P 1"
_space_group_IT_number       1

loop_
  _space_group_symop_operation_xyz
  'x, y, z'

loop_
  _atom_site_type_symbol
  _atom_site_label
  _atom_site_symmetry_multiplicity
  _atom_site_fract_x
  _atom_site_fract_y
  _atom_site_fract_z
  _atom_site_occupancy
  Ag  Ag1       1.0  6.859481160987054e-07  1.0445879610002865e-06  0.4999997619709475  1.0000
  Ag  Ag2       1.0  0.0  0.0  0.0  1.0000
  Ag  Ag3       1.0  0.16881678869874148  0.8311823228530172  0.749999372386455  1.0000
  Ag  Ag4       1.0  0.8311831392706993  0.16881735862357056  0.2500002893331371  1.0000
  H   H1        1.0  0.5967577395086181  0.0049476845509417  0.9102843746327096  1.0000
  H   H2        1.0  0.9950538364142717  0.40324253310293307  0.5897158145640164  1.0000
  H   H3        1.0  0.4032429887038589  0.995053305319118  0.08971524471873242  1.0000
  H   H4        1.0  0.004947324997829042  0.5967571694549394  0.4102848740081911  1.0000
  H   H5        1.0  0.48708028832278655  0.9635069494966545  0.7618986035170325  1.0000
  H   H6        1.0  0.03649340621562663  0.5129183931117893  0.7381021418508313  1.0000
  H   H7        1.0  0.5129212887580294  0.0364914482161254  0.2381010508610402  1.0000
  H   H8        1.0  0.9635053058420694  0.4870812848164264  0.26189859643104546  1.0000
  H   H9        1.0  0.5360917961042447  0.3130345163985098  0.8307241696106189  1.0000
  H   H10       1.0  0.6869655382140251  0.4639085430215744  0.6692772726432497  1.0000
  H   H11       1.0  0.46390935654240206  0.6869651773929063  0.1692754672541383  1.0000
  H   H12       1.0  0.3130343897554154  0.5360911384550137  0.3307223890763425  1.0000
  H   H13       1.0  0.33927734986434643  0.26677106850435456  0.8329571134692632  1.0000
  H   H14       1.0  0.7332303865042674  0.6607219651784177  0.6670454438605802  1.0000
  H   H15       1.0  0.6607250362249529  0.733228646368346  0.16704355024811693  1.0000
  H   H16       1.0  0.26676955023062726  0.3392777250646262  0.3329552695664617  1.0000
  H   H17       1.0  0.39261488424047286  0.4150139321054098  0.6023983777797925  1.0000
  H   H18       1.0  0.5849889327607797  0.6073863373115103  0.8976041574067039  1.0000
  H   H19       1.0  0.6073846280602524  0.5849870542162634  0.39760231813393443  1.0000
  H   H20       1.0  0.4150109952086609  0.3926133441650776  0.10239550431288791  1.0000
  H   H21       1.0  0.35466529357356086  0.21426722804705634  0.5805657168873639  1.0000
  H   H22       1.0  0.7857351993266021  0.6453347212416675  0.9194357229573671  1.0000
  H   H23       1.0  0.6453362835072481  0.7857311696657234  0.4194339374907088  1.0000
  H   H24       1.0  0.2142635039656398  0.35466494792009234  0.08056396361705963  1.0000
  C   C1        1.0  0.7343310645748318  0.9915279259201739  0.7188279956891892  1.0000
  C   C2        1.0  0.008475456583028111  0.26566720291369705  0.7811715423445096  1.0000
  C   C3        1.0  0.2656692392034757  0.008474360028522202  0.2811716061489379  1.0000
  C   C4        1.0  0.9915269207408172  0.7343325031925474  0.21882806966541324  1.0000
  C   C5        1.0  0.5653289541119905  0.042306204107518404  0.8000861339389618  1.0000
  C   C6        1.0  0.9576955919473847  0.43467114672125007  0.6999151374889082  1.0000
  C   C7        1.0  0.434671791631395  0.9576948032954463  0.1999155888273876  1.0000
  C   C8        1.0  0.04230434478751019  0.5653285435217938  0.30008557593813384  1.0000
  C   C9        1.0  0.46628108624287273  0.23414546601659944  0.781081612581126  1.0000
  C   C10       1.0  0.7658555878458699  0.5337201563917732  0.7189208392449091  1.0000
  C   C11       1.0  0.5337212998464267  0.765854248856101  0.2189190511362469  1.0000
  C   C12       1.0  0.23414434012357074  0.46627952508481485  0.2810788224746831  1.0000
  C   C13       1.0  0.44568529613406593  0.2753624478652198  0.6244764013543076  1.0000
  C   C14       1.0  0.7246397324339638  0.5543151541402268  0.8755250206767544  1.0000
  C   C15       1.0  0.5543154408438654  0.7246385507712886  0.37552426970459163  1.0000
  C   C16       1.0  0.27535897085827793  0.44568451502153295  0.12447466589767231  1.0000
  C   C17       1.0  0.38581330971510397  0.7924458103998334  0.4569275699214189  1.0000
  C   C18       1.0  0.20755310572538124  0.61418614877266  0.043070406376458  1.0000
  C   C19       1.0  0.6141882187404023  0.20755648786369107  0.5430720070618735  1.0000
  C   C20       1.0  0.792446004470115  0.3858122067775512  0.9569271942963838  1.0000
  N   N1        1.0  0.7503998425582382  0.07728052203106729  0.5971968799930353  1.0000
  N   N2        1.0  0.9227207650092241  0.24960132498318197  0.9028043098646706  1.0000
  N   N3        1.0  0.24960046998553045  0.9227217726840848  0.4028037735525417  1.0000
  N   N4        1.0  0.07727873852605427  0.7503996525720497  0.09719533434160614  1.0000
  O   O1        1.0  0.8598822483559019  0.8691448321026272  0.7640638692629765  1.0000
  O   O2        1.0  0.1308542324046513  0.14011874003271882  0.7359366366910651  1.0000
  O   O3        1.0  0.14012055340211296  0.13085357792498092  0.23593576026026852  1.0000
  O   O4        1.0  0.8691473135817702  0.8598835757637106  0.26406504370713446  1.0000
  O   O5        1.0  0.3740262606321492  0.7258747243966752  0.5751975019253808  1.0000
  O   O6        1.0  0.2741220277486106  0.6259726333919389  0.9248011490559591  1.0000
  O   O7        1.0  0.6259749095454057  0.27412498692764586  0.4248042383542769  1.0000
  O   O8        1.0  0.7258746593888503  0.3740257238279768  0.0751996564489019  1.0000
