data_image0
_chemical_formula_structural       Cd2H44C42N12O8
_chemical_formula_sum              "Cd2 H44 C42 N12 O8"
_cell_length_a       11.169014940210076
_cell_length_b       12.082293046956122
_cell_length_c       12.2494
_cell_angle_alpha    60.30430088625235
_cell_angle_beta     76.97003442919932
_cell_angle_gamma    70.37603265171064

_space_group_name_H-M_alt    "P 1"
_space_group_IT_number       1

loop_
  _space_group_symop_operation_xyz
  'x, y, z'

loop_
  _atom_site_type_symbol
  _atom_site_label
  _atom_site_symmetry_multiplicity
  _atom_site_fract_x
  _atom_site_fract_y
  _atom_site_fract_z
  _atom_site_occupancy
  Cd  Cd1       1.0  0.23764166541161563  0.2917680937513083  0.24067076418322836  1.0000
  Cd  Cd2       1.0  0.7623578479978264  0.7082314298970616  0.7593285889701279  1.0000
  H   H1        1.0  0.8031836833970943  0.1896731229835424  0.9923194722366161  1.0000
  H   H2        1.0  0.1968167490084981  0.8103264006648202  0.007680508360422742  1.0000
  H   H3        1.0  0.7807297971508191  0.7863023109375716  0.19521066107139262  1.0000
  H   H4        1.0  0.21927038283205044  0.21369820078719928  0.8047880722419976  1.0000
  H   H5        1.0  0.033341477593005237  0.9064662349356567  0.3078229720040469  1.0000
  H   H6        1.0  0.9666577833937071  0.0935342767891143  0.6921743174991376  1.0000
  H   H7        1.0  0.059412428787162214  0.0803157906341738  0.3046802247127687  1.0000
  H   H8        1.0  0.9405870846222799  0.9196837330141889  0.6953199448071032  1.0000
  H   H9        1.0  0.08532505645713678  0.42289077316458185  0.9656635162234934  1.0000
  H   H10       1.0  0.9146751235257325  0.5771097385601891  0.03433603345641252  1.0000
  H   H11       1.0  0.9456563387926951  0.2939487783785992  0.928971750520418  1.0000
  H   H12       1.0  0.05434384119018181  0.7060517333461718  0.07102698279296497  1.0000
  H   H13       1.0  0.6712217290544586  0.12000286754396679  0.9231253548115745  1.0000
  H   H14       1.0  0.32877753193226067  0.8799976441808042  0.07687356742464148  1.0000
  H   H15       1.0  0.6824545378919779  0.9494129759077268  0.9826367401831888  1.0000
  H   H16       1.0  0.3175456420908915  0.0505875358170442  0.0173619931301943  1.0000
  H   H17       1.0  0.4945054003207474  0.2538249716975045  0.018440354346935757  1.0000
  H   H18       1.0  0.5054943655114101  0.74617356387445  0.9815594297235534  1.0000
  H   H19       1.0  0.34783646543967717  0.9539620796793926  0.3272077056816086  1.0000
  H   H20       1.0  0.6521663098036897  0.0460354678161607  0.6727927589040449  1.0000
  H   H21       1.0  0.5546549325307383  0.8376427609757328  0.20632450510510142  1.0000
  H   H22       1.0  0.4453464188710186  0.16235676267263696  0.7936744702025961  1.0000
  H   H23       1.0  0.01724098736758615  0.6878395090370261  0.42486067856475535  1.0000
  H   H24       1.0  0.9827598591887182  0.3121619907641531  0.5751382512751846  1.0000
  H   H25       1.0  0.852500748235002  0.6986322676160626  0.450493075616265  1.0000
  H   H26       1.0  0.1474994317478746  0.3013682441087084  0.5495064740636408  1.0000
  H   H27       1.0  0.1576910982838555  0.5672477479552853  0.2838221772739971  1.0000
  H   H28       1.0  0.842310505540624  0.4327507876166763  0.7161764125843176  1.0000
  H   H29       1.0  0.9019370176157935  0.3588831836058475  0.32413303564106133  1.0000
  H   H30       1.0  0.09805898153700099  0.6411193042717329  0.6758696733619516  1.0000
  H   H31       1.0  0.773528768034609  0.551980979411411  0.4042095662755543  1.0000
  H   H32       1.0  0.22647024052938047  0.44802052038976103  0.595793823242623  1.0000
  H   H33       1.0  0.43257403041053527  0.9189436637863507  0.5809645015189417  1.0000
  H   H34       1.0  0.5674243115800196  0.0810568479384202  0.41903297690707564  1.0000
  H   H35       1.0  0.27904378948883146  0.9085905992078338  0.6599964427996171  1.0000
  H   H36       1.0  0.7209566429167609  0.0914089244405361  0.3400019050643905  1.0000
  H   H37       1.0  0.3594182524042253  0.0134259822001255  0.6631273035671511  1.0000
  H   H38       1.0  0.6405803420090522  0.9865735414482373  0.33687468760857786  1.0000
  H   H39       1.0  0.36245682474278595  0.7279583753360868  0.8690984180641479  1.0000
  H   H40       1.0  0.6375438600855361  0.2720401602358749  0.13090280981654703  1.0000
  H   H41       1.0  0.2901878759111938  0.6403535450573514  0.8315458410943676  1.0000
  H   H42       1.0  0.7098129706451104  0.3596479547438278  0.16845472147860363  1.0000
  H   H43       1.0  0.4516300291526321  0.5754141994480761  0.8670018199551278  1.0000
  H   H44       1.0  0.5483701508302447  0.42458631227669485  0.13299936245780236  1.0000
  C   C1        1.0  0.9294156690810027  0.0567511564355598  0.1439847775206076  1.0000
  C   C2        1.0  0.07058384432843211  0.9432483672128029  0.8560170247322887  1.0000
  C   C3        1.0  0.8379370308574253  0.0882055807333799  0.06470897023334729  1.0000
  C   C4        1.0  0.16206314912544426  0.9117949309913911  0.9352905794465514  1.0000
  C   C5        1.0  0.784800618084688  0.9902017580098245  0.08377018815675542  1.0000
  C   C6        1.0  0.21519839047930134  0.0097997417913476  0.9162299358953588  1.0000
  C   C7        1.0  0.8217317851369258  0.8627517585963959  0.18172612900362842  1.0000
  C   C8        1.0  0.17826864726866629  0.137247765051967  0.8182730352268948  1.0000
  C   C9        1.0  0.9081115294228612  0.8335432319686404  0.26473494372343953  1.0000
  C   C10       1.0  0.09188982197889571  0.1664562916797223  0.7352640315842578  1.0000
  C   C11       1.0  0.964079554898291  0.9301188079343773  0.24433972287775424  1.0000
  C   C12       1.0  0.0359199585111512  0.0698807157139854  0.7556596302755949  1.0000
  C   C13       1.0  0.048913246756278304  0.1549402611717383  0.20724727364405032  1.0000
  C   C14       1.0  0.9510871856493213  0.8450592624766244  0.7927518905864728  1.0000
  C   C15       1.0  0.05870697937172052  0.33201343383029064  0.03050377272283812  1.0000
  C   C16       1.0  0.9412913626188343  0.6679870778944803  0.9694953384362108  1.0000
  C   C17       1.0  0.9913892310181325  0.2685196440025024  0.010232258763572604  1.0000
  C   C18       1.0  0.008610948964736985  0.7314808677222686  0.9897664745498176  1.0000
  C   C19       1.0  0.6752678394113332  0.026100038255542298  0.009118590881833227  1.0000
  C   C20       1.0  0.3247325929942662  0.9738994853928205  0.9908805733486902  1.0000
  C   C21       1.0  0.4808391219420045  0.1570537566034531  0.08630221669822906  1.0000
  C   C22       1.0  0.5191615628863105  0.8429447789685085  0.9136981948159432  1.0000
  C   C23       1.0  0.40916483519158925  0.9981617015338315  0.24455208211985993  1.0000
  C   C24       1.0  0.5908379400517703  0.0018358459617218  0.7554475660992708  1.0000
  C   C25       1.0  0.5109403272865691  0.9398266586199995  0.186420701106911  1.0000
  C   C26       1.0  0.4890610241151876  0.06017286502836329  0.8135782742007791  1.0000
  C   C27       1.0  0.9346625398982128  0.7017121017725074  0.38068623455766454  1.0000
  C   C28       1.0  0.06533764008465683  0.2982884099522636  0.6193133151222341  1.0000
  C   C29       1.0  0.07138597839656317  0.5345137647121305  0.3085001304219119  1.0000
  C   C30       1.0  0.9286139491635838  0.4654877350890416  0.6914989883408608  1.0000
  C   C31       1.0  0.9358218460420745  0.4310572246573726  0.3280291620756516  1.0000
  C   C32       1.0  0.06417741494464478  0.5689432870673983  0.671973841993143  1.0000
  C   C33       1.0  0.8709204848368941  0.5257416223826752  0.36748582398510615  1.0000
  C   C34       1.0  0.12907919030052994  0.47426086549491225  0.632516945693105  1.0000
  C   C35       1.0  0.3402169856261282  0.975621702567892  0.6056967528020607  1.0000
  C   C36       1.0  0.6597825277833138  0.0243778210804777  0.3943034167178112  1.0000
  C   C37       1.0  0.28173555304692144  0.0874329049841549  0.48539621909289105  1.0000
  C   C38       1.0  0.7182637079397975  0.9125676067406161  0.5146051522428721  1.0000
  C   C39       1.0  0.357790710874795  0.6299767666450933  0.890949931034541  1.0000
  C   C40       1.0  0.6422097215307971  0.3700227570032695  0.10905168229552939  1.0000
  C   C41       1.0  0.3174449959564001  0.5512498028712258  0.029184200928995194  1.0000
  C   C42       1.0  0.6825545174530419  0.4487497207771439  0.9708159685908766  1.0000
  N   N1        1.0  0.9861468221741561  0.15511317454273407  0.12289855000119583  1.0000
  N   N2        1.0  0.013853610231443306  0.8448863491056356  0.8771006142293275  1.0000
  N   N3        1.0  0.09310982534296391  0.2606278777504869  0.1533657204775523  1.0000
  N   N4        1.0  0.9068896880664782  0.739371645897883  0.8466336326757968  1.0000
  N   N5        1.0  0.555040497389264  0.0418045246471195  0.0854377751679465  1.0000
  N   N6        1.0  0.4449611064352154  0.9581940109248349  0.914561631056884  1.0000
  N   N7        1.0  0.3915884116262164  0.1332094967820296  0.1812185623006499  1.0000
  N   N8        1.0  0.6084116066286711  0.8667880507135237  0.8187816526869797  1.0000
  N   N9        1.0  0.9585701113598761  0.5901029432946316  0.3549839135801704  1.0000
  N   N10       1.0  0.04143073519643541  0.40989855650654045  0.6450166489928008  1.0000
  N   N11       1.0  0.060282382638895626  0.4378700114744091  0.2918365303241898  1.0000
  N   N12       1.0  0.9397157069289362  0.5621314883267701  0.7081637826507503  1.0000
  O   O1        1.0  0.2016324204061419  0.07302477483680289  0.4379500789014514  1.0000
  O   O2        1.0  0.7983652550109782  0.9269747488115669  0.5620529175636263  1.0000
  O   O3        1.0  0.3207999915603494  0.19310076003478116  0.4329753006492254  1.0000
  O   O4        1.0  0.6791974314340479  0.8068997516899898  0.5670248157991651  1.0000
  O   O5        1.0  0.30846979093529825  0.43650448988178425  0.056908654996412615  1.0000
  O   O6        1.0  0.6915306414702941  0.5634950337665856  0.9430913256006265  1.0000
  O   O7        1.0  0.2964305835518175  0.598945239048895  0.10501464301892577  1.0000
  O   O8        1.0  0.7035695964310591  0.40105527267587593  0.8949857230274958  1.0000
