data_image0
_chemical_formula_structural       Gd2Zn2H20C30N2O20
_chemical_formula_sum              "Gd2 Zn2 H20 C30 N2 O20"
_cell_length_a       7.78640570527115
_cell_length_b       10.207467157508269
_cell_length_c       11.635658498105238
_cell_angle_alpha    70.10922170049884
_cell_angle_beta     74.76517111282712
_cell_angle_gamma    79.80186184381617

_space_group_name_H-M_alt    "P 1"
_space_group_IT_number       1

loop_
  _space_group_symop_operation_xyz
  'x, y, z'

loop_
  _atom_site_type_symbol
  _atom_site_label
  _atom_site_symmetry_multiplicity
  _atom_site_fract_x
  _atom_site_fract_y
  _atom_site_fract_z
  _atom_site_occupancy
  Gd  Gd1       1.0  0.3651772077282446  0.4500226150265618  0.6770544791906872  1.0000
  Gd  Gd2       1.0  0.6348238830401202  0.5499794765026774  0.3229445740483571  1.0000
  Zn  Zn1       1.0  0.344566217433119  0.24617876332874283  0.46299435588257865  1.0000
  Zn  Zn2       1.0  0.6554349029797777  0.7538233161007283  0.5370064144843313  1.0000
  H   H1        1.0  0.9499289891423075  0.10235763870954168  0.8334739877579195  1.0000
  H   H2        1.0  0.05007016160143964  0.8976297410165865  0.16653405089523696  1.0000
  H   H3        1.0  0.7149152202290878  0.9589200932833252  0.9965448233224095  1.0000
  H   H4        1.0  0.2850815017000699  0.041075638225144886  0.0034629178516567896  1.0000
  H   H5        1.0  0.5381613827082816  0.0455800780146447  0.17203053274798924  1.0000
  H   H6        1.0  0.46182642511516314  0.9544219132331118  0.827971835965009  1.0000
  H   H7        1.0  0.8266267274334568  0.4128025898612647  0.023197624609529937  1.0000
  H   H8        1.0  0.17336945266166742  0.5871963300357377  0.9768024004413147  1.0000
  H   H9        1.0  0.7399530013353869  0.906067148984931  0.7387566879450559  1.0000
  H   H10       1.0  0.2600528659858627  0.09392871503435879  0.2612398891887082  1.0000
  H   H11       1.0  0.048700051932698316  0.8067275854603652  0.7692950771423739  1.0000
  H   H12       1.0  0.9513066104686062  0.19327246253495636  0.23070184127927726  1.0000
  H   H13       1.0  0.30425001270843666  0.9574817615800344  0.6530169234030082  1.0000
  H   H14       1.0  0.6957551936531133  0.04251931760540369  0.34698081673633396  1.0000
  H   H15       1.0  0.2747181241063714  0.4844805056097243  0.4459717269614103  1.0000
  H   H16       1.0  0.7252813547146745  0.5155236698226701  0.5540270068941381  1.0000
  H   H17       1.0  0.5437342910449843  0.25204511178233696  0.8821672122897154  1.0000
  H   H18       1.0  0.4562771261219894  0.7479591605582528  0.11782759321894785  1.0000
  H   H19       1.0  0.42092611355536047  0.36958298540868384  0.9315403481504986  1.0000
  H   H20       1.0  0.579089619579179  0.630419203725424  0.06845686105145174  1.0000
  C   C1        1.0  0.05096703187355441  0.3433096161540163  0.8261407976707601  1.0000
  C   C2        1.0  0.9490397039191336  0.6566809480007763  0.17386663635251406  1.0000
  C   C3        1.0  0.8997478465945934  0.2661295434435331  0.917787684556508  1.0000
  C   C4        1.0  0.10024727107214199  0.7338672797538734  0.0822122926959068  1.0000
  C   C5        1.0  0.8674546520744786  0.1390791312478328  0.9097439561072207  1.0000
  C   C6        1.0  0.13253796194638312  0.8609166203902133  0.09025765362837748  1.0000
  C   C7        1.0  0.7367266832337196  0.0598364856920739  0.0005120737143115882  1.0000
  C   C8        1.0  0.2632640514914969  0.9401634371255624  0.9994895101272405  1.0000
  C   C9        1.0  0.6367379269736092  0.10848335279022342  0.09895463832916818  1.0000
  C   C10       1.0  0.36325130724505084  0.8915176193671784  0.901045191538273  1.0000
  C   C11       1.0  0.6643544779896758  0.23781808655289183  0.1058587512726064  1.0000
  C   C12       1.0  0.3356329142627671  0.7621860524701135  0.8941353252904846  1.0000
  C   C13       1.0  0.5605592830353389  0.28819512378431966  0.21367408871481078  1.0000
  C   C14       1.0  0.43943319062017155  0.7118111281080033  0.7863210157015883  1.0000
  C   C15       1.0  0.797558293365242  0.31581711722621714  0.015461380136841297  1.0000
  C   C16       1.0  0.2024379981706517  0.6841807681073888  0.9845372103233814  1.0000
  C   C17       1.0  0.9670501750853976  0.3177468195858068  0.4466021736093352  1.0000
  C   C18       1.0  0.03294554442439334  0.6822562446146561  0.5534027312400767  1.0000
  C   C19       1.0  0.9768067322279209  0.17725059519484176  0.5463934390788907  1.0000
  C   C20       1.0  0.023190331880847726  0.8227524723788945  0.4536120786434523  1.0000
  C   C21       1.0  0.8259527706687994  0.10512092425071982  0.6127249056419826  1.0000
  C   C22       1.0  0.17404895855209904  0.894876950376471  0.3872795705657097  1.0000
  C   C23       1.0  0.6381678418358945  0.17166367332521296  0.604081693039454  1.0000
  C   C24       1.0  0.36183648764937726  0.8283342443478289  0.3959188575304964  1.0000
  C   C25       1.0  0.8530585933144152  0.9685116097577049  0.6921601845162115  1.0000
  C   C26       1.0  0.14694716256607168  0.031485288824974596  0.307837827208175  1.0000
  C   C27       1.0  0.02475487412808519  0.9127453795628355  0.7082754448473594  1.0000
  C   C28       1.0  0.9752505029633057  0.0872546408596833  0.2917242949570991  1.0000
  C   C29       1.0  0.16706979790715334  0.9942910651977924  0.6441836411726101  1.0000
  C   C30       1.0  0.8329353118359037  0.005711042501161498  0.3558163921212909  1.0000
  N   N1        1.0  0.1420230585560986  0.12222461599013461  0.563854259553338  1.0000
  N   N2        1.0  0.857975446770162  0.8777774264433731  0.4361495778873845  1.0000
  O   O1        1.0  0.09408520234665475  0.44937315011023315  0.8420917576858145  1.0000
  O   O2        1.0  0.9059138601834394  0.550623719506298  0.15790490680178235  1.0000
  O   O3        1.0  0.1392681405046758  0.2962618169627618  0.735744799567577  1.0000
  O   O4        1.0  0.8607499164211064  0.7037245875256273  0.2642686675881407  1.0000
  O   O5        1.0  0.5837781935038039  0.40792414700768376  0.21411031598523067  1.0000
  O   O6        1.0  0.41622424186354584  0.5920779478948288  0.7858893501267445  1.0000
  O   O7        1.0  0.4568538953347813  0.2043997780342792  0.3007031149251915  1.0000
  O   O8        1.0  0.5431267669577836  0.7956147899276756  0.6992891190294585  1.0000
  O   O9        1.0  0.10886519490876624  0.37652053903587307  0.3936013455509339  1.0000
  O   O10       1.0  0.8911365716415675  0.623476331277331  0.6063974032464615  1.0000
  O   O11       1.0  0.8131051264446543  0.364347708330186  0.4229490409558564  1.0000
  O   O12       1.0  0.18689287382947137  0.635658496556431  0.5770571005916166  1.0000
  O   O13       1.0  0.5739666360061905  0.2551567008181124  0.6680512660589598  1.0000
  O   O14       1.0  0.4260297521482031  0.7448401560019847  0.33194503124671115  1.0000
  O   O15       1.0  0.5573259326329776  0.13245374754209388  0.5420763795653514  1.0000
  O   O16       1.0  0.44267613091022195  0.8675410233949066  0.45792379287047413  1.0000
  O   O17       1.0  0.38347475542125414  0.4319112388679684  0.4714742375372153  1.0000
  O   O18       1.0  0.6165248496628238  0.5680918959511486  0.5285239202916472  1.0000
  O   O19       1.0  0.4259374987241742  0.3050019197544033  0.8851125617907485  1.0000
  O   O20       1.0  0.5740724624030521  0.6950033837763099  0.11488306543559895  1.0000
