data_image0
_chemical_formula_structural       Ni2H16C16N8O8
_chemical_formula_sum              "Ni2 H16 C16 N8 O8"
_cell_length_a       8.364322751532734
_cell_length_b       8.364322861994802
_cell_length_c       8.92446471725985
_cell_angle_alpha    82.94642556161327
_cell_angle_beta     82.94637625736299
_cell_angle_gamma    74.21844993724308

_space_group_name_H-M_alt    "P 1"
_space_group_IT_number       1

loop_
  _space_group_symop_operation_xyz
  'x, y, z'

loop_
  _atom_site_type_symbol
  _atom_site_label
  _atom_site_symmetry_multiplicity
  _atom_site_fract_x
  _atom_site_fract_y
  _atom_site_fract_z
  _atom_site_occupancy
  Ni  Ni1       1.0  0.15513399200219177  0.8448645969511472  0.7500035027319427  1.0000
  Ni  Ni2       1.0  0.8448698486564794  0.15512920635504904  0.24999972417940336  1.0000
  H   H1        1.0  0.3718986252046434  0.6699066137932376  0.03743440423021135  1.0000
  H   H2        1.0  0.3300954678957241  0.6281014266352611  0.4625649771745586  1.0000
  H   H3        1.0  0.6281020272934229  0.3300946710777807  0.9625683323262423  1.0000
  H   H4        1.0  0.6699031144200376  0.37189860470583364  0.5374314158918381  1.0000
  H   H5        1.0  0.6915208592012263  0.7110534726383759  0.04027666639783692  1.0000
  H   H6        1.0  0.28894655605491687  0.3084802060950905  0.45972160253968747  1.0000
  H   H7        1.0  0.3084781400763816  0.2889540523938903  0.959724425761685  1.0000
  H   H8        1.0  0.7110465526645771  0.6915222996681503  0.5402740125528993  1.0000
  H   H9        1.0  0.49125475757958964  0.9483218006258624  0.6327389759792155  1.0000
  H   H10       1.0  0.05168067264198586  0.5087464406568497  0.8672615927872228  1.0000
  H   H11       1.0  0.5087373514419085  0.05168444147444969  0.36726529068750574  1.0000
  H   H12       1.0  0.9483150532408545  0.4912598252995578  0.13273329393683037  1.0000
  H   H13       1.0  0.7453444416501613  0.8741500127886465  0.7796569263266163  1.0000
  H   H14       1.0  0.12585065244535798  0.25465830112506893  0.7203401805196208  1.0000
  H   H15       1.0  0.2546509506990091  0.12585749831269769  0.2203412178296063  1.0000
  H   H16       1.0  0.8741402614905948  0.745347943549902  0.27965413770045433  1.0000
  C   C1        1.0  0.4441739787832973  0.7335285446942164  0.9535788423597397  1.0000
  C   C2        1.0  0.2664746113147558  0.5558267948444352  0.5464205097517265  1.0000
  C   C3        1.0  0.5558244771252349  0.2664764772839589  0.046424838768920985  1.0000
  C   C4        1.0  0.7335233102546254  0.4441757331025328  0.453574553122479  1.0000
  C   C5        1.0  0.60234040406435  0.752452660317857  0.9562204963644376  1.0000
  C   C6        1.0  0.24755038120250114  0.3976605259257227  0.5437787956231688  1.0000
  C   C7        1.0  0.39765706027311143  0.24755610611798315  0.04378174983712312  1.0000
  C   C8        1.0  0.7524451330389397  0.6023419900270921  0.45621766408258685  1.0000
  C   C9        1.0  0.9893033365622584  0.9149388802490318  0.03892431485682128  1.0000
  C   C10       1.0  0.0850611396150569  0.010695907286063297  0.46107748734883097  1.0000
  C   C11       1.0  0.010700419765242905  0.08504618331877369  0.9610720762515896  1.0000
  C   C12       1.0  0.9149565944181999  0.9892954577126358  0.5389289133212358  1.0000
  C   C13       1.0  0.5004105795533748  0.8769759839169777  0.742576310858972  1.0000
  C   C14       1.0  0.12302715247113845  0.4995886647267794  0.7574243733403918  1.0000
  C   C15       1.0  0.499580868721729  0.12303275478920737  0.2574266256155653  1.0000
  C   C16       1.0  0.8769677001209288  0.5004163469296186  0.2425718768955322  1.0000
  N   N1        1.0  0.3822882822637368  0.8117853278329148  0.8192562448830786  1.0000
  N   N2        1.0  0.18821769931332719  0.6177138110295173  0.680745267956631  1.0000
  N   N3        1.0  0.6177127001560265  0.188214708284022  0.1807477171306502  1.0000
  N   N4        1.0  0.8117844917368586  0.38228623604707923  0.319251831668339  1.0000
  N   N5        1.0  0.6350938254667541  0.8432783203097215  0.8221696404953533  1.0000
  N   N6        1.0  0.15672289273083354  0.3649068296772881  0.6778299147976269  1.0000
  N   N7        1.0  0.3648981643714392  0.1567329196459752  0.1778329484547569  1.0000
  N   N8        1.0  0.8432661563432617  0.6351019051553379  0.3221643320072188  1.0000
  O   O1        1.0  0.044829161824132824  0.7871801399062901  0.9666001548134275  1.0000
  O   O2        1.0  0.21282178897957493  0.9551689043345559  0.533405429297204  1.0000
  O   O3        1.0  0.955183315672201  0.21281745493188706  0.03339717056697113  1.0000
  O   O4        1.0  0.7871815323262439  0.04480864749631049  0.46660867716528287  1.0000
  O   O5        1.0  0.9158446575769831  0.9168188270468389  0.17224206689827784  1.0000
  O   O6        1.0  0.08318702551428461  0.08415222079661785  0.32775936925149546  1.0000
  O   O7        1.0  0.08415614715051589  0.0831637205704325  0.8277594307331881  1.0000
  O   O8        1.0  0.9168449399421876  0.9158354652610966  0.6722413441333331  1.0000
