data_image0
_chemical_formula_structural       Ca2H30C34S4N8Cl2O16
_chemical_formula_sum              "Ca2 H30 C34 S4 N8 Cl2 O16"
_cell_length_a       5.598191793759882
_cell_length_b       10.63313593665923
_cell_length_c       18.400689858442213
_cell_angle_alpha    73.26598527610926
_cell_angle_beta     84.98460223914601
_cell_angle_gamma    76.3466605149956

_space_group_name_H-M_alt    "P 1"
_space_group_IT_number       1

loop_
  _space_group_symop_operation_xyz
  'x, y, z'

loop_
  _atom_site_type_symbol
  _atom_site_label
  _atom_site_symmetry_multiplicity
  _atom_site_fract_x
  _atom_site_fract_y
  _atom_site_fract_z
  _atom_site_occupancy
  Ca  Ca1       1.0  0.9999946613709909  4.111898341799401e-06  0.49999807070953023  1.0000
  Ca  Ca2       1.0  0.49998994003090763  0.49999940799605713  0.4999991675568935  1.0000
  H   H1        1.0  0.003831046812507607  0.7276764284082375  0.2461250288058352  1.0000
  H   H2        1.0  0.996160940172018  0.27232425229332335  0.7538780578581664  1.0000
  H   H3        1.0  0.7625818159134496  0.6915672745252267  0.9483562117469826  1.0000
  H   H4        1.0  0.23742963932016178  0.3084334067300318  0.05164137248375058  1.0000
  H   H5        1.0  0.075975474433875  0.6672454429614731  0.9732724302362353  1.0000
  H   H6        1.0  0.9240353851660501  0.3327531087662265  0.026732586370748393  1.0000
  H   H7        1.0  0.8666019616744477  0.822026256927934  0.9705415796095591  1.0000
  H   H8        1.0  0.13340661633242953  0.17797742418652968  0.02945723586742588  1.0000
  H   H9        1.0  0.3636367635084027  0.8950103649510267  0.08586761764613733  1.0000
  H   H10       1.0  0.636377566258915  0.1049832301569396  0.914133207196215  1.0000
  H   H11       1.0  0.6494843837117372  0.4217266212286858  0.3138100944975192  1.0000
  H   H12       1.0  0.3505175652244786  0.5782801226859107  0.6861873418423199  1.0000
  H   H13       1.0  0.30932810437064256  0.465104086570463  0.10423411102261329  1.0000
  H   H14       1.0  0.6906884804061377  0.5348925612263143  0.8957634271369695  1.0000
  H   H15       1.0  0.48335404905196816  0.9622939355786926  0.3344478031202269  1.0000
  H   H16       1.0  0.5166455203534994  0.0377007281831183  0.6655533100974222  1.0000
  H   H17       1.0  0.05084831772264656  0.3046899572582761  0.1739005860426274  1.0000
  H   H18       1.0  0.9491698651836343  0.695311718986666  0.8260955377584975  1.0000
  H   H19       1.0  0.09168985026278163  0.20214679466243973  0.31389044762901347  1.0000
  H   H20       1.0  0.9083134444030279  0.7978559882340193  0.6861037881592507  1.0000
  H   H21       1.0  0.9750687287624941  0.5700342770398449  0.5629521710840848  1.0000
  H   H22       1.0  0.024926364622430728  0.4299715098827334  0.4370445492972124  1.0000
  H   H23       1.0  0.13649935495835314  0.4476808178595063  0.6220161791362242  1.0000
  H   H24       1.0  0.8634926865577556  0.5523338884784366  0.3779873344133334  1.0000
  H   H25       1.0  0.7769827838155122  0.09085780928376151  0.2826716223320885  1.0000
  H   H26       1.0  0.22300574240934157  0.909133783402311  0.7173363174050704  1.0000
  H   H27       1.0  0.6781009583393997  0.20360901047815358  0.19296372915304258  1.0000
  H   H28       1.0  0.32189474582634864  0.796387530493824  0.8070458956551786  1.0000
  H   H29       1.0  0.9360037903903661  0.06925683377206579  0.19741883192967438  1.0000
  H   H30       1.0  0.06399671152122005  0.9307457270827654  0.8025891163863573  1.0000
  C   C1        1.0  0.8977021766201433  0.6849750434888834  0.13084399844579753  1.0000
  C   C2        1.0  0.10229513106117583  0.31503469850741084  0.8691552682882314  1.0000
  C   C3        1.0  0.7744345780507516  0.6095973902175019  0.19659504575721334  1.0000
  C   C4        1.0  0.22555110830309397  0.3904053654045113  0.8034057256074971  1.0000
  C   C5        1.0  0.8140077154598874  0.6592574944918183  0.06563170922996157  1.0000
  C   C6        1.0  0.18598681695404903  0.3407502396918646  0.9343685157667564  1.0000
  C   C7        1.0  0.8835667801283263  0.7127403124810882  0.9848090754455469  1.0000
  C   C8        1.0  0.11644052213866019  0.2872623314790985  0.015192123502416183  1.0000
  C   C9        1.0  0.2631513689821148  0.8477463423754513  0.20474196215554485  1.0000
  C   C10       1.0  0.7368542392463978  0.15225130163481992  0.7952590188597595  1.0000
  C   C11       1.0  0.48982546260371146  0.45634028140108995  0.204733505638444  1.0000
  C   C12       1.0  0.5101794274985565  0.5436634436554612  0.795263787649226  1.0000
  C   C13       1.0  0.2989447302675146  0.8676999437001172  0.27537715246278077  1.0000
  C   C14       1.0  0.7010581666329259  0.13229567349870316  0.7246258750092947  1.0000
  C   C15       1.0  0.3905795964774088  0.9095524602334846  0.14041291241292697  1.0000
  C   C16       1.0  0.6094390080847915  0.09044411334544829  0.8595883793750259  1.0000
  C   C17       1.0  0.516832925441321  0.39778409769079554  0.2830821918189699  1.0000
  C   C18       1.0  0.48316664060680375  0.6022196315326624  0.7169163548154812  1.0000
  C   C19       1.0  0.3228146695743135  0.4212491987155573  0.16534390323818118  1.0000
  C   C20       1.0  0.6771889188687865  0.5787485195125583  0.8346533241487606  1.0000
  C   C21       1.0  0.45838765915402047  0.9480862487937144  0.2795446243436075  1.0000
  C   C22       1.0  0.5416173302145637  0.05190838230292629  0.7204568678183704  1.0000
  C   C23       1.0  0.5481020818163528  0.9889320848521733  0.14694648250695505  1.0000
  C   C24       1.0  0.45191348297778694  0.011063449794981799  0.8530577918999211  1.0000
  C   C25       1.0  0.3739404066624488  0.3064371709272535  0.32046657804022516  1.0000
  C   C26       1.0  0.6260521120164456  0.6935656583006987  0.6795279880534506  1.0000
  C   C27       1.0  0.18050124661704095  0.33097451014839413  0.2047424831495092  1.0000
  C   C28       1.0  0.8195091334380392  0.6690241840705796  0.7952543720018992  1.0000
  C   C29       1.0  0.5871489027925989  0.0109416415848642  0.21636719711412405  1.0000
  C   C30       1.0  0.4128554296960159  0.9890549652711373  0.7836361673721651  1.0000
  C   C31       1.0  0.2023072725242514  0.27285217749111723  0.2829872229154518  1.0000
  C   C32       1.0  0.7976910265273958  0.7271496216925682  0.7170073300574413  1.0000
  C   C33       1.0  0.7541217047158071  0.0978511969472962  0.22304092505333978  1.0000
  C   C34       1.0  0.24588141597222796  0.9021443537555952  0.7769659110980027  1.0000
  S   S1        1.0  0.14973212230285776  0.7964710213218139  0.3621384621991054  1.0000
  S   S2        1.0  0.8502554300384944  0.20352672840586908  0.6378614370341109  1.0000
  S   S3        1.0  0.4238889932435085  0.23234203192073719  0.4191660492534054  1.0000
  S   S4        1.0  0.5761043741332942  0.7676587645513493  0.5808299090981918  1.0000
  N   N1        1.0  0.05717448757119561  0.7585958049634983  0.13150565259402916  1.0000
  N   N2        1.0  0.9428176387283997  0.2414080311429743  0.8684887614677235  1.0000
  N   N3        1.0  0.10090628370074484  0.7702714875957851  0.19794448206990004  1.0000
  N   N4        1.0  0.8990955986031254  0.22973118902956452  0.8020563379337344  1.0000
  N   N5        1.0  0.6351006536847517  0.5464627409240563  0.16560390923505244  1.0000
  N   N6        1.0  0.3648895780150241  0.45353704511450127  0.8343933994443514  1.0000
  N   N7        1.0  0.6588139942496055  0.578881990844998  0.08619552510170077  1.0000
  N   N8        1.0  0.341188088615617  0.42111973589835106  0.913802182351624  1.0000
  Cl  Cl1       1.0  0.703807197128775  0.06221357705754118  0.06613639987950386  1.0000
  Cl  Cl2       1.0  0.2962065077282291  0.9377819843103691  0.9338668413841943  1.0000
  O   O1        1.0  0.7909397049127518  0.6030111566790737  0.26465367452603056  1.0000
  O   O2        1.0  0.2090593701540725  0.39698952163308115  0.7353475596432515  1.0000
  O   O3        1.0  0.3311724895863435  0.6774330269685293  0.4021477621407071  1.0000
  O   O4        1.0  0.6688043308385191  0.32255480124408814  0.5978492009456173  1.0000
  O   O5        1.0  0.9296799575253445  0.7632000240194685  0.34306114944541116  1.0000
  O   O6        1.0  0.07030060197836717  0.23681085134909813  0.6569351961325862  1.0000
  O   O7        1.0  0.09698030907157568  0.9023739839235317  0.4017535882644765  1.0000
  O   O8        1.0  0.9030251046459625  0.09761963079517239  0.5982486000264657  1.0000
  O   O9        1.0  0.34322699639017173  0.34447769729120375  0.4547211114973209  1.0000
  O   O10       1.0  0.656762351948998  0.6555200447145639  0.5452787326849913  1.0000
  O   O11       1.0  0.2724730029746283  0.13232157369853337  0.4442380014804213  1.0000
  O   O12       1.0  0.7275183765864096  0.8676792874919742  0.5557547473398541  1.0000
  O   O13       1.0  0.6881140458613403  0.17326972599793322  0.4276455757351058  1.0000
  O   O14       1.0  0.3118846775392611  0.826731056807823  0.5723496733667516  1.0000
  O   O15       1.0  0.14535032876639054  0.5208333435499668  0.5757997786531062  1.0000
  O   O16       1.0  0.8546430904489598  0.4791773922704221  0.424201078441925  1.0000
