data_image0
_chemical_formula_structural       Cd2P4H24C14N4O20
_chemical_formula_sum              "Cd2 P4 H24 C14 N4 O20"
_cell_length_a       8.686104656502335
_cell_length_b       9.348579143382052
_cell_length_c       10.147635852077311
_cell_angle_alpha    70.02727132144724
_cell_angle_beta     66.60893449840191
_cell_angle_gamma    65.19371715458607

_space_group_name_H-M_alt    "P 1"
_space_group_IT_number       1

loop_
  _space_group_symop_operation_xyz
  'x, y, z'

loop_
  _atom_site_type_symbol
  _atom_site_label
  _atom_site_symmetry_multiplicity
  _atom_site_fract_x
  _atom_site_fract_y
  _atom_site_fract_z
  _atom_site_occupancy
  Cd  Cd1       1.0  0.17438822324028552  0.3579018331433729  0.5826027453765616  1.0000
  Cd  Cd2       1.0  0.8256172459039491  0.6420929963978279  0.4173938344391743  1.0000
  P   P1        1.0  0.9939285918982891  0.763867764304379  0.6003735072654166  1.0000
  P   P2        1.0  0.006071778545738496  0.23613560871568498  0.3996210299058021  1.0000
  P   P3        1.0  0.24748822411135066  0.5355038994534378  0.7901354504318406  1.0000
  P   P4        1.0  0.7525061276304473  0.46450566575418134  0.20986294405853556  1.0000
  H   H1        1.0  0.4222221143763463  0.10086061130940041  0.44652846781891486  1.0000
  H   H2        1.0  0.5778026033412544  0.8991214227117293  0.5534791700694442  1.0000
  H   H3        1.0  0.534220854419175  0.2138170571915268  0.4105726034458782  1.0000
  H   H4        1.0  0.4657887115772398  0.7861847062763656  0.58942073753294  1.0000
  H   H5        1.0  0.28257453192071574  0.634553935706954  0.3956769590218201  1.0000
  H   H6        1.0  0.7174368115463212  0.3654406026365037  0.6043239324507467  1.0000
  H   H7        1.0  0.228777144657684  0.5834768416423302  0.2897643568984022  1.0000
  H   H8        1.0  0.7712339278693179  0.41652010617693236  0.7102299744440612  1.0000
  H   H9        1.0  0.8314234741844756  0.027273431457892586  0.5752695795819847  1.0000
  H   H10       1.0  0.16857262525053332  0.9727313189268327  0.42472677279790366  1.0000
  H   H11       1.0  0.5093993289005568  0.5573358369024674  0.7031353512220377  1.0000
  H   H12       1.0  0.49059628820920415  0.4426689118307792  0.296867066106131  1.0000
  H   H13       1.0  0.7639426902520012  0.7283155840067648  0.028744562471139542  1.0000
  H   H14       1.0  0.23604392480561395  0.2716789097105589  0.9712595464592793  1.0000
  H   H15       1.0  0.1007642370259988  0.9006123547949938  0.7614200191732078  1.0000
  H   H16       1.0  0.8992284548302366  0.09938895510378389  0.2385872253767047  1.0000
  H   H17       1.0  0.5202295082712994  0.8617582322998838  0.19340258852839307  1.0000
  H   H18       1.0  0.4797612706442962  0.13825150746122714  0.8065938254627127  1.0000
  H   H19       1.0  0.45540815710200633  0.1511398066661513  0.1929338122974258  1.0000
  H   H20       1.0  0.544588028682199  0.84886970255895  0.8070571557616688  1.0000
  H   H21       1.0  0.6766405667961094  0.28858548314978794  0.008567024288595352  1.0000
  H   H22       1.0  0.32337636071029147  0.711414726748451  0.9914325469290973  1.0000
  H   H23       1.0  0.9331107096567879  0.6390891996891453  0.8578855883693278  1.0000
  H   H24       1.0  0.06687681649345482  0.3609123415713923  0.14212406963844865  1.0000
  C   C1        1.0  0.6056464782187803  0.9315805649036902  0.11643786925512244  1.0000
  C   C2        1.0  0.39435686659960106  0.06842028337256069  0.8835605050801902  1.0000
  C   C3        1.0  0.5739877809739724  0.08879262330660957  0.1159077960566535  1.0000
  C   C4        1.0  0.4260035160059348  0.9112194663695656  0.8840877720943395  1.0000
  C   C5        1.0  0.6964763129141858  0.1641941933973498  0.012833538751515139  1.0000
  C   C6        1.0  0.30351660221970184  0.8357928416318071  0.9871837938124839  1.0000
  C   C7        1.0  0.8469143182985592  0.08223653322854567  0.9149048148863981  1.0000
  C   C8        1.0  0.15307790315573308  0.9177742921489904  0.08509974761963685  1.0000
  C   C9        1.0  0.8733531866745851  0.9190448924400055  0.9186981972885275  1.0000
  C   C10       1.0  0.12664151639479834  0.08096226356705927  0.08130574650724039  1.0000
  C   C11       1.0  0.9736710638088512  0.1657327811604573  0.8041309162501875  1.0000
  C   C12       1.0  0.026335097556540277  0.8342560870044549  0.19586624135368425  1.0000
  C   C13       1.0  0.03358903012416198  0.6958397886714847  0.781494057976843  1.0000
  C   C14       1.0  0.9664076558393975  0.3041577947733102  0.21850918473037234  1.0000
  N   N1        1.0  0.7496262658653092  0.8516108187805853  0.01955315049349341  1.0000
  N   N2        1.0  0.25037198621452467  0.14840333153964738  0.9804388077012334  1.0000
  N   N3        1.0  0.016219043847932803  0.8344498062934703  0.8268340727495695  1.0000
  N   N4        1.0  0.9837878991017208  0.1655520727176736  0.17316098037053954  1.0000
  O   O1        1.0  0.44617127590267797  0.166057175771833  0.4890574602594383  1.0000
  O   O2        1.0  0.5538345505307947  0.8339400031339392  0.5109402953656144  1.0000
  O   O3        1.0  0.1210491981858439  0.08726400575262969  0.7250958445552058  1.0000
  O   O4        1.0  0.8789561265127974  0.9127130565791925  0.2748991266426655  1.0000
  O   O5        1.0  0.30674604363951374  0.5414289959797001  0.3553549441805117  1.0000
  O   O6        1.0  0.6932516174085493  0.45856973374324617  0.6446466894527844  1.0000
  O   O7        1.0  0.9280299652392616  0.3186745665943178  0.7902054066887985  1.0000
  O   O8        1.0  0.07199633045176063  0.681309883233311  0.20977242210106076  1.0000
  O   O9        1.0  0.9552329308189231  0.6288079209784666  0.5804485934946868  1.0000
  O   O10       1.0  0.04476554453857059  0.37119195447213826  0.4195534527141263  1.0000
  O   O11       1.0  0.8165976241018884  0.9136916231801986  0.617967742475237  1.0000
  O   O12       1.0  0.18339943402196474  0.0863083719423798  0.38202085350417286  1.0000
  O   O13       1.0  0.15165360198920305  0.8092680411190327  0.4818777379386745  1.0000
  O   O14       1.0  0.8483406574417458  0.19073200668309198  0.5181304143685708  1.0000
  O   O15       1.0  0.37977407414741293  0.6363724822994782  0.7352116533670024  1.0000
  O   O16       1.0  0.6202211052855661  0.363629916793947  0.2647905989765603  1.0000
  O   O17       1.0  0.3066064555609033  0.4299544977993221  0.6817447523651623  1.0000
  O   O18       1.0  0.6933823642762746  0.5700576456573926  0.3182663288148148  1.0000
  O   O19       1.0  0.2339142628795799  0.44558095280370197  0.9478075987165866  1.0000
  O   O20       1.0  0.7660763106124623  0.554431134395251  0.052197066856827144  1.0000
