data_image0
_chemical_formula_structural       Al6H29C84Cl21O28F12
_chemical_formula_sum              "Al6 H29 C84 Cl21 O28 F12"
_cell_length_a       13.98891268211764
_cell_length_b       14.091251382977683
_cell_length_c       27.206049991767088
_cell_angle_alpha    90.33694721284812
_cell_angle_beta     90.56330336972749
_cell_angle_gamma    60.91753792604438

_space_group_name_H-M_alt    "P 1"
_space_group_IT_number       1

loop_
  _space_group_symop_operation_xyz
  'x, y, z'

loop_
  _atom_site_type_symbol
  _atom_site_label
  _atom_site_symmetry_multiplicity
  _atom_site_fract_x
  _atom_site_fract_y
  _atom_site_fract_z
  _atom_site_occupancy
  Al  Al1       1.0  0.6031029115405672  0.5656294281137588  0.5068129737965705  1.0000
  Al  Al2       1.0  0.8090035751748983  0.6082147550720831  0.5037080447530613  1.0000
  Al  Al3       1.0  0.5837246402847142  0.8021342769497505  0.5037661270084968  1.0000
  Al  Al4       1.0  0.09323430940673919  0.06541049202760964  0.0149500034229675  1.0000
  Al  Al5       1.0  0.8549605461280547  0.08602009731368541  0.0177891648528856  1.0000
  Al  Al6       1.0  0.04921272045655909  0.8622377292990816  0.0185856146708829  1.0000
  H   H1        1.0  0.7190131954504436  0.7364247170996875  0.7323072179558352  1.0000
  H   H2        1.0  0.5402912076898685  0.7482800012852379  0.7528824381790642  1.0000
  H   H3        1.0  0.7285933580363064  0.5563038775001912  0.7362470968275048  1.0000
  H   H4        1.0  0.7902872266534187  0.7217840975166608  0.8094358648730875  1.0000
  H   H5        1.0  0.49815821987623105  0.7331201474850811  0.8309868391158518  1.0000
  H   H6        1.0  0.6988214406460714  0.4901334276777472  0.807588763756016  1.0000
  H   H7        1.0  0.9690878785848368  0.8286822593119888  0.7865956964667049  1.0000
  H   H8        1.0  0.24211736338562417  0.9688436928553442  0.8052661504811026  1.0000
  H   H9        1.0  0.8358025113687615  0.2101216766401207  0.7795426806011676  1.0000
  H   H10       1.0  0.9361282796477326  0.6923662349567997  0.3836828420350713  1.0000
  H   H11       1.0  0.5228943571592665  0.590894217352101  0.36625735753713684  1.0000
  H   H12       1.0  0.9042815040726137  0.5166988638849117  0.3662570044769994  1.0000
  H   H13       1.0  0.9594431602728618  0.7182036043051812  0.2946572968054824  1.0000
  H   H14       1.0  0.47346043839371527  0.6141921027654218  0.276861806865746  1.0000
  H   H15       1.0  0.9225323024658463  0.47021506613958  0.2768045038252325  1.0000
  H   H16       1.0  0.6098055721160875  0.9148781378721786  0.2785645409392359  1.0000
  H   H17       1.0  0.3161394463488704  0.9616655556090093  0.294873490645621  1.0000
  H   H18       1.0  0.7173607486692147  0.32349701126194913  0.2950942176425002  1.0000
  H   H19       1.0  0.5877456469875212  0.892145074431226  0.3678163543208939  1.0000
  H   H20       1.0  0.3708504074867775  0.9371747165958766  0.3837726509577735  1.0000
  H   H21       1.0  0.6963104747038072  0.3743155882358732  0.3843036278676807  1.0000
  H   H22       1.0  0.9045960368045557  0.6772004010537456  0.7353654817510532  1.0000
  H   H23       1.0  0.417733214117092  0.9156520452721395  0.737061879116567  1.0000
  H   H24       1.0  0.6794880597550447  0.42170376303330637  0.7300631292760257  1.0000
  H   H25       1.0  0.9643253922739986  0.7147679168988146  0.8104152005764008  1.0000
  H   H26       1.0  0.38240328063368156  0.913523660875121  0.8191519122644524  1.0000
  H   H27       1.0  0.7099821173669624  0.31483123204548485  0.8016049772376164  1.0000
  H   H28       1.0  0.5462121805707055  0.4415395767317703  0.4809819755321954  1.0000
  H   H29       1.0  0.21287812061190434  0.12109470925368264  0.9829268920704095  1.0000
  C   C1        1.0  0.4785209232608309  0.752743897836737  0.575965005595414  1.0000
  C   C2        1.0  0.7975964185677994  0.4767691081176009  0.5752661122099525  1.0000
  C   C3        1.0  0.7496203471443719  0.7828586026284434  0.571214113502407  1.0000
  C   C4        1.0  0.9201159576869812  0.7873230431756746  0.787483918960973  1.0000
  C   C5        1.0  0.32314484021176776  0.9016159392238731  0.796901344961732  1.0000
  C   C6        1.0  0.7855773788328618  0.2981505212686313  0.7828311444852005  1.0000
  C   C7        1.0  0.9036298107764507  0.7554779329401812  0.7352300745104402  1.0000
  C   C8        1.0  0.3485056036037334  0.9006232001076524  0.7418082419313023  1.0000
  C   C9        1.0  0.760591310950687  0.3493735021951353  0.7315665868021313  1.0000
  C   C10       1.0  0.8216984129911322  0.8760567051138886  0.8636286323114747  1.0000
  C   C11       1.0  0.2944130703672982  0.8036108152212974  0.8640934793059574  1.0000
  C   C12       1.0  0.8509169971988227  0.31238581622571343  0.8654725886029058  1.0000
  C   C13       1.0  0.7748229529816725  0.8285401462004027  0.663293692427267  1.0000
  C   C14       1.0  0.41558502152673776  0.7781803078001273  0.6688765314521419  1.0000
  C   C15       1.0  0.8425096049006624  0.4149789973367529  0.6681564341790323  1.0000
  C   C16       1.0  0.7653687202792412  0.8130559223239894  0.6200635453014769  1.0000
  C   C17       1.0  0.4388047224176219  0.7713664943669013  0.6257481932641228  1.0000
  C   C18       1.0  0.830339556501002  0.4376411582687395  0.6248151868134784  1.0000
  C   C19       1.0  0.8952496697246985  0.20630350930438338  0.9496235428516187  1.0000
  C   C20       1.0  0.873425081083148  0.9159421061577077  0.9519543434110178  1.0000
  C   C21       1.0  0.19247598644189878  0.8673880604040601  0.9491322602286233  1.0000
  C   C22       1.0  0.7607744004532933  0.7931304402552328  0.3812980991049884  1.0000
  C   C23       1.0  0.447819167967175  0.7625465479897712  0.38025263963602646  1.0000
  C   C24       1.0  0.8009320620063817  0.44631921688880255  0.3805300479320267  1.0000
  C   C25       1.0  0.8652913018877937  0.7415087438299606  0.360403681213498  1.0000
  C   C26       1.0  0.4781856665554614  0.6714986284651157  0.350033488248144  1.0000
  C   C27       1.0  0.8636096307301315  0.4745992391977009  0.3502301512995062  1.0000
  C   C28       1.0  0.8779323833854774  0.7550243434445103  0.3106320080402227  1.0000
  C   C29       1.0  0.4508339285255402  0.6847836241922776  0.30037667437367344  1.0000
  C   C30       1.0  0.8732190809912409  0.44904685918712045  0.30043189604851517  1.0000
  C   C31       1.0  0.7860925314579246  0.8191100860994918  0.2811621857442788  1.0000
  C   C32       1.0  0.3907517991042724  0.7894063444169035  0.2806912174936969  1.0000
  C   C33       1.0  0.8218562421408321  0.39317141212310935  0.2806484143402628  1.0000
  C   C34       1.0  0.48052105185691835  0.7446060771343351  0.4329689758708924  1.0000
  C   C35       1.0  0.7863962979854763  0.4782303339951635  0.4332513497177146  1.0000
  C   C36       1.0  0.7445521436414495  0.7772354383774948  0.43383071649691374  1.0000
  C   C37       1.0  0.6812844273926186  0.8665924016996981  0.30166543012607855  1.0000
  C   C38       1.0  0.3631782815466095  0.8804991290672884  0.31048931789286643  1.0000
  C   C39       1.0  0.7568332213910479  0.36734294973492587  0.3106733572489517  1.0000
  C   C40       1.0  0.6687369925068934  0.8545944132328311  0.3514631839530935  1.0000
  C   C41       1.0  0.39244646869101263  0.867099035303802  0.3600769457032484  1.0000
  C   C42       1.0  0.7459282355763931  0.3943401155470381  0.3603437148241256  1.0000
  C   C43       1.0  0.8213640817415706  0.7765797115628171  0.19032399529918115  1.0000
  C   C44       1.0  0.39642024436624007  0.8196182573999948  0.18951176871382103  1.0000
  C   C45       1.0  0.7726280035667656  0.3980861005380727  0.1907062975698608  1.0000
  C   C46       1.0  0.8377851153078165  0.8020469097126225  0.14252610054622042  1.0000
  C   C47       1.0  0.3516597074980722  0.8368991325959029  0.1420233298139166  1.0000
  C   C48       1.0  0.7932707669466479  0.3544537451487526  0.1431374128921519  1.0000
  C   C49       1.0  0.8064227872923624  0.977197186470533  0.17272893781559162  1.0000
  C   C50       1.0  0.2008407329941022  0.817899876179538  0.17456358318227672  1.0000
  C   C51       1.0  0.9686058106193655  0.21066354474562826  0.1722768488952511  1.0000
  C   C52       1.0  0.7918529304741069  0.9485374261897591  0.22039874700217868  1.0000
  C   C53       1.0  0.24708604385209296  0.8021644665599863  0.2218585664320187  1.0000
  C   C54       1.0  0.9449980865693419  0.2559566555557921  0.2196793708521838  1.0000
  C   C55       1.0  0.7997302761983605  0.8470807747985559  0.2300080690299637  1.0000
  C   C56       1.0  0.3456665925357995  0.8036389049460125  0.2299909859423437  1.0000
  C   C57       1.0  0.8459628262870421  0.3504108909881509  0.2296418613797897  1.0000
  C   C58       1.0  0.8319544632879923  0.9031516952629768  0.13328570501318643  1.0000
  C   C59       1.0  0.2515601057967274  0.8376539615413916  0.1343377867622593  1.0000
  C   C60       1.0  0.8918142783635118  0.25862270807937165  0.13362257746371853  1.0000
  C   C61       1.0  0.9135055643160895  0.20147151081489023  0.0847087810082812  1.0000
  C   C62       1.0  0.8661019973065579  0.9269886887289542  0.0845897666839761  1.0000
  C   C63       1.0  0.19306388459295212  0.8714980975661033  0.08551317533853361  1.0000
  C   C64       1.0  0.7087054368300585  0.8150030861360091  0.7450888194288368  1.0000
  C   C65       1.0  0.4865096111223152  0.7116716890970592  0.7526398261549757  1.0000
  C   C66       1.0  0.8054292125948378  0.49247754858671255  0.7520291069758329  1.0000
  C   C67       1.0  0.7649969151402869  0.9585638719347429  0.7274593868398256  1.0000
  C   C68       1.0  0.2974265905131901  0.7485905350525426  0.7256605265652851  1.0000
  C   C69       1.0  0.9624518695435283  0.3017227722721782  0.7361857944130962  1.0000
  C   C70       1.0  0.7604384781373879  0.9777927532686234  0.7854638762226359  1.0000
  C   C71       1.0  0.2503404164502925  0.7703803666925845  0.7796598119312677  1.0000
  C   C72       1.0  0.9695159588534991  0.28751998964632713  0.794392609207492  1.0000
  C   C73       1.0  0.8392947206816643  0.8903545009541384  0.9060469551913145  1.0000
  C   C74       1.0  0.25501328824402236  0.8246484680022731  0.9048422520871997  1.0000
  C   C75       1.0  0.8630100327681162  0.27275049232189713  0.9060552000004947  1.0000
  C   C76       1.0  0.7879244304864415  0.8408833787015765  0.7154198250212858  1.0000
  C   C77       1.0  0.38528177013746046  0.7856010181854954  0.7200100017486051  1.0000
  C   C78       1.0  0.8452459106543843  0.3888721527878969  0.7196589980360883  1.0000
  C   C79       1.0  0.737407974392461  0.8078861523929816  0.8005782206700618  1.0000
  C   C80       1.0  0.45221264340992906  0.7071178218981514  0.8067037905685838  1.0000
  C   C81       1.0  0.7857904228122051  0.4667927791028033  0.8050236459147372  1.0000
  C   C82       1.0  0.8072577635462889  0.8643740645883611  0.8114769479419764  1.0000
  C   C83       1.0  0.32941292432468566  0.7926214173918354  0.8134138281630996  1.0000
  C   C84       1.0  0.849148199166855  0.34219968597009354  0.8144784089247709  1.0000
  Cl  Cl1       1.0  0.6210451754522309  0.8468530413167271  0.8383839699661025  1.0000
  Cl  Cl2       1.0  0.49110850068030487  0.5730232651015255  0.8266439795208032  1.0000
  Cl  Cl3       1.0  0.8024479328372535  0.549646822114873  0.8500570093476156  1.0000
  Cl  Cl4       1.0  0.8615446609129052  0.708950543552852  0.09686049084632493  1.0000
  Cl  Cl5       1.0  0.42180825178375864  0.8546321412506185  0.09494712011955643  1.0000
  Cl  Cl6       1.0  0.6977437980417915  0.42241873342511815  0.09804683984462059  1.0000
  Cl  Cl7       1.0  0.7688285420062612  0.03668006204184563  0.2684692980039785  1.0000
  Cl  Cl8       1.0  0.18123337487681113  0.7843306884338258  0.2711285384039144  1.0000
  Cl  Cl9       1.0  0.036040773645375196  0.19272678584280098  0.2671335862616999  1.0000
  Cl  Cl10      1.0  0.8010933070501521  0.10005006571964238  0.1651717038218337  1.0000
  Cl  Cl11      1.0  0.0778009368793278  0.8201510988086724  0.16807175320490592  1.0000
  Cl  Cl12      1.0  0.08852513385728858  0.09246096272981666  0.16395060191211291  1.0000
  Cl  Cl13      1.0  0.6255414107523689  0.06844017075298574  0.8043401197666854  1.0000
  Cl  Cl14      1.0  0.23466126125001807  0.6600012634004101  0.8008196548156762  1.0000
  Cl  Cl15      1.0  0.04489713059759029  0.345405648594017  0.8213364370389726  1.0000
  Cl  Cl16      1.0  0.8445742772445826  0.035853801811682975  0.8024711155002892  1.0000
  Cl  Cl17      1.0  0.11815321163921769  0.8878950248552824  0.7802873459343971  1.0000
  Cl  Cl18      1.0  0.0376060749504461  0.1465061191501107  0.8095929570066432  1.0000
  Cl  Cl19      1.0  0.0132708643140944  0.734308762369167  0.6961993146340435  1.0000
  Cl  Cl20      1.0  0.23944157859955337  0.006345029236392465  0.708102632288302  1.0000
  Cl  Cl21      1.0  0.7535202200124687  0.2595746636055834  0.687453409189935  1.0000
  O   O1        1.0  0.7053562323738093  0.4906779725481695  0.5617873069963153  1.0000
  O   O2        1.0  0.8252594191139976  0.6923808485458873  0.5550123964916125  1.0000
  O   O3        1.0  0.4881454019968529  0.8302143099362168  0.5557797271229816  1.0000
  O   O4        1.0  0.17469594392635193  0.9606634253436039  0.9621911576709863  1.0000
  O   O5        1.0  0.8206954883527542  0.1921441831054267  0.9706969060077741  1.0000
  O   O6        1.0  0.9617529846805368  0.8411777996356231  0.9711981312114022  1.0000
  O   O7        1.0  0.5039379602323136  0.6615603489294555  0.5574644231104671  1.0000
  O   O8        1.0  0.8627977708051305  0.49795358586162275  0.5501706233065988  1.0000
  O   O9        1.0  0.6595644322557915  0.8453920604052241  0.5493698515317718  1.0000
  O   O10       1.0  0.7102119917969104  0.47518223556109235  0.45653009548905743  1.0000
  O   O11       1.0  0.8238408397843243  0.700577915188532  0.45754952816277955  1.0000
  O   O12       1.0  0.4763633457274351  0.8256829905633508  0.4574774909060011  1.0000
  O   O13       1.0  0.5141242741917152  0.6507229998562422  0.4502091834561952  1.0000
  O   O14       1.0  0.8506226667774682  0.5115691922807597  0.4513488988400809  1.0000
  O   O15       1.0  0.6496280059066635  0.8379195250566551  0.4518448563510092  1.0000
  O   O16       1.0  0.6663645774685206  0.6597723675627802  0.5052477498821801  1.0000
  O   O17       1.0  0.9983058133085406  0.003821925511054757  0.0173501663565645  1.0000
  O   O18       1.0  0.9945361979770624  0.16421644999346055  0.9621450594007683  1.0000
  O   O19       1.0  0.8165146712088925  0.012362876652716018  0.9684131858012962  1.0000
  O   O20       1.0  0.15700362972757628  0.8091733037214296  0.9702468568567681  1.0000
  O   O21       1.0  0.18003624758551948  0.9589693614247988  0.0675854795983142  1.0000
  O   O22       1.0  0.8363477439826212  0.18619595887977164  0.06717348191870091  1.0000
  O   O23       1.0  0.9562607825441275  0.8534488672759504  0.067311730226173  1.0000
  O   O24       1.0  0.005803856359420899  0.1687722787833081  0.06577311767689051  1.0000
  O   O25       1.0  0.8071288757938504  0.020001463598795205  0.065066312497315  1.0000
  O   O26       1.0  0.15708616438963924  0.8104802709448719  0.06686144874486641  1.0000
  O   O27       1.0  0.5419395252283791  0.4832982007794297  0.5099552910000114  1.0000
  O   O28       1.0  0.18171377873018457  0.1200317682252673  0.014320666141841803  1.0000
  F   F1        1.0  0.8271672420785803  0.6792895727839646  0.1985732986259094  1.0000
  F   F2        1.0  0.49252910659482296  0.8193331637759227  0.19674937480579055  1.0000
  F   F3        1.0  0.6773784205742572  0.4900841969670107  0.1995226952004998  1.0000
  F   F4        1.0  0.6001081764300834  0.8924055123609801  0.7353973599128879  1.0000
  F   F5        1.0  0.547401103817343  0.6084265449707615  0.7321654635276433  1.0000
  F   F6        1.0  0.8807269404910868  0.5312269808773489  0.7505403501044798  1.0000
  F   F7        1.0  0.8470045665233454  0.9720615153071888  0.7073949264483945  1.0000
  F   F8        1.0  0.2157970169381827  0.7983622158645003  0.6916939003907814  1.0000
  F   F9        1.0  0.9855557053194984  0.205570107516429  0.7137291885086582  1.0000
  F   F10       1.0  0.6702655640558248  0.03308230339870016  0.7054316312177207  1.0000
  F   F11       1.0  0.3466457521435585  0.6394712109374152  0.7157114772679805  1.0000
  F   F12       1.0  0.03853170137032439  0.3280290837377321  0.7199392914380809  1.0000
