data_image0
_chemical_formula_structural       Al2H14C22N2O14
_chemical_formula_sum              "Al2 H14 C22 N2 O14"
_cell_length_a       6.77672862716564
_cell_length_b       11.209285556175415
_cell_length_c       16.927685320318876
_cell_angle_alpha    85.72192823814885
_cell_angle_beta     82.77651544784572
_cell_angle_gamma    71.18557924818961

_space_group_name_H-M_alt    "P 1"
_space_group_IT_number       1

loop_
  _space_group_symop_operation_xyz
  'x, y, z'

loop_
  _atom_site_type_symbol
  _atom_site_label
  _atom_site_symmetry_multiplicity
  _atom_site_fract_x
  _atom_site_fract_y
  _atom_site_fract_z
  _atom_site_occupancy
  Al  Al1       1.0  0.49999469432574983  0.5000036161467988  0.49999985803865593  1.0000
  Al  Al2       1.0  0.9999988230152893  0.5000022723227316  0.4999987652603153  1.0000
  H   H1        1.0  0.20499266059726304  0.6303315652086141  0.4287701138095485  1.0000
  H   H2        1.0  0.7950031131903827  0.3696718886132118  0.571228255225499  1.0000
  H   H3        1.0  0.8581149381071783  0.4997751326153264  0.737293984197052  1.0000
  H   H4        1.0  0.7933906234124422  0.5012523810567301  0.8853061996563909  1.0000
  H   H5        1.0  0.42128606535883517  0.5085663888086245  0.8963294248173311  1.0000
  H   H6        1.0  0.5787225734940548  0.4914322775738215  0.10366907921941501  1.0000
  H   H7        1.0  0.20662288633418072  0.4987368047400194  0.1146954178543993  1.0000
  H   H8        1.0  0.14189409547277892  0.5002140798916341  0.2627078628831186  1.0000
  H   H9        1.0  0.23746759621067767  0.8879923760962428  0.5000966752601242  1.0000
  H   H10       1.0  0.762527567400042  0.1120121522613715  0.49989399848224286  1.0000
  H   H11       1.0  0.5148606398830822  0.5153984331359638  0.6840992772603515  1.0000
  H   H12       1.0  0.4851399715802033  0.48459844114063333  0.31589735503185784  1.0000
  H   H13       1.0  0.06738005418874592  0.21982127066426216  0.4817872080112976  1.0000
  H   H14       1.0  0.9326142694242067  0.780187882841929  0.5182080349849585  1.0000
  C   C1        1.0  0.6290917052135754  0.7282892787582541  0.5079224132581857  1.0000
  C   C2        1.0  0.7935387444588571  0.4998334533673371  0.3550596304189568  1.0000
  C   C3        1.0  0.3709094930555424  0.27170941190483683  0.4920776548254437  1.0000
  C   C4        1.0  0.206456521298982  0.5001681031225756  0.6449400285496553  1.0000
  C   C5        1.0  0.17478555401588364  0.503620285508788  0.7322221120502164  1.0000
  C   C6        1.0  0.9805411990994775  0.5014094308513464  0.7724625826230921  1.0000
  C   C7        1.0  0.9434748645567268  0.5020987849012785  0.854347426683411  1.0000
  C   C8        1.0  0.10534631446038392  0.5036461447050798  0.898857510566387  1.0000
  C   C9        1.0  0.2989664053813215  0.506712092128879  0.8607968011068439  1.0000
  C   C10       1.0  0.3351915985797618  0.5079683520404925  0.7774248043444629  1.0000
  C   C11       1.0  0.701040259250142  0.4932875261564504  0.1392017634634399  1.0000
  C   C12       1.0  0.8946647906268052  0.49635061665682667  0.1011415396420432  1.0000
  C   C13       1.0  0.056539127355762275  0.49788945789599376  0.1456542068169711  1.0000
  C   C14       1.0  0.019467824633480308  0.49857979177379264  0.2275386737414635  1.0000
  C   C15       1.0  0.8252141620446879  0.4963784039395306  0.2677786232721644  1.0000
  C   C16       1.0  0.6648149946298219  0.492025605818398  0.2225751906408746  1.0000
  C   C17       1.0  0.4359849017973403  0.13259670948671237  0.4945240437790446  1.0000
  C   C18       1.0  0.5640048385161334  0.867403980090032  0.50547357440918  1.0000
  C   C19       1.0  0.2865830854582825  0.06768313565581249  0.4939002672705399  1.0000
  C   C20       1.0  0.7134101174550975  0.9323194638005746  0.5060941357909955  1.0000
  C   C21       1.0  0.3531718433284396  0.9363665453464236  0.4997897462163721  1.0000
  C   C22       1.0  0.6468222943756672  0.063634198465536  0.5002029166774804  1.0000
  N   N1        1.0  0.08752615530897863  0.5026107954980503  0.983159391295395  1.0000
  N   N2        1.0  0.9124854614850901  0.4973849925098434  0.016841447049500923  1.0000
  O   O1        1.0  0.496240699102529  0.6725428637331348  0.5009092318149726  1.0000
  O   O2        1.0  0.9372833340289194  0.5125433121265033  0.3921671952729255  1.0000
  O   O3        1.0  0.1749429462974419  0.3304313875139541  0.4842195471832867  1.0000
  O   O4        1.0  0.3836361853371102  0.5086665560649238  0.6097464833011159  1.0000
  O   O5        1.0  0.5037559934589169  0.3274558839946877  0.49908929369117055  1.0000
  O   O6        1.0  0.06270953074655945  0.48746294924263384  0.6078329744633494  1.0000
  O   O7        1.0  0.82505381151595  0.6695701600725598  0.5157800352621962  1.0000
  O   O8        1.0  0.6163595527395955  0.4913340675436828  0.39025260094146574  1.0000
  O   O9        1.0  0.22955696444856946  0.5588545435498135  0.466409577403077  1.0000
  O   O10       1.0  0.7704339261054898  0.4411526697222001  0.5335906528667209  1.0000
  O   O11       1.0  0.5232033227113247  0.5128112193865987  0.7428615743580738  1.0000
  O   O12       1.0  0.47680817959577854  0.48718181935349486  0.2571352534693645  1.0000
  O   O13       1.0  0.0804305583228242  0.12852874697609448  0.4878422988278786  1.0000
  O   O14       1.0  0.9195606863860563  0.871477654832745  0.5121502681284227  1.0000
