data_image0
_chemical_formula_structural       Zn4H38C59O16
_chemical_formula_sum              "Zn4 H38 C59 O16"
_cell_length_a       15.451616323175426
_cell_length_b       15.729122139048316
_cell_length_c       17.61582938566686
_cell_angle_alpha    70.90591477521457
_cell_angle_beta     89.24489656154675
_cell_angle_gamma    69.0530685113595

_space_group_name_H-M_alt    "P 1"
_space_group_IT_number       1

loop_
  _space_group_symop_operation_xyz
  'x, y, z'

loop_
  _atom_site_type_symbol
  _atom_site_label
  _atom_site_symmetry_multiplicity
  _atom_site_fract_x
  _atom_site_fract_y
  _atom_site_fract_z
  _atom_site_occupancy
  Zn  Zn1       1.0  0.4299946410489141  0.5599649164688856  0.5693613473752137  1.0000
  Zn  Zn2       1.0  0.5447147890961405  0.5838408180510085  0.4204199065498245  1.0000
  Zn  Zn3       1.0  0.4266224432362335  0.44748346015536816  0.4550336884491132  1.0000
  Zn  Zn4       1.0  0.6171910225029078  0.37851834922391  0.5699707439561834  1.0000
  H   H1        1.0  0.7450155825723285  0.345715489509857  0.06727008817312449  1.0000
  H   H2        1.0  0.292238219218902  0.8458507206977544  0.4873755280343844  1.0000
  H   H3        1.0  0.5441436864623767  0.510240037764035  0.1964215306562735  1.0000
  H   H4        1.0  0.2700508862471835  0.150437873237216  0.4961008244181145  1.0000
  H   H5        1.0  0.23736840934022752  0.012096992230517904  0.49575473987150787  1.0000
  H   H6        1.0  0.574570484588527  0.8318305344582199  0.4892664061818623  1.0000
  H   H7        1.0  0.7156446143805937  0.1146777953607128  0.5597182186869177  1.0000
  H   H8        1.0  0.6596461828344646  0.8740198657667406  0.5405664840006636  1.0000
  H   H9        1.0  0.7717757200458025  0.9419298128137046  0.5684788593802425  1.0000
  H   H10       1.0  0.2617226965200102  0.6954355131162303  0.19652083482102972  1.0000
  H   H11       1.0  0.2927226471872045  0.7320081953615019  0.9184687584970277  1.0000
  H   H12       1.0  0.23278987092705  0.7387608745267044  0.04717946626657022  1.0000
  H   H13       1.0  0.7836555730396669  0.3032158495860386  0.9452523271959095  1.0000
  H   H14       1.0  0.7377166350957723  0.3220264833352929  0.8034024636259434  1.0000
  H   H15       1.0  0.4737313677245041  0.5389914780548183  0.8006856032563832  1.0000
  H   H16       1.0  0.6327253604016005  0.4346453031758842  0.13971611259157876  1.0000
  H   H17       1.0  0.1929203650777963  0.6239870710017215  0.7634804660484208  1.0000
  H   H18       1.0  0.08219731228851389  0.6613726802564203  0.7075891006282404  1.0000
  H   H19       1.0  0.25337285854872243  0.7023851969143705  0.6410071400088528  1.0000
  H   H20       1.0  0.1506452208812091  0.7302314068554312  0.5798095874556424  1.0000
  H   H21       1.0  0.057414536483761915  0.84248265661207  0.6520515705643462  1.0000
  H   H22       1.0  0.15169859930186644  0.8752749651555689  0.6118222489642806  1.0000
  H   H23       1.0  0.8026493747740061  0.46975317721599213  0.320848802702713  1.0000
  H   H24       1.0  0.16069531640606977  0.8109243636234352  0.7163365788447394  1.0000
  H   H25       1.0  0.27684584755238717  0.3869113976328081  0.43383807306511113  1.0000
  H   H26       1.0  0.2328538543379962  0.29638332649554405  0.43939853349656505  1.0000
  H   H27       1.0  0.39273705793365815  0.32544059566043876  0.34209380355366653  1.0000
  H   H28       1.0  0.34027388814907766  0.24210018516173898  0.34256712875586004  1.0000
  H   H29       1.0  0.1854315290217912  0.38447587755442203  0.2816961109272001  1.0000
  H   H30       1.0  0.275475435359489  0.3877227330026969  0.21848458973106943  1.0000
  H   H31       1.0  0.2439412369031188  0.4650747391084948  0.2766293930686743  1.0000
  H   H32       1.0  0.47388242508577605  0.6784666391866807  0.7912667636709402  1.0000
  H   H33       1.0  0.08162648051851558  0.5351000083647649  0.3080476314104602  1.0000
  H   H34       1.0  0.9477379293408389  0.49890161521307874  0.27926784642262  1.0000
  H   H35       1.0  0.869497819811869  0.4560615716321692  0.5610678202962093  1.0000
  H   H36       1.0  0.9332091316317557  0.5077250840282233  0.624953215306313  1.0000
  H   H37       1.0  0.03102250223094664  0.5403835281421294  0.7122267176795918  1.0000
  H   H38       1.0  0.18739224712788874  0.547056408437065  0.4027965317554277  1.0000
  C   C1        1.0  0.7396446475622794  0.44979257139257106  0.4655852607925582  1.0000
  C   C2        1.0  0.4228224026612536  0.6294197563397576  0.9090055645992194  1.0000
  C   C3        1.0  0.35608831557586745  0.6716921722177249  0.9520878934874021  1.0000
  C   C4        1.0  0.2666668369500941  0.5213535730279233  0.5435094143482149  1.0000
  C   C5        1.0  0.3705208785782686  0.6438047479990348  0.03735519721894318  1.0000
  C   C6        1.0  0.4596114522426261  0.5750449613757453  0.07930022339608916  1.0000
  C   C7        1.0  0.3001360406158111  0.6867569298263022  0.08057166954792191  1.0000
  C   C8        1.0  0.3162043707510945  0.66359711106297  0.16295294827654055  1.0000
  C   C9        1.0  0.4759838803594361  0.5579308089169643  0.16261844373663345  1.0000
  C   C10       1.0  0.9296480466167909  0.49093067041448524  0.3406810347051632  1.0000
  C   C11       1.0  0.829718691185242  0.4604958822162715  0.44406783540587474  1.0000
  C   C12       1.0  0.6916821165909612  0.3670493590097125  0.8343785890426577  1.0000
  C   C13       1.0  0.13887052616502862  0.5403800081901765  0.6332937576697689  1.0000
  C   C14       1.0  0.0523189736971617  0.5338994130282018  0.6544723203011529  1.0000
  C   C15       1.0  0.998181704129614  0.5150387272463277  0.6054001663054082  1.0000
  C   C16       1.0  0.46261078884707973  0.7359657230076023  0.4757468715627839  1.0000
  C   C17       1.0  0.02423337756271586  0.5075036297175473  0.5299182203935331  1.0000
  C   C18       1.0  0.10891814400277869  0.5195574727198532  0.5056743114705713  1.0000
  C   C19       1.0  0.966110559196622  0.49147768142194076  0.47609825186170013  1.0000
  C   C20       1.0  0.9881558223130114  0.5012194019476937  0.3954328915905379  1.0000
  C   C21       1.0  0.06794107457216111  0.523714207432178  0.37077352373313505  1.0000
  C   C22       1.0  0.12686894179311278  0.5303779076737599  0.4236728701578515  1.0000
  C   C23       1.0  0.5430202846176612  0.4925444297813826  0.8325079353892663  1.0000
  C   C24       1.0  0.8875555405559511  0.467550017760253  0.49947836652005867  1.0000
  C   C25       1.0  0.8502433483895542  0.473613591943888  0.3635355837419141  1.0000
  C   C26       1.0  0.16966145909243824  0.5288334073159788  0.560669785901503  1.0000
  C   C27       1.0  0.31135870046115577  0.9715360286146791  0.4958042786332583  1.0000
  C   C28       1.0  0.5546604977804391  0.2484539137241271  0.5178335564082917  1.0000
  C   C29       1.0  0.43672723383710366  0.8315460756010327  0.48591462606710684  1.0000
  C   C30       1.0  0.6664200109330167  0.084339639300623  0.5473534103417991  1.0000
  C   C31       1.0  0.6978487783225873  0.9874269626291863  0.5520257569319044  1.0000
  C   C32       1.0  0.6347401960465646  0.9497800410613237  0.5361272917238936  1.0000
  C   C33       1.0  0.5383135597992633  0.0061616579888194994  0.5173415587978526  1.0000
  C   C34       1.0  0.568237631649808  0.4877920338967314  0.910867742686932  1.0000
  C   C35       1.0  0.5050873800368477  0.10563738259931911  0.5139261404644204  1.0000
  C   C36       1.0  0.4736658615832639  0.9625859307857424  0.5039625942958781  1.0000
  C   C37       1.0  0.37620179974476997  0.014794577481716  0.5008563088274017  1.0000
  C   C38       1.0  0.3449346436290527  0.11093938861541372  0.5005585129663146  1.0000
  C   C39       1.0  0.40477850444202085  0.1572205257494659  0.5020927204123851  1.0000
  C   C40       1.0  0.42630272181180806  0.5778088073195564  0.2925430320675631  1.0000
  C   C41       1.0  0.5017097733261834  0.8719995847717997  0.49291269877981153  1.0000
  C   C42       1.0  0.3410127374622576  0.8806443937794697  0.49032548871306864  1.0000
  C   C43       1.0  0.5724041917202098  0.14468468025747677  0.5266249126170308  1.0000
  C   C44       1.0  0.5721172473072397  0.44531842609746525  0.710648107488723  1.0000
  C   C45       1.0  0.6561067309607083  0.4156107254529859  0.9527379653626726  1.0000
  C   C46       1.0  0.6032018365923475  0.43486949771467226  0.794133722160943  1.0000
  C   C47       1.0  0.4057655579281132  0.6004108378400447  0.20367609098506284  1.0000
  C   C48       1.0  0.716761373936272  0.3574623358654634  0.9125071328394088  1.0000
  C   C49       1.0  0.15793038901760773  0.6405650547186641  0.703608841162101  1.0000
  C   C50       1.0  0.1775500507637632  0.7223794735392345  0.6403152306586437  1.0000
  C   C51       1.0  0.1340010299198865  0.8179763238290649  0.6561900458639798  1.0000
  C   C52       1.0  0.2952005742575992  0.3153088722462698  0.4287725182919503  1.0000
  C   C53       1.0  0.3263434524455562  0.31412170174646536  0.3465669232381147  1.0000
  C   C54       1.0  0.2535479636179545  0.39218802656694157  0.27707299940765046  1.0000
  C   C55       1.0  0.4087650482587291  0.681844232220641  0.8202815292321405  1.0000
  C   C56       1.0  0.506751320885968  0.5483764292763311  0.951120287950694  1.0000
  C   C57       1.0  0.5277125383006263  0.5254637827591467  0.0353647734066058  1.0000
  C   C58       1.0  0.6153114393931958  0.4516788173742087  0.07541904208258644  1.0000
  C   C59       1.0  0.6782226264987301  0.40097798586275957  0.035351287204093834  1.0000
  O   O1        1.0  0.5081835287197832  0.4894211432071175  0.5050106712663195  1.0000
  O   O2        1.0  0.4840515017143403  0.6095496665843215  0.31268474045260325  1.0000
  O   O3        1.0  0.6224722025597058  0.3826022483163314  0.68125721143025  1.0000
  O   O4        1.0  0.3843386540565844  0.5284265530853034  0.3392968763774676  1.0000
  O   O5        1.0  0.49679889625335955  0.5178834468026352  0.675716503292634  1.0000
  O   O6        1.0  0.19397492445980188  0.5499153933302949  0.6877091947072884  1.0000
  O   O7        1.0  0.3696703211038185  0.2526525223368808  0.49442893893831313  1.0000
  O   O8        1.0  0.3321864992318029  0.7318581809716275  0.7804067050410171  1.0000
  O   O9        1.0  0.40420865147842006  0.6941861746989063  0.4963784960351634  1.0000
  O   O10       1.0  0.5985075683903389  0.2592982342112791  0.5731907152415517  1.0000
  O   O11       1.0  0.6712459648247344  0.4995120971811958  0.40958375259712915  1.0000
  O   O12       1.0  0.30990099962026807  0.46282730927799076  0.5068687958043158  1.0000
  O   O13       1.0  0.735652556219243  0.39474842288223755  0.5363494374923478  1.0000
  O   O14       1.0  0.3009586012991363  0.5712007382496154  0.5682396515206848  1.0000
  O   O15       1.0  0.5379621867276964  0.7001323060961371  0.4459395055830201  1.0000
  O   O16       1.0  0.505166186864116  0.31695092222328475  0.45492069681787944  1.0000
