data_image0
_chemical_formula_structural       Cu2H28C34S2N10
_chemical_formula_sum              "Cu2 H28 C34 S2 N10"
_cell_length_a       7.453183057392522
_cell_length_b       9.706547791556538
_cell_length_c       12.341724703778858
_cell_angle_alpha    86.19966110841378
_cell_angle_beta     73.66427548761551
_cell_angle_gamma    69.09877275723001

_space_group_name_H-M_alt    "P 1"
_space_group_IT_number       1

loop_
  _space_group_symop_operation_xyz
  'x, y, z'

loop_
  _atom_site_type_symbol
  _atom_site_label
  _atom_site_symmetry_multiplicity
  _atom_site_fract_x
  _atom_site_fract_y
  _atom_site_fract_z
  _atom_site_occupancy
  Cu  Cu1       1.0  0.6598108335412716  0.586704212323248  0.6498025984786011  1.0000
  Cu  Cu2       1.0  0.3401995284011575  0.41330380023570956  0.350205211519338  1.0000
  H   H1        1.0  0.884556190307265  0.28890289536474256  0.7499951695851692  1.0000
  H   H2        1.0  0.11544021006388056  0.7111050766601679  0.2500028599124064  1.0000
  H   H3        1.0  0.9428395262980799  0.075806848880994  0.8776839773590126  1.0000
  H   H4        1.0  0.05716039422267029  0.9241967044496916  0.12231044800925157  1.0000
  H   H5        1.0  0.6704101902318911  0.06223675992098521  0.04433502027921322  1.0000
  H   H6        1.0  0.3295899190076099  0.9377634884631478  0.9556635999399745  1.0000
  H   H7        1.0  0.33329994728329393  0.25847301448080623  0.08838766810843168  1.0000
  H   H8        1.0  0.6666996327728112  0.7415283359763053  0.9116101731711908  1.0000
  H   H9        1.0  0.21261080958363016  0.6832947886827155  0.8226522401453096  1.0000
  H   H10       1.0  0.7873929623822704  0.3167065670871736  0.17734488889293226  1.0000
  H   H11       1.0  0.97761006074375  0.6632498102622222  0.011952409310978903  1.0000
  H   H12       1.0  0.022384799747335628  0.33675263391178584  0.9880437446520247  1.0000
  H   H13       1.0  0.06779199118670222  0.5226409094209358  0.10272287468747977  1.0000
  H   H14       1.0  0.9322006038812419  0.4773604291382512  0.897274533042669  1.0000
  H   H15       1.0  0.5873772026490018  0.9009263248504238  0.7758514418955258  1.0000
  H   H16       1.0  0.41262203847063006  0.099072819689809  0.22414819467701358  1.0000
  H   H17       1.0  0.47059025409485855  0.17256371543693658  0.8116978487832612  1.0000
  H   H18       1.0  0.5294070590099196  0.8274365324486509  0.18830286688195488  1.0000
  H   H19       1.0  0.24618237971404267  0.3468168370152256  0.7086109930440827  1.0000
  H   H20       1.0  0.75381878789225  0.6531812072229498  0.2913891850542285  1.0000
  H   H21       1.0  0.12575152267048412  0.2557870649178254  0.5697171363952549  1.0000
  H   H22       1.0  0.8742442482619524  0.7442076596818268  0.4302841346630543  1.0000
  H   H23       1.0  0.35399348097565314  0.7027262500334289  0.49935360859843303  1.0000
  H   H24       1.0  0.6460103325476397  0.2972662838398533  0.5006504641976904  1.0000
  H   H25       1.0  0.15024431142597183  0.9021302090308441  0.3963294607333765  1.0000
  H   H26       1.0  0.8497553124798001  0.0978623149647007  0.6036728933764622  1.0000
  H   H27       1.0  0.11663467597229978  0.08878739457959742  0.42096229787080125  1.0000
  H   H28       1.0  0.883363886510303  0.91120733964852  0.5790417395967963  1.0000
  C   C1        1.0  0.5773192681204263  0.39134534396226434  0.8474575073790263  1.0000
  C   C2        1.0  0.4226827676057425  0.608653804119818  0.15254165436592612  1.0000
  C   C3        1.0  0.7664040718350904  0.28137718897143327  0.823047216383678  1.0000
  C   C4        1.0  0.23359131478302697  0.7186241592162119  0.1769529577557662  1.0000
  C   C5        1.0  0.7966042018295028  0.16368713501663024  0.8951192247838975  1.0000
  C   C6        1.0  0.20339677629395692  0.836314215689754  0.10487756877271438  1.0000
  C   C7        1.0  0.6418671811938876  0.15579787315807184  0.9895423061068201  1.0000
  C   C8        1.0  0.35812541158178846  0.8442034699660752  0.010457532550994075  1.0000
  C   C9        1.0  0.45212803103630245  0.26535680477373097  0.015207116096910113  1.0000
  C   C10       1.0  0.5478724186678505  0.7346456464839831  0.9847880882109123  1.0000
  C   C11       1.0  0.4223847251713693  0.3829589435491059  0.9425450047681779  1.0000
  C   C12       1.0  0.5776120572218275  0.6170424094527719  0.05745655257591409  1.0000
  C   C13       1.0  0.3149442026013388  0.5823966485058207  0.8460938721048166  1.0000
  C   C14       1.0  0.6850537868481866  0.41760801425684946  0.15390487359300659  1.0000
  C   C15       1.0  0.057004786025089495  0.544361168927516  0.01571698625615879  1.0000
  C   C16       1.0  0.9430012513639455  0.45564129245720136  0.9842788890149309  1.0000
  C   C17       1.0  0.41356966714783294  0.9250212891206643  0.6573989347673149  1.0000
  C   C18       1.0  0.586431838630844  0.0749789625560453  0.34260025834729657  1.0000
  C   C19       1.0  0.48223245719804453  0.9773156110899635  0.7345220738071774  1.0000
  C   C20       1.0  0.5177699128800343  0.0226857520389245  0.2654801545001817  1.0000
  C   C21       1.0  0.41756678010496984  0.12946038408757232  0.7527116510644163  1.0000
  C   C22       1.0  0.5824327999511356  0.870540966369539  0.2472861902152061  1.0000
  C   C23       1.0  0.2900036780355392  0.22824521522703378  0.6944069978571434  1.0000
  C   C24       1.0  0.7099983569265335  0.7717539343767043  0.3055929741970261  1.0000
  C   C25       1.0  0.22008674688809285  0.17828022602331828  0.6166876190732752  1.0000
  C   C26       1.0  0.7799102295724936  0.8217178113804308  0.3833124609571996  1.0000
  C   C27       1.0  0.2822760615112828  0.025569169118000404  0.600575073801096  1.0000
  C   C28       1.0  0.7177242372110585  0.9744277727979238  0.39942693095979126  1.0000
  C   C29       1.0  0.35472733075559393  0.7943066334671584  0.5451347522116379  1.0000
  C   C30       1.0  0.6452755662136125  0.2056936321537108  0.45487068596294483  1.0000
  C   C31       1.0  0.10680267637022231  0.9869912288589474  0.46277417586252056  1.0000
  C   C32       1.0  0.8931967542322424  0.0130046092130769  0.5372288452517182  1.0000
  C   C33       1.0  0.08987761656242557  0.5733217613386756  0.5776392470057701  1.0000
  C   C34       1.0  0.9101224827438728  0.4266785068269527  0.42236990723327483  1.0000
  S   S1        1.0  0.920418897829187  0.6353039389213038  0.6980205256645746  1.0000
  S   S2        1.0  0.0795800035898822  0.3646930012236993  0.301981716510106  1.0000
  N   N1        1.0  0.5049593864556104  0.5175159117898787  0.7892410534458422  1.0000
  N   N2        1.0  0.49503792664916796  0.48248433609570907  0.2107596622193739  1.0000
  N   N3        1.0  0.256894195445767  0.5069911908797026  0.939319807691966  1.0000
  N   N4        1.0  0.7431048561910244  0.49301126012873897  0.06067644433887407  1.0000
  N   N5        1.0  0.45618432839741263  0.7816013334014612  0.6201943734780998  1.0000
  N   N6        1.0  0.5438157785498063  0.21839891954763152  0.3798066776687464  1.0000
  N   N7        1.0  0.2478096019834698  0.9378264095580346  0.5299067408573279  1.0000
  N   N8        1.0  0.7521894904466251  0.06216722107544829  0.4700972652406108  1.0000
  N   N9        1.0  0.20844437342218214  0.5286627881003697  0.4891850490928178  1.0000
  N   N10       1.0  0.7915761608342748  0.4713385995721992  0.5108149031444356  1.0000
