data_image0
_chemical_formula_structural       Hf6H76C126N6O32
_chemical_formula_sum              "Hf6 H76 C126 N6 O32"
_cell_length_a       17.175787148487526
_cell_length_b       17.194931414687662
_cell_length_c       17.20438708281487
_cell_angle_alpha    91.88795049628261
_cell_angle_beta     91.89601761366342
_cell_angle_gamma    92.06316577678929

_space_group_name_H-M_alt    "P 1"
_space_group_IT_number       1

loop_
  _space_group_symop_operation_xyz
  'x, y, z'

loop_
  _atom_site_type_symbol
  _atom_site_label
  _atom_site_symmetry_multiplicity
  _atom_site_fract_x
  _atom_site_fract_y
  _atom_site_fract_z
  _atom_site_occupancy
  Hf  Hf1       1.0  0.8452793943131172  0.808478529288223  0.952798858474601  1.0000
  Hf  Hf2       1.0  0.0062869100441745  0.755651989825374  0.8452854606896238  1.0000
  Hf  Hf3       1.0  0.9263348980982614  0.9972716369956632  0.9800406183528735  1.0000
  Hf  Hf4       1.0  0.8981328181770465  0.9157810024049341  0.791505466240679  1.0000
  Hf  Hf5       1.0  0.03463052325881219  0.8378119037815849  0.0332155562172716  1.0000
  Hf  Hf6       1.0  0.08685584448652858  0.9450415463627589  0.8725871114715955  1.0000
  H   H1        1.0  0.5907108254604057  0.1478512045626772  0.25665376534153234  1.0000
  H   H2        1.0  0.43814590085660404  0.16121155577305762  0.23455331848954586  1.0000
  H   H3        1.0  0.3413759838251949  0.6112926192083633  0.5670047248924915  1.0000
  H   H4        1.0  0.49358840142360794  0.5988190053489717  0.5923080320647569  1.0000
  H   H5        1.0  0.24010793678215234  0.21955614109680968  0.5336423428831765  1.0000
  H   H6        1.0  0.2542719455638789  0.20105195970444356  0.38087389977322056  1.0000
  H   H7        1.0  0.7027662311936851  0.5264645417079306  0.2902141357572745  1.0000
  H   H8        1.0  0.6891997399934339  0.5491704653623087  0.44258750557708026  1.0000
  H   H9        1.0  0.3104687541734704  0.49856803522089155  0.1859184273409298  1.0000
  H   H10       1.0  0.2910591835196072  0.3456699326955074  0.19996756739286067  1.0000
  H   H11       1.0  0.6152145867080064  0.2536662637555764  0.6481006348991087  1.0000
  H   H12       1.0  0.6383551622221333  0.4061738697328892  0.6343526989560928  1.0000
  H   H13       1.0  0.8487335051788136  0.7583870923246037  0.7954627171403459  1.0000
  H   H14       1.0  0.8988615937012484  0.8861312463002519  0.0952201112507396  1.0000
  H   H15       1.0  0.9750819107602309  0.05912464050845049  0.8443411420203616  1.0000
  H   H16       1.0  0.1493643302210472  0.8097681290612896  0.9216324799098601  1.0000
  H   H17       1.0  0.5910145129911228  0.13130894459911957  0.7162255259302199  1.0000
  H   H18       1.0  0.6691210941956173  0.2847186229800513  0.9093571215341854  1.0000
  H   H19       1.0  0.7695311121870175  0.191060408594879  0.9458602959668808  1.0000
  H   H20       1.0  0.6983914898534564  0.0427262985642827  0.7492735174406134  1.0000
  H   H21       1.0  0.7132934730746641  0.49733261201507156  0.6748147933259858  1.0000
  H   H22       1.0  0.6303606428705351  0.48231831603320785  0.9088703723408142  1.0000
  H   H23       1.0  0.7357450270100613  0.5755953136450171  0.954235894846903  1.0000
  H   H24       1.0  0.8232514821301748  0.5819725648586809  0.7234596959350837  1.0000
  H   H25       1.0  0.20651767455372289  0.17100305055228657  0.8792109421057575  1.0000
  H   H26       1.0  0.1081630604052606  0.16936818555869584  0.1052417063192195  1.0000
  H   H27       1.0  0.2149991599740346  0.256632692484466  0.15687699874132477  1.0000
  H   H28       1.0  0.3089997263702031  0.2663991875191342  0.9269119700116875  1.0000
  H   H29       1.0  0.33222625055274346  0.6207229376837019  0.1177516463107082  1.0000
  H   H30       1.0  0.26168184246724724  0.46500919802299717  0.9240049620219466  1.0000
  H   H31       1.0  0.15923712461619738  0.555652771671916  0.8850448571200714  1.0000
  H   H32       1.0  0.2232879569900064  0.7063504350240136  0.08225673737435102  1.0000
  H   H33       1.0  0.4307161668588932  0.27161055194486733  0.006429595742382299  1.0000
  H   H34       1.0  0.396538428601886  0.5005553458593042  0.9191454274318787  1.0000
  H   H35       1.0  0.5025041230113487  0.4824900102842164  0.8304252340326457  1.0000
  H   H36       1.0  0.5362169163293301  0.253330694478471  0.9174868857995406  1.0000
  H   H37       1.0  0.9645927368756092  0.5799520363685032  0.3213420010878636  1.0000
  H   H38       1.0  0.7714514157506828  0.5015070851959108  0.16778110793195822  1.0000
  H   H39       1.0  0.8048175198659705  0.6087940919641992  0.0789625576240596  1.0000
  H   H40       1.0  0.0012458177752420999  0.6806474611910925  0.22775112951504178  1.0000
  H   H41       1.0  0.964911780580195  0.5446831066637259  0.5146571515425578  1.0000
  H   H42       1.0  0.7281727132130129  0.6178292836791712  0.5388366083414766  1.0000
  H   H43       1.0  0.7758299215260038  0.7283021449847452  0.6228629033970349  1.0000
  H   H44       1.0  0.009713824893978498  0.6498754156476352  0.6081023280514231  1.0000
  H   H45       1.0  0.9330104606731382  0.11718112078084887  0.2061425910719805  1.0000
  H   H46       1.0  0.15971622652644163  0.020406730284023  0.2034525923672916  1.0000
  H   H47       1.0  0.2115189924797036  0.1270267610550205  0.2905670432483731  1.0000
  H   H48       1.0  0.9807818664970751  0.21924706047216344  0.3017357256101292  1.0000
  H   H49       1.0  0.9778598781289675  0.1714854857661905  0.4995438231741147  1.0000
  H   H50       1.0  0.17140735355132364  0.24162294037201082  0.6560861576186809  1.0000
  H   H51       1.0  0.1348549772619165  0.13285193612635027  0.7417123951293974  1.0000
  H   H52       1.0  0.9381699156530844  0.06878726344432098  0.5899224037855931  1.0000
  H   H53       1.0  0.9748160479670744  0.3072341416572116  0.5363629515631487  1.0000
  H   H54       1.0  0.06017771190575162  0.34124211060913007  0.3066116324588961  1.0000
  H   H55       1.0  0.9716009480359206  0.4468670412929824  0.289029618295416  1.0000
  H   H56       1.0  0.8865541374843744  0.4135207435274353  0.5190753224285842  1.0000
  H   H57       1.0  0.2784300440941934  0.9128593152830361  0.7111938964430564  1.0000
  H   H58       1.0  0.1314548221496992  0.7125541203471499  0.6475538227750164  1.0000
  H   H59       1.0  0.21953220502425097  0.6773492309806243  0.5404171084165128  1.0000
  H   H60       1.0  0.37125559429809124  0.8749565965692625  0.6103901072979951  1.0000
  H   H61       1.0  0.5967985750707142  0.6367783661490873  0.6513391135059975  1.0000
  H   H62       1.0  0.5594999345493576  0.8744965007270052  0.588174255441615  1.0000
  H   H63       1.0  0.6533829002539592  0.9196737520378518  0.6928783150722708  1.0000
  H   H64       1.0  0.6803275193103387  0.6840665351582159  0.7622549390437996  1.0000
  H   H65       1.0  0.2529536869867925  0.07265219174752961  0.062213492564424704  1.0000
  H   H66       1.0  0.270496481242148  0.8400490031092571  0.1426655856245347  1.0000
  H   H67       1.0  0.3668928060441914  0.8859788171963954  0.24468145263145397  1.0000
  H   H68       1.0  0.339527399061204  0.12176908474386747  0.1702732548618613  1.0000
  H   H69       1.0  0.7124931978835533  0.0810495435004484  0.2783947948921223  1.0000
  H   H70       1.0  0.5580332255775531  0.8841776805475872  0.21321461094940017  1.0000
  H   H71       1.0  0.6472311313147614  0.8457212359413261  0.10923526793882131  1.0000
  H   H72       1.0  0.7969174522214219  0.04545400938054912  0.1685565632398038  1.0000
  H   H73       1.0  0.5951309808434857  0.8906781476070618  0.3527671451418115  1.0000
  H   H74       1.0  0.35687930023293996  0.9590802295835203  0.36861427118802936  1.0000
  H   H75       1.0  0.3376749868996712  0.8696717826637151  0.47312977951917645  1.0000
  H   H76       1.0  0.5761984806151405  0.8016730142786344  0.4580435275672343  1.0000
  C   C1        1.0  0.5609615434149334  0.026699341900844307  0.2841161810746158  1.0000
  C   C2        1.0  0.5465151912304193  0.10419818846318657  0.2705223632550471  1.0000
  C   C3        1.0  0.4653371458955178  0.1106445946863985  0.2580664939184345  1.0000
  C   C4        1.0  0.4294058079575579  0.037306258442612296  0.26415250735180246  1.0000
  C   C5        1.0  0.3712258882488015  0.7324861956630355  0.5398095711457102  1.0000
  C   C6        1.0  0.3856746869258814  0.6551205814835868  0.5538645765821997  1.0000
  C   C7        1.0  0.466676576235855  0.6490627359114995  0.5678099848725606  1.0000
  C   C8        1.0  0.5025803841583141  0.7224487224764147  0.562055343420802  1.0000
  C   C9        1.0  0.11861457896901581  0.24611520131531955  0.5043799211196288  1.0000
  C   C10       1.0  0.1963617998799592  0.23361557869431948  0.4897895873827451  1.0000
  C   C11       1.0  0.20319512825959407  0.22293704278067847  0.4085607226365795  1.0000
  C   C12       1.0  0.12986820401742696  0.22896858177339394  0.3727659128282568  1.0000
  C   C13       1.0  0.8250247911173432  0.5032632052822875  0.3196987050183253  1.0000
  C   C14       1.0  0.7470744900392676  0.5144923012488576  0.3342833157936553  1.0000
  C   C15       1.0  0.7404769249241951  0.527205174998343  0.4153392856773763  1.0000
  C   C16       1.0  0.814139676991985  0.5235223232847588  0.4509994089373777  1.0000
  C   C17       1.0  0.33647593565495276  0.46938495000158986  0.0644104435322745  1.0000
  C   C18       1.0  0.3241360515366196  0.45470163033322547  0.14209398853400046  1.0000
  C   C19       1.0  0.31294689324293756  0.3734172592442134  0.1488850697570712  1.0000
  C   C20       1.0  0.31845951259676747  0.3377526911944031  0.0755615794788369  1.0000
  C   C21       1.0  0.592337423145743  0.28313933001351177  0.7702367012072953  1.0000
  C   C22       1.0  0.6035521054464041  0.2977931155864794  0.6923913762157312  1.0000
  C   C23       1.0  0.6166052915312364  0.3788862395121554  0.6857326683284696  1.0000
  C   C24       1.0  0.6132910256206827  0.4145253115103954  0.7593125877442973  1.0000
  C   C25       1.0  0.768276559903633  0.9340249627523248  0.057791100649986014  1.0000
  C   C26       1.0  0.8494320013726621  0.6413582932135569  0.8722452458289212  1.0000
  C   C27       1.0  0.730583785453824  0.8347065366529945  0.7967405142393387  1.0000
  C   C28       1.0  0.9122602059647065  0.7250476813062291  0.10579528934206908  1.0000
  C   C29       1.0  0.1588756099591393  0.8224913784189806  0.7606028360453649  1.0000
  C   C30       1.0  0.08832353461637871  0.10804472420508657  0.9569443476291397  1.0000
  C   C31       1.0  0.9255650256489005  0.759129391683153  0.6781102694311301  1.0000
  C   C32       1.0  0.1115903250745021  0.6791164093730585  0.9713756760768248  1.0000
  C   C33       1.0  0.0112926996851286  0.9997945708832103  0.1428396449457452  1.0000
  C   C34       1.0  0.813936471093392  0.0689669994998852  0.8573029497432998  1.0000
  C   C35       1.0  0.023994391647533996  0.0210223698876604  0.713881818454098  1.0000
  C   C36       1.0  0.19818702865384807  0.9226506049513432  0.0340066275445636  1.0000
  C   C37       1.0  0.6299872496111404  0.14454587246556366  0.7666183832579135  1.0000
  C   C38       1.0  0.6247745616768583  0.21629562719962075  0.8080983746444445  1.0000
  C   C39       1.0  0.672273290386194  0.22979340051052333  0.8763430499861613  1.0000
  C   C40       1.0  0.7297968146384052  0.17862227776127773  0.8959394458661832  1.0000
  C   C41       1.0  0.7423580125845249  0.11371394063139212  0.847234187957973  1.0000
  C   C42       1.0  0.689467706361292  0.09507686793755002  0.7847992754281279  1.0000
  C   C43       1.0  0.7172031690104035  0.5136676898003146  0.7365547389248661  1.0000
  C   C44       1.0  0.6624854138199369  0.481657722122442  0.787660812588932  1.0000
  C   C45       1.0  0.6707200201271135  0.5052407775185371  0.867012488029431  1.0000
  C   C46       1.0  0.7312855561902367  0.5561650032514364  0.8932928552132823  1.0000
  C   C47       1.0  0.7883914418062403  0.5826552403881208  0.8428913321741689  1.0000
  C   C48       1.0  0.7802849875286667  0.5608866077203915  0.763755054193524  1.0000
  C   C49       1.0  0.2081779282264264  0.19175447090986344  0.9397633599371248  1.0000
  C   C50       1.0  0.1490704477079348  0.16587686360941223  0.9881798254984204  1.0000
  C   C51       1.0  0.1530657692261457  0.18987454188852837  0.0668199375182326  1.0000
  C   C52       1.0  0.2143382355458243  0.23846152515917393  0.0956354390221676  1.0000
  C   C53       1.0  0.2712908048746385  0.2695540378171514  0.0463598496008686  1.0000
  C   C54       1.0  0.267044542775082  0.24397952915807505  0.967454527918221  1.0000
  C   C55       1.0  0.2944062326140298  0.6063310664190238  0.0667588566370796  1.0000
  C   C56       1.0  0.3023854314985712  0.534825955862182  0.0256416522919238  1.0000
  C   C57       1.0  0.2563077292203034  0.5198303861261664  0.9566740227899685  1.0000
  C   C58       1.0  0.1976650786917418  0.5693201957738975  0.9357130752117372  1.0000
  C   C59       1.0  0.18263205970524868  0.6340221489216944  0.983809830223848  1.0000
  C   C60       1.0  0.23394597737114967  0.6540662236642305  0.047276047530417004  1.0000
  C   C61       1.0  0.44533967315359757  0.3179979337841274  0.9671904488724508  1.0000
  C   C62       1.0  0.4031758224940489  0.3865090946890816  0.9691832083906747  1.0000
  C   C63       1.0  0.4262545243936983  0.4457783372309265  0.9195310365440362  1.0000
  C   C64       1.0  0.4876337185727381  0.43594422094999163  0.8694290987275224  1.0000
  C   C65       1.0  0.5292778676377807  0.3671258522885524  0.8669403266241815  1.0000
  C   C66       1.0  0.5065268950426045  0.3081015281236076  0.9169769427014671  1.0000
  C   C67       1.0  0.9316136244482182  0.5831724678881967  0.266390220433081  1.0000
  C   C68       1.0  0.863178919783742  0.535669048080109  0.2529142189227187  1.0000
  C   C69       1.0  0.8218380746441556  0.5406703043241663  0.1810656255441785  1.0000
  C   C70       1.0  0.840146147863763  0.6001272763671536  0.131507414883167  1.0000
  C   C71       1.0  0.9025482200149213  0.6532398887849665  0.1502977016627867  1.0000
  C   C72       1.0  0.951312041502355  0.6407930678836491  0.215233287717254  1.0000
  C   C73       1.0  0.9223604025134123  0.5828746494782139  0.5396593302897301  1.0000
  C   C74       1.0  0.8424702703105565  0.57213672604054  0.5183707082883515  1.0000
  C   C75       1.0  0.790433782651064  0.6240831774027169  0.552891086157409  1.0000
  C   C76       1.0  0.817024996075787  0.6873554948600357  0.5999662676482487  1.0000
  C   C77       1.0  0.8966383324420519  0.6980902451145068  0.6193726028645087  1.0000
  C   C78       1.0  0.9482130424346523  0.6433961752554254  0.5906745404697915  1.0000
  C   C79       1.0  0.9937701138965948  0.11917449529633468  0.2266290987453345  1.0000
  C   C80       1.0  0.042361159192658704  0.06053402924438697  0.2005447563505172  1.0000
  C   C81       1.0  0.12120205137144781  0.06492119031798181  0.2242130166822918  1.0000
  C   C82       1.0  0.1500734945658948  0.12604607087404668  0.27274320056209683  1.0000
  C   C83       1.0  0.1006199109722701  0.18235954203063898  0.3043359832440514  1.0000
  C   C84       1.0  0.021488857794537398  0.17779960306793188  0.2789754818127149  1.0000
  C   C85       1.0  0.010325406779450902  0.16594309951867095  0.5544754560427876  1.0000
  C   C86       1.0  0.07949440836848251  0.21193046065556584  0.5697092052068058  1.0000
  C   C87       1.0  0.12027683310861902  0.20388388906366114  0.6414161430995406  1.0000
  C   C88       1.0  0.10020584125021509  0.1434848553008408  0.6891827305258573  1.0000
  C   C89       1.0  0.0366631222739855  0.0921467919243923  0.6688212161320166  1.0000
  C   C90       1.0  0.9889138441932772  0.10722151861344288  0.6038408300047847  1.0000
  C   C91       1.0  0.9748589044784738  0.3369846361170871  0.4815615266597746  1.0000
  C   C92       1.0  0.023784231503270796  0.3136769720063128  0.42185367437258486  1.0000
  C   C93       1.0  0.021397775978982698  0.3558598717349639  0.3533568149917414  1.0000
  C   C94       1.0  0.9714089953683072  0.41721070692801726  0.3438478929593741  1.0000
  C   C95       1.0  0.921917592680238  0.4400579561796079  0.40326372189250753  1.0000
  C   C96       1.0  0.9249936084999675  0.3985001486271997  0.47216403409253616  1.0000
  C   C97       1.0  0.2661168376669494  0.8616877719343135  0.6731170086203875  1.0000
  C   C98       1.0  0.20211781690019853  0.8122570835415743  0.6881236238442767  1.0000
  C   C99       1.0  0.18338896062358154  0.748383242067483  0.6370193538600333  1.0000
  C   C100      1.0  0.2325520278706392  0.7290718471181277  0.5776308370137642  1.0000
  C   C101      1.0  0.3040479366071622  0.7710438281673786  0.570732595244742  1.0000
  C   C102      1.0  0.31688826846008317  0.841122742024197  0.6155096847976154  1.0000
  C   C103      1.0  0.6076207991410953  0.699334293967496  0.6600123227571686  1.0000
  C   C104      1.0  0.569698098380961  0.7515667490889796  0.610703840023703  1.0000
  C   C105      1.0  0.5874631469862591  0.8318311741159831  0.6241184998539495  1.0000
  C   C106      1.0  0.6386085720938439  0.8577482945157726  0.6845043539981077  1.0000
  C   C107      1.0  0.6708154398305837  0.8056258829354235  0.7366165159132976  1.0000
  C   C108      1.0  0.654678457397722  0.7257198180257944  0.7234081717690657  1.0000
  C   C109      1.0  0.2771556971582072  0.032200054646772  0.1031013334931146  1.0000
  C   C110      1.0  0.25732733607799924  0.9526547081145366  0.0940354294909369  1.0000
  C   C111      1.0  0.2877811021917651  0.9016183753086718  0.1482664949914749  1.0000
  C   C112      1.0  0.3404402273911345  0.928135765912714  0.2070748153105626  1.0000
  C   C113      1.0  0.3614187189427369  0.008129815880124605  0.21677933475109507  1.0000
  C   C114      1.0  0.32568718980044753  0.05948526205418858  0.16494071368445867  1.0000
  C   C115      1.0  0.6980066959879493  0.029470002301778205  0.24142833476435044  1.0000
  C   C116      1.0  0.6267721587693842  0.9877894605362841  0.2507334036761719  1.0000
  C   C117      1.0  0.6122045253755815  0.9177936324363359  0.2061991737110702  1.0000
  C   C118      1.0  0.6609002333391985  0.8970084500559493  0.1467987456992432  1.0000
  C   C119      1.0  0.7246399897216946  0.946027466863967  0.1298346006122699  1.0000
  C   C120      1.0  0.745075010356743  0.009982129704440007  0.1803782806466785  1.0000
  C   C121      1.0  0.5380771204728915  0.8867331606320831  0.378232444399238  1.0000
  C   C122      1.0  0.47687348921746775  0.9314302722778433  0.3501672471322337  1.0000
  C   C123      1.0  0.40533767758545036  0.9240623057637263  0.386994739600766  1.0000
  C   C124      1.0  0.3947643727109309  0.8734843168199758  0.44776020091465796  1.0000
  C   C125      1.0  0.4558825826905064  0.8286280711686942  0.4757042568937067  1.0000
  C   C126      1.0  0.5276098891042622  0.8363670015042785  0.4392806477604978  1.0000
  N   N1        1.0  0.4878729439779477  0.9871654709601856  0.2910556247536462  1.0000
  N   N2        1.0  0.44433527669841055  0.7724072067320761  0.5343405968609005  1.0000
  N   N3        1.0  0.0791912966852308  0.25408035390628925  0.431643637052332  1.0000
  N   N4        1.0  0.8651427621336438  0.49829059810249265  0.39251827473700013  1.0000
  N   N5        1.0  0.3438278928399541  0.39661029939861686  0.0249003574196038  1.0000
  N   N6        1.0  0.5876652364982035  0.356053296964248  0.8102981682688367  1.0000
  O   O1        1.0  0.8118778197753684  0.9907069389413293  0.0374789297465057  1.0000
  O   O2        1.0  0.91655069415917  0.6463619400971651  0.8434453804897402  1.0000
  O   O3        1.0  0.7361081129479742  0.8060432313993285  0.863710351770159  1.0000
  O   O4        1.0  0.8548937847343866  0.7428747698884025  0.06196910156142371  1.0000
  O   O5        1.0  0.976539122350424  0.765550584744389  0.11612150237748152  1.0000
  O   O6        1.0  0.7773216925638166  0.8870661404597155  0.7707477390610578  1.0000
  O   O7        1.0  0.8244814816640371  0.6879306529044629  0.9250834631239329  1.0000
  O   O8        1.0  0.7604656374880817  0.8674477985187393  0.021213071708295696  1.0000
  O   O9        1.0  0.9614545376987068  0.782298997542675  0.9510692306816181  1.0000
  O   O10       1.0  0.8714290061133099  0.9143533917294349  0.9073964588775496  1.0000
  O   O11       1.0  0.882352630232248  0.792231011538206  0.8290952893930168  1.0000
  O   O12       1.0  0.9155264638052713  0.8837465339132392  0.0419168658733682  1.0000
  O   O13       1.0  0.11551061132581711  0.7650882235182831  0.7797870315928108  1.0000
  O   O14       1.0  0.021446373569489197  0.1024797439959642  0.9859519794304958  1.0000
  O   O15       1.0  0.8963796126825018  0.8259109444412756  0.6830086333082406  1.0000
  O   O16       1.0  0.0924942731685974  0.7237464486246238  0.027497989105512502  1.0000
  O   O17       1.0  0.0406578265411568  0.9332179291598165  0.1374199592966932  1.0000
  O   O18       1.0  0.831854387768324  0.02466015314663391  0.800399249565757  1.0000
  O   O19       1.0  0.0803889007052874  0.0018883660041809005  0.7582218239957895  1.0000
  O   O20       1.0  0.1920789831734524  0.9520559227096542  0.9675129139309178  1.0000
  O   O21       1.0  0.9573696187673448  0.9842029934117276  0.7064432495349706  1.0000
  O   O22       1.0  0.1544803452168821  0.8665217143619512  0.05826347360137161  1.0000
  O   O23       1.0  0.9784180587591109  0.734373179203878  0.7248143855667948  1.0000
  O   O24       1.0  0.8541598188149067  0.0796146105009257  0.9215402733072507  1.0000
  O   O25       1.0  0.9545435917706869  0.02304603678652481  0.09953954422754661  1.0000
  O   O26       1.0  0.0746835470239873  0.671279153149463  0.9049906935598242  1.0000
  O   O27       1.0  0.16966311093818828  0.8869770110234609  0.8003634862053133  1.0000
  O   O28       1.0  0.11187486218695142  0.06483079464668859  0.9003230922624468  1.0000
  O   O29       1.0  0.029812299220580495  0.9407139754392585  0.9757330288458732  1.0000
  O   O30       1.0  0.004320294552712801  0.8714700991661245  0.8180607169254869  1.0000
  O   O31       1.0  0.9727809334967289  0.0058725897682663135  0.8612386578635024  1.0000
  O   O32       1.0  0.09603771880663459  0.8264903148693179  0.9195886772592344  1.0000
