data_image0
_chemical_formula_structural       Cd4H36C40S16N20
_chemical_formula_sum              "Cd4 H36 C40 S16 N20"
_cell_length_a       7.912805452
_cell_length_b       8.044823223761721
_cell_length_c       25.5551
_cell_angle_alpha    90.0
_cell_angle_beta     90.0
_cell_angle_gamma    109.21247671063163

_space_group_name_H-M_alt    "P 1"
_space_group_IT_number       1

loop_
  _space_group_symop_operation_xyz
  'x, y, z'

loop_
  _atom_site_type_symbol
  _atom_site_label
  _atom_site_symmetry_multiplicity
  _atom_site_fract_x
  _atom_site_fract_y
  _atom_site_fract_z
  _atom_site_occupancy
  Cd  Cd1       1.0  0.1192378403827448  0.2585232121105534  0.34301528853340096  1.0000
  Cd  Cd2       1.0  0.3807634911752018  0.7414748589103795  0.8430160711560504  1.0000
  Cd  Cd3       1.0  0.8807635296418894  0.7414722262106821  0.6569851027779166  1.0000
  Cd  Cd4       1.0  0.6192392574833223  0.2585284775099481  0.15698510277791658  1.0000
  H   H1        1.0  0.9083860344439855  0.1568154410802691  0.500873798185097  1.0000
  H   H2        1.0  0.5916176334839492  0.8431878953400583  0.0008734068737723999  1.0000
  H   H3        1.0  0.09161583341181506  0.843185262640361  0.49912659312622754  1.0000
  H   H4        1.0  0.40838126642193373  0.15681149203072656  0.9991265931262276  1.0000
  H   H5        1.0  0.935096900675937  0.0050389872193576995  0.24479458112079294  1.0000
  H   H6        1.0  0.5649045652451932  0.9949577674517229  0.7447926245641767  1.0000
  H   H7        1.0  0.0649032055744171  0.9949564511018776  0.7552062015018493  1.0000
  H   H8        1.0  0.43510609160075125  0.0050389872193576995  0.255205418879207  1.0000
  H   H9        1.0  0.6706160312122692  0.7382892922774502  0.22404529819879565  1.0000
  H   H10       1.0  0.8293821412171953  0.261712727793025  0.724043732953497  1.0000
  H   H11       1.0  0.3293803411450611  0.2617100950933349  0.7759547018012043  1.0000
  H   H12       1.0  0.17062357539124662  0.7382919249771476  0.2759558757351783  1.0000
  H   H13       1.0  0.46630860681591463  0.5886611213690003  0.2972502553306384  1.0000
  H   H14       1.0  0.03368816747608609  0.4113422150513272  0.7972494727079891  1.0000
  H   H15       1.0  0.5336848550212991  0.4113408987014821  0.7027493533580368  1.0000
  H   H16       1.0  0.9663137578095233  0.5886624377188454  0.2027509186033285  1.0000
  H   H17       1.0  0.5309817853737614  0.7168946581927356  0.3881139185524631  1.0000
  H   H18       1.0  0.9690159466543379  0.2831060455278943  0.8881119619958469  1.0000
  H   H19       1.0  0.46901376361064706  0.2831060455278943  0.6118868640701862  1.0000
  H   H20       1.0  0.030983834054268296  0.716895974542588  0.11188803800415309  1.0000
  H   H21       1.0  0.7162385523389645  0.9415402906069799  0.4478753751697298  1.0000
  H   H22       1.0  0.7837654411307187  0.05845646406410049  0.9478734186131134  1.0000
  H   H23       1.0  0.28376117093983316  0.05845778041395279  0.5521250161415949  1.0000
  H   H24       1.0  0.21623807347091872  0.9415416069568321  0.0521257987642372  1.0000
  H   H25       1.0  0.48046868641772283  0.6131899844425561  0.5249950107806285  1.0000
  H   H26       1.0  0.01952967719030601  0.3868067702285316  0.0249942281579791  1.0000
  H   H27       1.0  0.5195301560583516  0.3868054538786794  0.4750053805306962  1.0000
  H   H28       1.0  0.980470046088499  0.6131913007924013  0.9750053805306962  1.0000
  H   H29       1.0  0.3616189907606966  0.6854233660191509  0.5743593255358022  1.0000
  H   H30       1.0  0.1383798132486973  0.3145747050017818  0.0743581516018352  1.0000
  H   H31       1.0  0.6383807325181082  0.3145747050017818  0.4256414570868472  1.0000
  H   H32       1.0  0.8616173824815475  0.6854233660191509  0.9256410657755225  1.0000
  H   H33       1.0  0.3204029619658044  0.7175673129652294  0.5059858893136777  1.0000
  H   H34       1.0  0.1795971632476778  0.2824347071052458  0.005984715379710798  1.0000
  H   H35       1.0  0.6795963783414436  0.2824333907554006  0.494014501997647  1.0000
  H   H36       1.0  0.8204000324825673  0.7175633639156798  0.994014501997647  1.0000
  C   C1        1.0  0.8418286101637166  0.9364104752480884  0.2752836028816148  1.0000
  C   C2        1.0  0.6581707686102193  0.0635875957728445  0.7752816463249983  1.0000
  C   C3        1.0  0.1581702897421664  0.06358891212269667  0.7247171797410275  1.0000
  C   C4        1.0  0.34182939506994364  0.9364117915979335  0.2247183536750015  1.0000
  C   C5        1.0  0.6948722927526773  0.7878090572213237  0.2639660967869446  1.0000
  C   C6        1.0  0.8051292305982545  0.21219164649930625  0.7639657054756198  1.0000
  C   C7        1.0  0.3051257837802908  0.21219164649930625  0.7360327292790882  1.0000
  C   C8        1.0  0.19487642858038612  0.7878090572213237  0.2360335119017307  1.0000
  C   C9        1.0  0.58106636906669  0.7057096335315833  0.3047513020884267  1.0000
  C   C10       1.0  0.9189330671370541  0.294292386538899  0.8047493455318104  1.0000
  C   C11       1.0  0.4189308840933633  0.294292386538899  0.6952486979115733  1.0000
  C   C12       1.0  0.08106753694447379  0.7057083171817311  0.1952498718455402  1.0000
  C   C13       1.0  0.6163260083585697  0.7757170675146694  0.35499919781178585  1.0000
  C   C14       1.0  0.8836733704153661  0.2242810035062561  0.8549980238778189  1.0000
  C   C15       1.0  0.3836716277730403  0.22428231985610833  0.6450004108768893  1.0000
  C   C16       1.0  0.11632729109597043  0.7757236492639163  0.1450015848108563  1.0000
  C   C17       1.0  0.7657805365393102  0.9251109281501255  0.3631842567628353  1.0000
  C   C18       1.0  0.73422092938182  0.07488582652096197  0.863182300206219  1.0000
  C   C19       1.0  0.23421836336657262  0.0748884592206593  0.6368161345484822  1.0000
  C   C20       1.0  0.2657842893954622  0.9251135608498229  0.1368173084824562  1.0000
  C   C21       1.0  0.8058505279152541  0.0011741840647018996  0.4153711000935231  1.0000
  C   C22       1.0  0.6941525847517056  0.9988199379066882  0.9153687522255822  1.0000
  C   C23       1.0  0.19414793158927066  0.9988238869562307  0.5846296825291262  1.0000
  C   C24       1.0  0.3058475789284572  0.0011794494640894996  0.0846304651517684  1.0000
  C   C25       1.0  0.1358421538299268  0.3617618980144357  0.4730515630930796  1.0000
  C   C26       1.0  0.3641570905808251  0.6382374893563494  0.9730507804704374  1.0000
  C   C27       1.0  0.8641525143517584  0.6382361730064972  0.5269492195295626  1.0000
  C   C28       1.0  0.6358422497264229  0.3617632143642807  0.0269488282182451  1.0000
  C   C29       1.0  0.35276436386948967  0.6311252511258869  0.5346247911375812  1.0000
  C   C30       1.0  0.14723532094262737  0.36887545259474297  0.0346240085149319  1.0000
  C   C31       1.0  0.6472328318607552  0.3688728198950456  0.46537599148506803  1.0000
  C   C32       1.0  0.8527665469131807  0.6311252511258869  0.9653756001737435  1.0000
  C   C33       1.0  0.29043761200758667  0.3775528307948547  0.22100989626336798  1.0000
  C   C34       1.0  0.20955525610197162  0.6224426075263807  0.721007548395427  1.0000
  C   C35       1.0  0.7095660174536678  0.6224531383251701  0.7789916689819236  1.0000
  C   C36       1.0  0.790445290549748  0.377554147144707  0.2789936255385399  1.0000
  C   C37       1.0  0.2955182405422434  0.0048231058442383  0.4130244060872386  1.0000
  C   C38       1.0  0.20448611639542952  0.9951802305760891  0.9130236234645892  1.0000
  C   C39       1.0  0.7044814827365543  0.9951749651766943  0.5869744199787874  1.0000
  C   C40       1.0  0.7955131664820101  0.004816524094998398  0.0869752026014368  1.0000
  S   S1        1.0  0.2580579006025587  0.4755103211072863  0.4234235045059478  1.0000
  S   S2        1.0  0.2419383758582754  0.5244877499136464  0.9234235045059478  1.0000
  S   S3        1.0  0.7419376483818498  0.5244903826133438  0.5765768868053769  1.0000
  S   S4        1.0  0.7580613474205293  0.4755103211072863  0.0765768868053769  1.0000
  S   S5        1.0  0.17678362086986252  0.422869490673051  0.5384075977006546  1.0000
  S   S6        1.0  0.3232135363936948  0.577131213047579  0.0384068150780053  1.0000
  S   S7        1.0  0.8232127514874678  0.5771298966977338  0.4615931849219947  1.0000
  S   S8        1.0  0.676786186885103  0.4228668579733537  0.9615924022993453  1.0000
  S   S9        1.0  0.3963786710542437  0.4635644462337963  0.16779273021823118  1.0000
  S   S10       1.0  0.10361854363912218  0.536440206536376  0.6677942954635299  1.0000
  S   S11       1.0  0.6036266625826486  0.5364428392360734  0.8322080524044111  1.0000
  S   S12       1.0  0.8963807392383176  0.4635565481347115  0.33220883502706033  1.0000
  S   S13       1.0  0.36727109523074836  0.09305408712744169  0.35612108737590376  1.0000
  S   S14       1.0  0.13273502331237103  0.9069545146922735  0.8561210873759038  1.0000
  S   S15       1.0  0.6327265409008547  0.9069453002433361  0.6438773473788046  1.0000
  S   S16       1.0  0.8672698699231561  0.09305145442774428  0.1438781300014469  1.0000
  N   N1        1.0  0.8769043345256124  0.002955205409470799  0.3234912013648951  1.0000
  N   N2        1.0  0.623098395169791  0.9970415492616098  0.8234892448082789  1.0000
  N   N3        1.0  0.1230966525274653  0.9970428656114547  0.6765095812577542  1.0000
  N   N4        1.0  0.3769089107546791  0.002956521759323  0.1765107551917211  1.0000
  N   N5        1.0  0.9468842100118522  0.1380903644879439  0.4211073327828885  1.0000
  N   N6        1.0  0.5531156091634415  0.861909022882834  0.9211065501602391  1.0000
  N   N7        1.0  0.053113426119757896  0.861909022882834  0.5788926672171115  1.0000
  N   N8        1.0  0.4468845545167213  0.1380903644879439  0.0788930585284362  1.0000
  N   N9        1.0  0.9921376261557883  0.21249045791487475  0.4682208248060107  1.0000
  N   N10       1.0  0.5078609292452327  0.787508929455903  0.968220433494686  1.0000
  N   N11       1.0  0.0078595695744568  0.7875076131060579  0.5317791751939893  1.0000
  N   N12       1.0  0.49214005780785197  0.21248914156502954  0.031779566505314  1.0000
  N   N13       1.0  0.2124799682275125  0.315995046488112  0.2597184123716971  1.0000
  N   N14       1.0  0.28752703111832995  0.6840161880313003  0.7597215428622872  1.0000
  N   N15       1.0  0.7875261313524861  0.6840069735823631  0.7402815876283029  1.0000
  N   N16       1.0  0.7124800641240085  0.3159963628379642  0.24028119631697817  1.0000
  N   N17       1.0  0.24659795108686922  0.9419917986049524  0.4545390156954951  1.0000
  N   N18       1.0  0.2534050846467153  0.058007588765825284  0.9545397983181445  1.0000
  N   N19       1.0  0.7533962192636495  0.0580010070165855  0.5454590277478886  1.0000
  N   N20       1.0  0.7465955194348055  0.9419931149548046  0.0454613756158295  1.0000
