data_image0
_chemical_formula_structural       Li4H44C48O24
_chemical_formula_sum              "Li4 H44 C48 O24"
_cell_length_a       7.981318082996696
_cell_length_b       7.86583715220235
_cell_length_c       18.788254291173704
_cell_angle_alpha    89.99966742017925
_cell_angle_beta     90.00045917659833
_cell_angle_gamma    110.65896874107041

_space_group_name_H-M_alt    "P 1"
_space_group_IT_number       1

loop_
  _space_group_symop_operation_xyz
  'x, y, z'

loop_
  _atom_site_type_symbol
  _atom_site_label
  _atom_site_symmetry_multiplicity
  _atom_site_fract_x
  _atom_site_fract_y
  _atom_site_fract_z
  _atom_site_occupancy
  Li  Li1       1.0  0.686838887545456  0.2663296117236343  0.02712684603591239  1.0000
  Li  Li2       1.0  0.8131571610194686  0.7336718726629033  0.5271266512316544  1.0000
  Li  Li3       1.0  0.3131571855303933  0.7336675215419464  0.9728744984710357  1.0000
  Li  Li4       1.0  0.18683814928417772  0.2663266331553374  0.472874693272331  1.0000
  H   H1        1.0  0.3503781663761245  0.15695084864330516  0.025971956661983594  1.0000
  H   H2        1.0  0.1496128569406637  0.8430442579458987  0.5259725345454453  1.0000
  H   H3        1.0  0.64962165073478  0.843046242819327  0.9740283233565772  1.0000
  H   H4        1.0  0.8503774612965531  0.15695430361992635  0.47402774545506765  1.0000
  H   H5        1.0  0.3999417941062616  0.016284869908602704  0.07398838045779847  1.0000
  H   H6        1.0  0.10005491267662599  0.9837166031869774  0.5739873849752042  1.0000
  H   H7        1.0  0.6000525457127924  0.9837109186759111  0.9260129640477998  1.0000
  H   H8        1.0  0.8999423385919983  0.01628733710093401  0.42601342727813546  1.0000
  H   H9        1.0  0.7723093397449574  0.5507412562498075  0.9567877949274358  1.0000
  H   H10       1.0  0.7276982350485285  0.4492593358055787  0.45678555986011543  1.0000
  H   H11       1.0  0.2276880511460108  0.4492490421329195  0.043211420600300685  1.0000
  H   H12       1.0  0.2723157256466636  0.5507457819361221  0.5432147201730116  1.0000
  H   H13       1.0  0.8481072706425297  0.048361824360306116  0.0648254057717708  1.0000
  H   H14       1.0  0.651893604861371  0.9516406638035168  0.5648241329902601  1.0000
  H   H15       1.0  0.1518960129819718  0.9516379564644739  0.9351748742494902  1.0000
  H   H16       1.0  0.3481046867093483  0.04835917276221831  0.4351766792698084  1.0000
  H   H17       1.0  0.9758351232463272  0.24846760570106605  0.08445999106288578  1.0000
  H   H18       1.0  0.5241598234705193  0.7515347891000489  0.5844592950840661  1.0000
  H   H19       1.0  0.024163653570916214  0.7515335894793227  0.9155413534438065  1.0000
  H   H20       1.0  0.47583798286634515  0.24846368884439585  0.4155425816716586  1.0000
  H   H21       1.0  0.4327218788642142  0.08711418622543485  0.8609294779457811  1.0000
  H   H22       1.0  0.06729532367505446  0.912887454198  0.360930898247524  1.0000
  H   H23       1.0  0.5672759972648365  0.9128774707763727  0.13906920533372608  1.0000
  H   H24       1.0  0.9327146852684578  0.08711361556247971  0.6390699140311324  1.0000
  H   H25       1.0  0.2119882538816143  0.8304536068341836  0.8018428848631414  1.0000
  H   H26       1.0  0.2880284971704654  0.1695498828359732  0.30184578864461986  1.0000
  H   H27       1.0  0.7880053231314791  0.1695435543206615  0.19815420166008113  1.0000
  H   H28       1.0  0.7119857410546188  0.8304525037362112  0.698154491392273  1.0000
  H   H29       1.0  0.2068504680954319  0.8075575350322738  0.6681753493852013  1.0000
  H   H30       1.0  0.2931558431543878  0.19245534169346715  0.16817821556195864  1.0000
  H   H31       1.0  0.7931374919823712  0.19245196516068572  0.33182173711352897  1.0000
  H   H32       1.0  0.7068569393395878  0.8075429690303298  0.8318215322299236  1.0000
  H   H33       1.0  0.4267693081006883  0.044385119568978816  0.5973488840544902  1.0000
  H   H34       1.0  0.07323740583239416  0.9556256001712885  0.09735181848633798  1.0000
  H   H35       1.0  0.5732264176066624  0.9556215658330844  0.4026497992032175  1.0000
  H   H36       1.0  0.9267721178645943  0.04437411097453041  0.9026484615457021  1.0000
  H   H37       1.0  0.9129047361046576  0.5954256338570263  0.6501096759139242  1.0000
  H   H38       1.0  0.5870956185766901  0.40458844336558997  0.15010813119733504  1.0000
  H   H39       1.0  0.0870952887270846  0.40457554738757306  0.34989166859492105  1.0000
  H   H40       1.0  0.4129026031934091  0.5954182141472162  0.8498948100440982  1.0000
  H   H41       1.0  0.919078784166537  0.6171711737208911  0.7816136287640771  1.0000
  H   H42       1.0  0.5809154044845712  0.38284326770035915  0.2816126475353115  1.0000
  H   H43       1.0  0.08091278210205397  0.38282737390030536  0.21838878022830238  1.0000
  H   H44       1.0  0.4190864915115214  0.6171701689609751  0.7183902937042531  1.0000
  C   C1        1.0  0.5683501843303278  0.19856981320624106  0.6880305961832034  1.0000
  C   C2        1.0  0.9316550706768185  0.8014384449682482  0.18803353375391643  1.0000
  C   C3        1.0  0.43164734445554137  0.8014313959187763  0.31196861933162257  1.0000
  C   C4        1.0  0.06834994622557394  0.19856268052655687  0.8119694075058346  1.0000
  C   C5        1.0  0.5712497851827508  0.21132768267560215  0.7646050230678296  1.0000
  C   C6        1.0  0.9287559908369121  0.7886744912572471  0.2646053202209372  1.0000
  C   C7        1.0  0.42874337642664534  0.78866129889542  0.23539472470167763  1.0000
  C   C8        1.0  0.07124923376522223  0.21133072403056738  0.7353960242919511  1.0000
  C   C9        1.0  0.43779909316705107  0.07554935990622623  0.8035335348204737  1.0000
  C   C10       1.0  0.062202500798029886  0.9244501931703513  0.3035359743209439  1.0000
  C   C11       1.0  0.5621945536593317  0.9244409802949253  0.19646301946366404  1.0000
  C   C12       1.0  0.9377987720228944  0.07555097415171022  0.6964621767054948  1.0000
  C   C13       1.0  0.31171700702405764  0.9316332253870105  0.7697441560031206  1.0000
  C   C14       1.0  0.18829278733758778  0.06836651072466544  0.26974430063208377  1.0000
  C   C15       1.0  0.6882726182289289  0.06835988779103275  0.23025239827078536  1.0000
  C   C16       1.0  0.8117170138682116  0.9316304692626861  0.7302533181665891  1.0000
  C   C17       1.0  0.3088901515552749  0.9188895403477348  0.6950538851168344  1.0000
  C   C18       1.0  0.19112157789306392  0.08112305743564013  0.19505879893404193  1.0000
  C   C19       1.0  0.6911008596028836  0.08111446963901871  0.3049421368988873  1.0000
  C   C20       1.0  0.808891689847428  0.9188766119028103  0.804941481104464  1.0000
  C   C21       1.0  0.4331765418012808  0.050826607515794806  0.6551536190556886  1.0000
  C   C22       1.0  0.06683330702880136  0.9491863355416116  0.15515388582073797  1.0000
  C   C23       1.0  0.5668175204456818  0.94917191226034  0.3448424029718779  1.0000
  C   C24       1.0  0.9331811388875908  0.05082014082800872  0.8448437329744463  1.0000
  C   C25       1.0  0.6971075946662639  0.33791021232518414  0.6474510405784101  1.0000
  C   C26       1.0  0.8028941055458532  0.6620902311103053  0.14745334049008105  1.0000
  C   C27       1.0  0.3028924999618853  0.6620841479745538  0.35254764270164424  1.0000
  C   C28       1.0  0.19710245277651248  0.337908260769929  0.8525485362634907  1.0000
  C   C29       1.0  0.8171543213979433  0.4880402474016849  0.6814792400943331  1.0000
  C   C30       1.0  0.6828485414070401  0.5119721828428186  0.18147936144414695  1.0000
  C   C31       1.0  0.18283877040661173  0.5119555551186183  0.3185221044091121  1.0000
  C   C32       1.0  0.3171578614005314  0.48803983946069723  0.8185230475574128  1.0000
  C   C33       1.0  0.820725107842478  0.5001304371268988  0.7560779664854136  1.0000
  C   C34       1.0  0.6792672202473897  0.49988014048343404  0.25607704022656447  1.0000
  C   C35       1.0  0.17926500267812176  0.49986403465474905  0.24392178127224168  1.0000
  C   C36       1.0  0.3207277427130749  0.5001279174580234  0.7439248365127467  1.0000
  C   C37       1.0  0.7039764955736771  0.36390916275211543  0.7978077255973799  1.0000
  C   C38       1.0  0.7960327182848417  0.6361008871777546  0.2978079356420763  1.0000
  C   C39       1.0  0.2960186070133518  0.6360852532819553  0.20219308666375466  1.0000
  C   C40       1.0  0.20397645806896497  0.36390837609128823  0.7021928766252824  1.0000
  C   C41       1.0  0.7203197005423833  0.3827369081644251  0.8764962549817238  1.0000
  C   C42       1.0  0.7796836200640769  0.6172630198594717  0.3764943254089984  1.0000
  C   C43       1.0  0.2796706176610756  0.6172616534190783  0.12349976703937667  1.0000
  C   C44       1.0  0.22032631906193254  0.382744870856918  0.6235064868613234  1.0000
  C   C45       1.0  0.7138050904710627  0.32449021378695875  0.5682154109367301  1.0000
  C   C46       1.0  0.7862069312747554  0.6755257627158431  0.06821442779784087  1.0000
  C   C47       1.0  0.28619645989242304  0.6755082223589568  0.4317843368357542  1.0000
  C   C48       1.0  0.2137998188759981  0.3244767074644488  0.9317874489683998  1.0000
  O   O1        1.0  0.6788373452827017  0.25221027292627707  0.9189531861823066  1.0000
  O   O2        1.0  0.8211695599136989  0.7477974542309699  0.41895587440500737  1.0000
  O   O3        1.0  0.3211488833205963  0.7477733299094071  0.08104922281893318  1.0000
  O   O4        1.0  0.1788378832001954  0.25221046434815975  0.581047066850715  1.0000
  O   O5        1.0  0.4452516583396361  0.14195089050391374  0.05681268219729668  1.0000
  O   O6        1.0  0.054742557646918016  0.8580480219145772  0.5568118343103945  1.0000
  O   O7        1.0  0.5547471882908894  0.8580434837227815  0.9431881300703036  1.0000
  O   O8        1.0  0.9452494938302181  0.141951884341168  0.44318631670176234  1.0000
  O   O9        1.0  0.7826652098859627  0.55327889878717  0.8998320124745189  1.0000
  O   O10       1.0  0.7173411844258271  0.4467248973758942  0.3998308125233762  1.0000
  O   O11       1.0  0.21733266626418415  0.44671275820358164  0.10016933204212107  1.0000
  O   O12       1.0  0.2826744397044438  0.5532883860050007  0.6001689352553325  1.0000
  O   O13       1.0  0.85582242001653  0.17687963381047925  0.06795115325700608  1.0000
  O   O14       1.0  0.6441752462219981  0.8231242288322491  0.5679475025356452  1.0000
  O   O15       1.0  0.1441801008315551  0.8231215195691632  0.9320485945138656  1.0000
  O   O16       1.0  0.35582304534872844  0.17687560773347855  0.4320533097244236  1.0000
  O   O17       1.0  0.7051693813775162  0.17570367374187873  0.5399127862704204  1.0000
  O   O18       1.0  0.7948418460696802  0.8242975372428563  0.03991307089037119  1.0000
  O   O19       1.0  0.29482440336907706  0.824297577188304  0.4600869614853662  1.0000
  O   O20       1.0  0.2051654591197831  0.17569947060945176  0.9600861446462683  1.0000
  O   O21       1.0  0.7423049431035055  0.4710064238144796  0.5322087447877732  1.0000
  O   O22       1.0  0.7577035963642518  0.5290016999671895  0.03220961384977269  1.0000
  O   O23       1.0  0.25769979625633255  0.5289974328564713  0.467792599725925  1.0000
  O   O24       1.0  0.24229968726447035  0.47099808085538103  0.9677911984189148  1.0000
