data_image0
_chemical_formula_structural       H20Pb4C8N36O8
_chemical_formula_sum              "H20 Pb4 C8 N36 O8"
_cell_length_a       6.621843785237873
_cell_length_b       10.650035872127381
_cell_length_c       11.910710967389312
_cell_angle_alpha    90.01015952206018
_cell_angle_beta     89.98222031839923
_cell_angle_gamma    105.11052441360631

_space_group_name_H-M_alt    "P 1"
_space_group_IT_number       1

loop_
  _space_group_symop_operation_xyz
  'x, y, z'

loop_
  _atom_site_type_symbol
  _atom_site_label
  _atom_site_symmetry_multiplicity
  _atom_site_fract_x
  _atom_site_fract_y
  _atom_site_fract_z
  _atom_site_occupancy
  H   H1        1.0  0.29432998269042804  0.5734180694731635  0.13808105571434484  1.0000
  H   H2        1.0  0.205663093610326  0.9266562684059136  0.6380662682704498  1.0000
  H   H3        1.0  0.7056099448398641  0.42659509708811083  0.8618966111284012  1.0000
  H   H4        1.0  0.7943220360901861  0.07335305125417342  0.36192147718309553  1.0000
  H   H5        1.0  0.26425488434821187  0.1304685777042565  0.09741825876000121  1.0000
  H   H6        1.0  0.23563243842787074  0.3695268973390498  0.5974594610332106  1.0000
  H   H7        1.0  0.7357860629479093  0.8695116230169613  0.9025610974370937  1.0000
  H   H8        1.0  0.7642438001864279  0.6305183041723907  0.40256017746401085  1.0000
  H   H9        1.0  0.1416114699777964  0.0355286448765781  0.18703825451069636  1.0000
  H   H10       1.0  0.3582527079408139  0.4644635309343955  0.6870840314337345  1.0000
  H   H11       1.0  0.8584299855883021  0.964496285363062  0.8129755207652568  1.0000
  H   H12       1.0  0.6415399376768323  0.5355261897952986  0.3129918574823663  1.0000
  H   H13       1.0  0.48462718755033063  0.229715778768906  0.21515964442451016  1.0000
  H   H14       1.0  0.015357523392744104  0.27028511136674643  0.7151423416919018  1.0000
  H   H15       1.0  0.5154066548888565  0.7702799711748513  0.7848188703628054  1.0000
  H   H16       1.0  0.9847290965425017  0.7296815218277218  0.28485381061207704  1.0000
  H   H17       1.0  0.5522685097357752  0.32520522597513957  0.10707150638066312  1.0000
  H   H18       1.0  0.9477013350418988  0.17483194482885983  0.6070355540871903  1.0000
  H   H19       1.0  0.44774952060446804  0.6747525904197788  0.8928935771455219  1.0000
  H   H20       1.0  0.05229034491756585  0.8252075153755954  0.39292868105858514  1.0000
  Pb  Pb1       1.0  0.8072480157787326  0.1340266890828232  0.04532074079703821  1.0000
  Pb  Pb2       1.0  0.6926294801072289  0.3659988692672443  0.5452798189748622  1.0000
  Pb  Pb3       1.0  0.1929109172202388  0.865841817287567  0.9546980937438792  1.0000
  Pb  Pb4       1.0  0.30717489731330977  0.6341094724184233  0.45478766502510853  1.0000
  C   C1        1.0  0.11244387993487955  0.4042448075704216  0.20421231607610227  1.0000
  C   C2        1.0  0.38757362311324783  0.0958074154258171  0.704189209827618  1.0000
  C   C3        1.0  0.8875472757581094  0.5957645218546331  0.7957989380743699  1.0000
  C   C4        1.0  0.6124506240768285  0.9041834683165676  0.2958077754356766  1.0000
  C   C5        1.0  0.20399645691406218  0.44356125195801605  0.0066372491500246026  1.0000
  C   C6        1.0  0.2960332670958793  0.05647996148059061  0.5066274529908911  1.0000
  C   C7        1.0  0.7959530629260884  0.5564315106942602  0.9933639283678775  1.0000
  C   C8        1.0  0.7040318886328126  0.9435148456081139  0.4933594599816119  1.0000
  N   N1        1.0  0.9807214345171147  0.2843122170893296  0.19899431402699724  1.0000
  N   N2        1.0  0.5191590667267505  0.2157817720736119  0.6989909476577625  1.0000
  N   N3        1.0  0.01936399633263627  0.7156660855998285  0.8010219871414325  1.0000
  N   N4        1.0  0.48059802897209636  0.7842963777697561  0.30101944393025803  1.0000
  N   N5        1.0  0.9239001133788135  0.2511872838370621  0.30673041756073627  1.0000
  N   N6        1.0  0.5760442121955194  0.24885875790526063  0.8067189247822671  1.0000
  N   N7        1.0  0.07612637424885807  0.748816244044278  0.6932833584148813  1.0000
  N   N8        1.0  0.42382558932010284  0.7511854626649994  0.19328476129428657  1.0000
  N   N9        1.0  0.016694536375958115  0.3465431094434451  0.37303886402670383  1.0000
  N   N10       1.0  0.4834054675743716  0.1534384350175486  0.8730016659743359  1.0000
  N   N11       1.0  0.9831949032195482  0.6535011288759807  0.6269665026522235  1.0000
  N   N12       1.0  0.5167724611636615  0.8465117489532331  0.1269819007128348  1.0000
  N   N13       1.0  0.13716702214471613  0.44469577495893736  0.3117811483797937  1.0000
  N   N14       1.0  0.3629953489551028  0.0552812848259165  0.8117368800821226  1.0000
  N   N15       1.0  0.8627192143927405  0.5553552661302916  0.6882242174918859  1.0000
  N   N16       1.0  0.6372938414757744  0.9446242748429657  0.18824417978932226  1.0000
  N   N17       1.0  0.2105365536285504  0.4798199352750813  0.11718728809124464  1.0000
  N   N18       1.0  0.28947519742204264  0.020241399667988  0.6171725496370046  1.0000
  N   N19       1.0  0.7894283004208449  0.5201806180455507  0.882809691995583  1.0000
  N   N20       1.0  0.7105575321586386  0.9797553235682912  0.3828168795337066  1.0000
  N   N21       1.0  0.08929265181532031  0.33055499476001426  0.9627937775857166  1.0000
  N   N22       1.0  0.4107964025393827  0.16946025824903194  0.4627692175089282  1.0000
  N   N23       1.0  0.910696105372175  0.6694232189528792  0.0372057248769764  1.0000
  N   N24       1.0  0.5894458637926833  0.8304812310288273  0.5372051192501034  1.0000
  N   N25       1.0  0.13135232174270334  0.33876829814438747  0.8514652792021808  1.0000
  N   N26       1.0  0.3687409349257038  0.1612343077224949  0.3514518734132964  1.0000
  N   N27       1.0  0.8686373582414859  0.6612157499282603  0.14853506241833972  1.0000
  N   N28       1.0  0.6314713799908348  0.838729517212947  0.6485274967506742  1.0000
  N   N29       1.0  0.2643567284367379  0.4507092862756181  0.8301235025164929  1.0000
  N   N30       1.0  0.23568843695034764  0.049306653022782115  0.33013120004043384  1.0000
  N   N31       1.0  0.7355722735553201  0.5492922076053689  0.16987431443779147  1.0000
  N   N32       1.0  0.7643604788299431  0.9507143900293547  0.6698565491137674  1.0000
  N   N33       1.0  0.3142252214447013  0.519980685679549  0.9255833287236401  1.0000
  N   N34       1.0  0.18578819648719505  0.9800587562071855  0.42559690734658784  1.0000
  N   N35       1.0  0.6856757097306245  0.4800295325672722  0.07441028753216733  1.0000
  N   N36       1.0  0.8141762707410933  0.019980685042881405  0.5743950319592204  1.0000
  O   O1        1.0  0.13536914901268202  0.05585452288524102  0.10493854383795315  1.0000
  O   O2        1.0  0.36452121435629453  0.44415155506709453  0.6049659877375009  1.0000
  O   O3        1.0  0.8647009238728032  0.944101400768915  0.8950559289896421  1.0000
  O   O4        1.0  0.6353169126828606  0.5559218132867018  0.3950855496520803  1.0000
  O   O5        1.0  0.4985091753117886  0.23169094966398526  0.1318799860570081  1.0000
  O   O6        1.0  0.0014882181181122194  0.26833408693573096  0.6318710495249533  1.0000
  O   O7        1.0  0.5015151123043468  0.7682746526527212  0.8680985305628968  1.0000
  O   O8        1.0  0.9985161779707996  0.7316888635778798  0.3681301294866799  1.0000
