data_image0
_chemical_formula_structural       Al4H16C32N4O28
_chemical_formula_sum              "Al4 H16 C32 N4 O28"
_cell_length_a       6.883358173341224
_cell_length_b       12.677531040019543
_cell_length_c       16.931074294015534
_cell_angle_alpha    89.99211874843083
_cell_angle_beta     89.35832111707379
_cell_angle_gamma    89.46913241081307

_space_group_name_H-M_alt    "P 1"
_space_group_IT_number       1

loop_
  _space_group_symop_operation_xyz
  'x, y, z'

loop_
  _atom_site_type_symbol
  _atom_site_label
  _atom_site_symmetry_multiplicity
  _atom_site_fract_x
  _atom_site_fract_y
  _atom_site_fract_z
  _atom_site_occupancy
  Al  Al1       1.0  0.007084639824412898  0.9993292599391239  0.5017238884722346  1.0000
  Al  Al2       1.0  0.5067500675721988  0.003978952967720799  0.4983943426788926  1.0000
  Al  Al3       1.0  0.989901904574019  0.5005877839616701  0.9982772029090442  1.0000
  Al  Al4       1.0  0.4897211248149489  0.5021109165016143  0.999048223787959  1.0000
  H   H1        1.0  0.26101749586397466  0.86571495941881  0.478719811546668  1.0000
  H   H2        1.0  0.7604661629693581  0.14002544841862632  0.48513428583783735  1.0000
  H   H3        1.0  0.23514841061580677  0.6401344332385364  0.011460548524340202  1.0000
  H   H4        1.0  0.739916013606532  0.3627224652821824  0.011421010420768601  1.0000
  H   H5        1.0  0.05067869549706929  0.713345089640079  0.8201123614057907  1.0000
  H   H6        1.0  0.4293448260518957  0.6883443294879682  0.806762555707202  1.0000
  H   H7        1.0  0.04782431026239212  0.8278488922448658  0.6979137423595674  1.0000
  H   H8        1.0  0.5475523682452135  0.28126225807066163  0.1714713377134203  1.0000
  H   H9        1.0  0.928382260804632  0.317764411373794  0.1969480514672384  1.0000
  H   H10       1.0  0.5504388808491569  0.1679739255491484  0.2940206659722691  1.0000
  H   H11       1.0  0.9445770528091871  0.279821115847021  0.8255293121863334  1.0000
  H   H12       1.0  0.5613804148493174  0.3230326197567948  0.8015927235920373  1.0000
  H   H13       1.0  0.9521907975025243  0.16534022975342574  0.7035707014394391  1.0000
  H   H14       1.0  0.05044431627299421  0.6690598579803722  0.1949763243297014  1.0000
  H   H15       1.0  0.43122116437830027  0.7130677707490634  0.1861332844719357  1.0000
  H   H16       1.0  0.05776413556966278  0.7796786332731143  0.3188291351104979  1.0000
  C   C1        1.0  0.7627845189758987  0.8778926981206324  0.39278202062792644  1.0000
  C   C2        1.0  0.7505451407664694  0.8847801586263911  0.6098113841939962  1.0000
  C   C3        1.0  0.2503572109103374  0.11882652464835532  0.6093104997812945  1.0000
  C   C4        1.0  0.25671511330963176  0.11912702491272852  0.3895632629370596  1.0000
  C   C5        1.0  0.7363434977823643  0.6215426753727513  0.1083289204533386  1.0000
  C   C6        1.0  0.7411841971203258  0.6233775835660325  0.8912516432300777  1.0000
  C   C7        1.0  0.2481720513458185  0.37998369793411496  0.8908132826753248  1.0000
  C   C8        1.0  0.23693810174711422  0.37774927625671484  0.10642996832799413  1.0000
  C   C9        1.0  0.7435997180876796  0.8203050891491516  0.6838778091977319  1.0000
  C   C10       1.0  0.7411610041883777  0.6928548964960798  0.8201154649149984  1.0000
  C   C11       1.0  0.5705650023150213  0.7823644922387417  0.7166860314671908  1.0000
  C   C12       1.0  0.9159664898954888  0.7326243436163367  0.7899712412328199  1.0000
  C   C13       1.0  0.565869179063931  0.7185388322473333  0.7832433463361499  1.0000
  C   C14       1.0  0.9157188934794648  0.7951168911184393  0.7226413838116486  1.0000
  C   C15       1.0  0.24700094788909874  0.18179980878152688  0.314594137985182  1.0000
  C   C16       1.0  0.2392225373672119  0.3083552112372985  0.1777926096791873  1.0000
  C   C17       1.0  0.0729690008894224  0.22199101729568588  0.28459094072367463  1.0000
  C   C18       1.0  0.41449973990073374  0.26512653397422536  0.2045295438019181  1.0000
  C   C19       1.0  0.06571485501679321  0.2857336669050667  0.2180327964335973  1.0000
  C   C20       1.0  0.4172739987088149  0.20323103001967982  0.2721501499455883  1.0000
  C   C21       1.0  0.2550435337566909  0.18203139512876731  0.6839604858303971  1.0000
  C   C22       1.0  0.2511117447773259  0.3100899536053632  0.8198814619786887  1.0000
  C   C23       1.0  0.4257404353076594  0.22464397742338346  0.7140885745217177  1.0000
  C   C24       1.0  0.07943362083416619  0.2646810876322476  0.7930103524738927  1.0000
  C   C25       1.0  0.42695746927711303  0.2891867774998289  0.7802213289132568  1.0000
  C   C26       1.0  0.0825653531689596  0.20196251880640403  0.7257456204594774  1.0000
  C   C27       1.0  0.7542372907981587  0.8089547868809319  0.32087598135503725  1.0000
  C   C28       1.0  0.7415064340296809  0.686209949861073  0.1820716177056454  1.0000
  C   C29       1.0  0.5791133630249734  0.7871236903704428  0.2831719741033396  1.0000
  C   C30       1.0  0.9183066828887264  0.7041222024571854  0.219870818899409  1.0000
  C   C31       1.0  0.5695794551927023  0.7278653326900298  0.2144674940728208  1.0000
  C   C32       1.0  0.923422182523744  0.7650368154042723  0.288009227174129  1.0000
  N   N1        1.0  0.3834405674438627  0.8123334619176886  0.6820682580792905  1.0000
  N   N2        1.0  0.8866885654856915  0.19157759857571927  0.320866839214176  1.0000
  N   N3        1.0  0.6152591527371244  0.19631784344817044  0.6788627255130066  1.0000
  N   N4        1.0  0.39261758102325217  0.8236407278023065  0.3168022996869837  1.0000
  O   O1        1.0  0.9287889313332868  0.9019190766980574  0.4187969910093018  1.0000
  O   O2        1.0  0.588125801398924  0.9124915345585407  0.5812219913662418  1.0000
  O   O3        1.0  0.41236774861049247  0.1026939875060933  0.5741110056135597  1.0000
  O   O4        1.0  0.0954381644630402  0.09951803872495901  0.42375887443166255  1.0000
  O   O5        1.0  0.0851406484788981  0.08908270551428642  0.586397590614844  1.0000
  O   O6        1.0  0.4250671442906152  0.09344225880105478  0.41295843913090385  1.0000
  O   O7        1.0  0.5986740620428889  0.9060346224834319  0.42114906035052974  1.0000
  O   O8        1.0  0.917529295241671  0.90426115969413  0.5811794878497025  1.0000
  O   O9        1.0  0.25881607609863266  0.937614579040499  0.498783412599728  1.0000
  O   O10       1.0  0.7577230426818247  0.06550920526556328  0.4984754361248207  1.0000
  O   O11       1.0  0.9009119161089598  0.5977235106226432  0.07775866426508321  1.0000
  O   O12       1.0  0.5761383850734133  0.5993003942480043  0.9206337133535669  1.0000
  O   O13       1.0  0.4120704089115179  0.4098173849599789  0.9163802654435643  1.0000
  O   O14       1.0  0.07077704291467059  0.40590532325656886  0.08091059708028331  1.0000
  O   O15       1.0  0.08192780796584033  0.4035884260299838  0.9201048731984756  1.0000
  O   O16       1.0  0.40192561837628205  0.40250730974746324  0.07718209116193013  1.0000
  O   O17       1.0  0.569820656153908  0.5962102192289721  0.0823601876266125  1.0000
  O   O18       1.0  0.9065134658699492  0.594271009317275  0.9169450082687618  1.0000
  O   O19       1.0  0.2384731669972808  0.5652975374210953  0.9999355565533464  1.0000
  O   O20       1.0  0.740314961449812  0.4374345914942097  0.9994637612639539  1.0000
  O   O21       1.0  0.3107869376524092  0.8961931782762492  0.7063557677960262  1.0000
  O   O22       1.0  0.30979532576992597  0.7506213835137532  0.6348845901688094  1.0000
  O   O23       1.0  0.8210086899283696  0.10629079413457991  0.2982122831689296  1.0000
  O   O24       1.0  0.8063339646451764  0.2536002736787283  0.3674285274757239  1.0000
  O   O25       1.0  0.6823065833647491  0.1097551395372349  0.6996856978696756  1.0000
  O   O26       1.0  0.6963329578201253  0.2610340801813464  0.6354800145365261  1.0000
  O   O27       1.0  0.3212599100749927  0.7668960359675056  0.3691823815521502  1.0000
  O   O28       1.0  0.31584995982129277  0.9027445612616916  0.28780588518013434  1.0000
