data_image0
_chemical_formula_structural       Cu2H16C22N6
_chemical_formula_sum              "Cu2 H16 C22 N6"
_cell_length_a       9.344513619186989
_cell_length_b       12.74305254766311
_cell_length_c       13.032560374434947
_cell_angle_alpha    74.79644660192602
_cell_angle_beta     72.96661674297559
_cell_angle_gamma    70.29766178015332

_space_group_name_H-M_alt    "P 1"
_space_group_IT_number       1

loop_
  _space_group_symop_operation_xyz
  'x, y, z'

loop_
  _atom_site_type_symbol
  _atom_site_label
  _atom_site_symmetry_multiplicity
  _atom_site_fract_x
  _atom_site_fract_y
  _atom_site_fract_z
  _atom_site_occupancy
  Cu  Cu1       1.0  0.7525991986884295  0.4597318324131903  0.053219207321397705  1.0000
  Cu  Cu2       1.0  0.24740631597115487  0.5402670892322021  0.9467638516749235  1.0000
  H   H1        1.0  0.1156983098612018  0.5941661563090788  0.7342453831917838  1.0000
  H   H2        1.0  0.22342852480511527  0.5797479934810424  0.5401768760157992  1.0000
  H   H3        1.0  0.6806457016896275  0.4371504119576669  0.6151416367181215  1.0000
  H   H4        1.0  0.5504128263551635  0.4641726470713506  0.8070806642434437  1.0000
  H   H5        1.0  0.8369994433833841  0.9401337542545389  0.9299807876078675  1.0000
  H   H6        1.0  0.954009169716784  0.745106975019162  0.8949841387269475  1.0000
  H   H7        1.0  0.3529362439018728  0.7079024786623832  0.9935212947273941  1.0000
  H   H8        1.0  0.25409150004204434  0.9043199525919261  0.033808951788820686  1.0000
  H   H9        1.0  0.8842946252805179  0.40583074716248985  0.2657615496462853  1.0000
  H   H10       1.0  0.7765603413591222  0.42025066262517896  0.4598243447192092  1.0000
  H   H11       1.0  0.31936096223499544  0.5628738543460796  0.3848464330438617  1.0000
  H   H12       1.0  0.4496013981082498  0.5358354463208314  0.1929159400942311  1.0000
  H   H13       1.0  0.16302898331755963  0.05987222259427937  0.06998417995895072  1.0000
  H   H14       1.0  0.04598830083573808  0.2548925659120868  0.10501581355713803  1.0000
  H   H15       1.0  0.6470388243516683  0.2920804038877377  0.006520498058186817  1.0000
  H   H16       1.0  0.7458884853858764  0.09567583651445226  0.9662171058160783  1.0000
  C   C1        1.0  0.24122275667932777  0.5603275794092256  0.7041027436002738  1.0000
  C   C2        1.0  0.3029153243061772  0.5512498600792596  0.5949075446631512  1.0000
  C   C3        1.0  0.4645059565507522  0.5060121872103592  0.5576738163289789  1.0000
  C   C4        1.0  0.5545720962844386  0.4730938199166485  0.6363123376576354  1.0000
  C   C5        1.0  0.48422215340213637  0.4863274624144365  0.7437862870426741  1.0000
  C   C6        1.0  0.9667406445935286  0.057849869248776976  0.012643141722001918  1.0000
  C   C7        1.0  0.048271139417579434  0.10631503631275756  0.053765815162421404  1.0000
  C   C8        1.0  0.9825853291260032  0.21619273388697735  0.07433054278907045  1.0000
  C   C9        1.0  0.23924487491585472  0.7646064955570891  0.980500711928791  1.0000
  C   C10       1.0  0.18163897396507178  0.8738575476936887  0.003086833525678447  1.0000
  C   C11       1.0  0.5650579082596751  0.49669290040456093  0.006726313422930675  1.0000
  C   C12       1.0  0.7587748093140901  0.43967452879616786  0.29589502002713897  1.0000
  C   C13       1.0  0.6970828194669139  0.44875645074439047  0.40509289621146394  1.0000
  C   C14       1.0  0.5354916424830733  0.49399832977623254  0.4423287706529423  1.0000
  C   C15       1.0  0.4454274678284024  0.526911705413141  0.36368339299404084  1.0000
  C   C16       1.0  0.5157844603471275  0.5136772315767145  0.25620969457121845  1.0000
  C   C17       1.0  0.03325300389997232  0.9421480001033654  0.987354193714559  1.0000
  C   C18       1.0  0.9517425024953283  0.89369159046376  0.9462120903575485  1.0000
  C   C19       1.0  0.017417479266193144  0.7838102604036619  0.925665127462928  1.0000
  C   C20       1.0  0.7607389392983919  0.2353852173593721  0.019513265560327446  1.0000
  C   C21       1.0  0.8183490333006276  0.12613765962204573  0.9969192568105998  1.0000
  C   C22       1.0  0.4349598976386205  0.503303349358653  0.9932701562354753  1.0000
  N   N1        1.0  0.32910681398774244  0.5290080395505184  0.7781718452655683  1.0000
  N   N2        1.0  0.8416936058242044  0.28105980382978396  0.05718134678719623  1.0000
  N   N3        1.0  0.062078477444878016  0.5042434898395098  0.9875018238675823  1.0000
  N   N4        1.0  0.6709035661473735  0.47099841975776957  0.2218190682437254  1.0000
  N   N5        1.0  0.15828565034646402  0.7189377741462265  0.9428367496582768  1.0000
  N   N6        1.0  0.9379341881533281  0.495729036666752  0.012494681855066976  1.0000
