data_image0
_chemical_formula_structural       Al2H22C24O12
_chemical_formula_sum              "Al2 H22 C24 O12"
_cell_length_a       6.650368831979532
_cell_length_b       11.014247674327772
_cell_length_c       15.293707367180318
_cell_angle_alpha    85.77571436195892
_cell_angle_beta     77.57116058234527
_cell_angle_gamma    72.38022811661553

_space_group_name_H-M_alt    "P 1"
_space_group_IT_number       1

loop_
  _space_group_symop_operation_xyz
  'x, y, z'

loop_
  _atom_site_type_symbol
  _atom_site_label
  _atom_site_symmetry_multiplicity
  _atom_site_fract_x
  _atom_site_fract_y
  _atom_site_fract_z
  _atom_site_occupancy
  Al  Al1       1.0  0.5060188936144315  0.4948638728906045  0.49855349294259105  1.0000
  Al  Al2       1.0  0.9995239502711046  0.5038296489325731  0.5015096809944026  1.0000
  H   H1        1.0  0.2833705315273107  0.36127999786719306  0.5654673483434962  1.0000
  H   H2        1.0  0.7040309141293333  0.6428573628987027  0.44205036721798063  1.0000
  H   H3        1.0  0.8420329976205707  0.604303763946632  0.7786628785647596  1.0000
  H   H4        1.0  0.05057951629599711  0.5283802122718626  0.23223326468176714  1.0000
  H   H5        1.0  0.731236436616527  0.4086980260132904  0.2257991826523381  1.0000
  H   H6        1.0  0.8019852406654238  0.41306241979555125  0.058222267889910036  1.0000
  H   H7        1.0  0.3704592139211656  0.4162270690257017  0.7644788420958692  1.0000
  H   H8        1.0  0.291116609777582  0.39707843714500496  0.931133523607109  1.0000
  H   H9        1.0  0.08460968291255021  0.8847777189404764  0.3556886107708693  1.0000
  H   H10       1.0  0.828766836628162  0.895376518490714  0.4234350064001263  1.0000
  H   H11       1.0  0.746965582412315  0.117333795989623  0.4076501173251971  1.0000
  H   H12       1.0  0.01581283872062761  0.10548145383170748  0.3544721970314697  1.0000
  H   H13       1.0  0.6501538013340779  0.1029348835920061  0.5758103754197635  1.0000
  H   H14       1.0  0.8307159033378396  0.11423032014857881  0.642347135395106  1.0000
  H   H15       1.0  0.777777594064887  0.8810500306054292  0.5912615937832372  1.0000
  H   H16       1.0  0.9835312581233849  0.8937369706846923  0.643368417905606  1.0000
  H   H17       1.0  0.38524346169109  0.8975491204282874  0.4308519914117781  1.0000
  H   H18       1.0  0.3562170720557774  0.88276681958844  0.5479447616710331  1.0000
  H   H19       1.0  0.21511569586321846  0.10346915372511493  0.5658036304443074  1.0000
  H   H20       1.0  0.28506535163901253  0.11855919731444689  0.4487082537939814  1.0000
  H   H21       1.0  0.8793581865597278  0.6353863612442651  0.9207916889662189  1.0000
  H   H22       1.0  0.9512973615894322  0.5666793725037494  0.09508367454765224  1.0000
  C   C1        1.0  0.8699870630706529  0.2685830415483821  0.4996415334955771  1.0000
  C   C2        1.0  0.6673624678121046  0.5139462951002259  0.6621505863436853  1.0000
  C   C3        1.0  0.144204095128906  0.7306590590444839  0.49927518000647103  1.0000
  C   C4        1.0  0.3383468436988864  0.476811357513256  0.3382943551635762  1.0000
  C   C5        1.0  0.61196834173186  0.5103632034891274  0.761920001580215  1.0000
  C   C6        1.0  0.3863522463700237  0.47045442455764425  0.2385489122728545  1.0000
  C   C7        1.0  0.7194161814485015  0.560087081635693  0.81273818739448  1.0000
  C   C8        1.0  0.6672360286543225  0.5551409421604491  0.9061334273085679  1.0000
  C   C9        1.0  0.2154219852202673  0.5045868176703153  0.1932739237900165  1.0000
  C   C10       1.0  0.25505382825236483  0.5128755689923139  0.0999438911275234  1.0000
  C   C11       1.0  0.5992163284970858  0.437372935897443  0.1898049439779115  1.0000
  C   C12       1.0  0.6372175688607273  0.44170191769659084  0.09678296952143481  1.0000
  C   C13       1.0  0.4535198047867013  0.45401073987242313  0.8049644796283959  1.0000
  C   C14       1.0  0.4087651854340067  0.44484745746547816  0.8978590988348715  1.0000
  C   C15       1.0  0.5138727841976165  0.4942198075547991  0.9507708157636544  1.0000
  C   C16       1.0  0.4683011722097136  0.4826578879580126  0.04954758950841408  1.0000
  C   C17       1.0  0.972927923135259  0.9269051999617446  0.41736971529448413  1.0000
  C   C18       1.0  0.9156478098972941  0.07400182186437829  0.41336022212954054  1.0000
  C   C19       1.0  0.9516185346366941  0.12403642508103731  0.49877757675034934  1.0000
  C   C20       1.0  0.820532457249264  0.07195371501866532  0.5810474936068104  1.0000
  C   C21       1.0  0.908360356438777  0.9248496429094643  0.5848962306172256  1.0000
  C   C22       1.0  0.07774501799777088  0.8753933758151927  0.4988665538141817  1.0000
  C   C23       1.0  0.2702617227848024  0.9269317736370866  0.4944466991168924  1.0000
  C   C24       1.0  0.19188114834247472  0.07382598390545068  0.5024556562292661  1.0000
  O   O1        1.0  0.674726113137396  0.319723747316253  0.4926464677680684  1.0000
  O   O2        1.0  0.8490271823694118  0.5296917055869557  0.6252907786492159  1.0000
  O   O3        1.0  0.9994720420952702  0.6781311170469451  0.4961496245394842  1.0000
  O   O4        1.0  0.48966193908997013  0.4827042204402615  0.37525927187582653  1.0000
  O   O5        1.0  0.3390650874361541  0.6712794649447673  0.5021229873015045  1.0000
  O   O6        1.0  0.14757324065607244  0.4805664296252631  0.3781268044796279  1.0000
  O   O7        1.0  0.9992561193739959  0.32915791905789155  0.50878489538448  1.0000
  O   O8        1.0  0.5288174265775042  0.4978886019091746  0.6216945990683911  1.0000
  O   O9        1.0  0.25823034287543595  0.4467021674327114  0.5405257628101979  1.0000
  O   O10       1.0  0.7445291527012188  0.5538846636712121  0.45985984494473814  1.0000
  O   O11       1.0  0.7588352432087009  0.6108977520789692  0.9578619971632705  1.0000
  O   O12       1.0  0.09045821407044506  0.553800961444658  0.05416398236095431  1.0000
