data_image0
_chemical_formula_structural       Fe3H14C20N4O16
_chemical_formula_sum              "Fe3 H14 C20 N4 O16"
_cell_length_a       6.425437271716385
_cell_length_b       9.4011794492555
_cell_length_c       10.243507905580335
_cell_angle_alpha    108.21035810421736
_cell_angle_beta     91.44025785863953
_cell_angle_gamma    101.60995473866213

_space_group_name_H-M_alt    "P 1"
_space_group_IT_number       1

loop_
  _space_group_symop_operation_xyz
  'x, y, z'

loop_
  _atom_site_type_symbol
  _atom_site_label
  _atom_site_symmetry_multiplicity
  _atom_site_fract_x
  _atom_site_fract_y
  _atom_site_fract_z
  _atom_site_occupancy
  Fe  Fe1       1.0  0.29197325612651076  0.18500528317706263  0.6579687073020112  1.0000
  Fe  Fe2       1.0  0.7080277320862225  0.8149934971488835  0.34202985086904664  1.0000
  Fe  Fe3       1.0  0.4999998981579239  0.4999999701256144  0.5000004112316391  1.0000
  H   H1        1.0  0.3325226585686352  0.22707904359458556  0.12430561281129125  1.0000
  H   H2        1.0  0.66747210984812  0.7729197485673893  0.8756938363641994  1.0000
  H   H3        1.0  0.12490951825625982  0.6610152947699603  0.0213035372461762  1.0000
  H   H4        1.0  0.8750902727008311  0.33898464032525066  0.9786963074384617  1.0000
  H   H5        1.0  0.15362251712871003  0.7534171234014054  0.5957677350583099  1.0000
  H   H6        1.0  0.8463757282572147  0.2465828236758369  0.40423404349004255  1.0000
  H   H7        1.0  0.7287273045359228  0.34901045329402797  0.5944035943536434  1.0000
  H   H8        1.0  0.27127248106241103  0.6509894766451794  0.4055952725523755  1.0000
  H   H9        1.0  0.8978119826344797  0.5038302393022107  0.6117109160906652  1.0000
  H   H10       1.0  0.10218625739268823  0.4961697026190209  0.38828988467905406  1.0000
  H   H11       1.0  0.2513085933379459  0.49845895591055744  0.7161646566077311  1.0000
  H   H12       1.0  0.7486927592665895  0.5015409826706616  0.28383618754909185  1.0000
  H   H13       1.0  0.4837949294786271  0.4818390056519064  0.7614615719460219  1.0000
  H   H14       1.0  0.5162048614784638  0.5181609294433118  0.238538272738623  1.0000
  C   C1        1.0  0.26585119235169696  0.06933172193872392  0.852842549139176  1.0000
  C   C2        1.0  0.7341456329783328  0.9306636282094801  0.14715692991651974  1.0000
  C   C3        1.0  0.24862937820129363  0.007532641178237002  0.9656248266688651  1.0000
  C   C4        1.0  0.7513664458795548  0.9924695896575033  0.03437463601352433  1.0000
  C   C5        1.0  0.2883938444927381  0.10353997291709052  0.10268487413819832  1.0000
  C   C6        1.0  0.7116005648909721  0.8964576661456152  0.8973132668301604  1.0000
  C   C7        1.0  0.2709955684465939  0.0430358824441512  0.21074061474349293  1.0000
  C   C8        1.0  0.7290092450508326  0.9569651955843099  0.7892596254502993  1.0000
  C   C9        1.0  0.21145366904746515  0.8816130124659339  0.18152726423185345  1.0000
  C   C10       1.0  0.7885445763384595  0.11838693461130842  0.8184745143164989  1.0000
  C   C11       1.0  0.17142423165460496  0.7851299707283418  0.045398987693360565  1.0000
  C   C12       1.0  0.8285743674056079  0.21487112429215222  0.9546031212834979  1.0000
  C   C13       1.0  0.18889360931924412  0.8463381107473681  0.9361834953970745  1.0000
  C   C14       1.0  0.81110583868108  0.1536606867166128  0.06381797441631681  1.0000
  C   C15       1.0  0.14600700770587594  0.7488298957861802  0.7931157578991093  1.0000
  C   C16       1.0  0.8539915913543368  0.25117119923432096  0.20688635107774905  1.0000
  C   C17       1.0  0.31626400673230387  0.15122785222837362  0.3547024173281842  1.0000
  C   C18       1.0  0.6837369814804218  0.8487709280975724  0.6452961408428736  1.0000
  C   C19       1.0  0.19392456106728428  0.8104817000997003  0.2946735467037913  1.0000
  C   C20       1.0  0.8060780048691712  0.18951709918027862  0.7053289442753227  1.0000
  N   N1        1.0  0.2303278722172949  0.9761866724951673  0.721525330755654  1.0000
  N   N2        1.0  0.7696731159954313  0.023812107830771402  0.27847322741540387  1.0000
  N   N3        1.0  0.17151008769373993  0.8218706063464012  0.6976128243420378  1.0000
  N   N4        1.0  0.8284893603065911  0.17812819111757966  0.3023886454713535  1.0000
  O   O1        1.0  0.3150371895517808  0.2146113925952022  0.8685807139536836  1.0000
  O   O2        1.0  0.6849660622982087  0.785389681947251  0.13141852676793067  1.0000
  O   O3        1.0  0.08539687277997395  0.6018813790200072  0.7545967838427645  1.0000
  O   O4        1.0  0.9146051925318944  0.39812086060374  0.24540569894969624  1.0000
  O   O5        1.0  0.37667078012871985  0.2930346428313514  0.3683517655045848  1.0000
  O   O6        1.0  0.6233267525498789  0.7069630032033629  0.6316483744081297  1.0000
  O   O7        1.0  0.2915234787457308  0.09622664833500488  0.45362509534127327  1.0000
  O   O8        1.0  0.7084813240341818  0.903774419381435  0.5463731892952668  1.0000
  O   O9        1.0  0.3578540193205342  0.7661019228991535  0.32780217299797  1.0000
  O   O10       1.0  0.6421471756161665  0.2339025936570778  0.6721970378434534  1.0000
  O   O11       1.0  0.019959555983383802  0.7843167754538243  0.3464794610323311  1.0000
  O   O12       1.0  0.9800395383426591  0.21568087406689784  0.6535216783525541  1.0000
  O   O13       1.0  0.7782037609803751  0.42832010240773855  0.5467608529121295  1.0000
  O   O14       1.0  0.22179949622837117  0.5716809772907255  0.45323936558811795  1.0000
  O   O15       1.0  0.36927214621172066  0.4387716849605567  0.686472927190515  1.0000
  O   O16       1.0  0.6307292063928218  0.5612282536206693  0.3135279169663009  1.0000
