data_image0
_chemical_formula_structural       Zn6H56C48N28O8
_chemical_formula_sum              "Zn6 H56 C48 N28 O8"
_cell_length_a       10.679381604026075
_cell_length_b       11.702648010372192
_cell_length_c       12.188422846744777
_cell_angle_alpha    103.76773647210085
_cell_angle_beta     90.0002262890343
_cell_angle_gamma    90.00005432862254

_space_group_name_H-M_alt    "P 1"
_space_group_IT_number       1

loop_
  _space_group_symop_operation_xyz
  'x, y, z'

loop_
  _atom_site_type_symbol
  _atom_site_label
  _atom_site_symmetry_multiplicity
  _atom_site_fract_x
  _atom_site_fract_y
  _atom_site_fract_z
  _atom_site_occupancy
  Zn  Zn1       1.0  0.3866325956897184  0.9073709628269812  0.5025939635497778  1.0000
  Zn  Zn2       1.0  0.3866342260426308  0.0926297458030092  0.9974055383978281  1.0000
  Zn  Zn3       1.0  0.6133643956078884  0.0926273818528145  0.49740303871177366  1.0000
  Zn  Zn4       1.0  0.6133637016497672  0.9073721186814224  0.002595549329875305  1.0000
  Zn  Zn5       1.0  0.5578781332946859  0.9999992915562997  0.7499993766103117  1.0000
  Zn  Zn6       1.0  0.44211979439131704  0.9999999332412134  0.24999946750773472  1.0000
  H   H1        1.0  0.4830827924087727  0.3027684037775842  0.5762709063099507  1.0000
  H   H2        1.0  0.48308190265740336  0.6972289629464401  0.9237265264991663  1.0000
  H   H3        1.0  0.5169188808125327  0.6972273022150546  0.42372877528259784  1.0000
  H   H4        1.0  0.516917897799864  0.3027720215887726  0.07627353986609361  1.0000
  H   H5        1.0  0.3384594538735398  0.47047929106034314  0.6287957114465215  1.0000
  H   H6        1.0  0.33845721967616527  0.529521328545769  0.8712019620417948  1.0000
  H   H7        1.0  0.6615431557278484  0.5295181740055029  0.37120191043705836  1.0000
  H   H8        1.0  0.6615444535450264  0.4704796556593466  0.1287964633499286  1.0000
  H   H9        1.0  0.11401770831714941  0.4361680955788074  0.6762727008737741  1.0000
  H   H10       1.0  0.11401435957810692  0.5638338708886722  0.8237269623770657  1.0000
  H   H11       1.0  0.8859858376735017  0.5638328887939467  0.32372654501018877  1.0000
  H   H12       1.0  0.8859873136431206  0.43616535391228684  0.17627188174827071  1.0000
  H   H13       1.0  0.0439114796173214  0.23422216921352404  0.6736453906104387  1.0000
  H   H14       1.0  0.04391115897848859  0.7657796685204519  0.8263556407922722  1.0000
  H   H15       1.0  0.9560892572283419  0.7657796954394062  0.3263565176113232  1.0000
  H   H16       1.0  0.9560858323282987  0.23422043639305207  0.1736450451786311  1.0000
  H   H17       1.0  0.06484698272043939  0.04491257936598459  0.6429552169092076  1.0000
  H   H18       1.0  0.06484793054966789  0.9550884161316873  0.8570407721612625  1.0000
  H   H19       1.0  0.9351537541243571  0.9550866460977476  0.3570469091686662  1.0000
  H   H20       1.0  0.9351509335237863  0.0449125684026583  0.1429592942021785  1.0000
  H   H21       1.0  0.06118985854420339  0.8470660954508703  0.6338684497374061  1.0000
  H   H22       1.0  0.061190960816944084  0.15293489381177494  0.8661299865667756  1.0000
  H   H23       1.0  0.9388099419149042  0.15293488925024695  0.36613243711644833  1.0000
  H   H24       1.0  0.938809776022282  0.8470660905583927  0.13386925931172297  1.0000
  H   H25       1.0  0.07395710348439619  0.8220124723538403  0.48459218544611093  1.0000
  H   H26       1.0  0.0739604008750803  0.17798779501755746  0.015406346133410407  1.0000
  H   H27       1.0  0.9260426969738093  0.17798763256224248  0.5154085005302562  1.0000
  H   H28       1.0  0.9260403359659507  0.8220149489226785  0.9845933015000696  1.0000
  H   H29       1.0  0.25158472744357135  0.7275011785187006  0.6386724584122376  1.0000
  H   H30       1.0  0.2515859307717108  0.27250104121884533  0.861327740214655  1.0000
  H   H31       1.0  0.7484160093965926  0.2724989262323376  0.3613274070773613  1.0000
  H   H32       1.0  0.7484148060684177  0.7275008229363564  0.13867170654133082  1.0000
  H   H33       1.0  0.15021250927243557  0.5483257196492772  0.5711383034551574  1.0000
  H   H34       1.0  0.15021232710711976  0.4516754338379272  0.9288621202716173  1.0000
  H   H35       1.0  0.849787291185777  0.4516743852668057  0.4288623825212028  1.0000
  H   H36       1.0  0.8497884097348559  0.5483264304831794  0.07113814697296311  1.0000
  H   H37       1.0  0.0260507708918141  0.6284819285557576  0.5284729348076382  1.0000
  H   H38       1.0  0.026051634625339697  0.37151723694199035  0.9715274244566814  1.0000
  H   H39       1.0  0.9739490295709815  0.3715190564771832  0.47152959302339786  1.0000
  H   H40       1.0  0.9739481658310255  0.6284828678081881  0.028472441031091523  1.0000
  H   H41       1.0  0.10886692148456228  0.5977950702818688  0.33857571161566113  1.0000
  H   H42       1.0  0.10887016865736848  0.4022035019555616  0.1614233745553051  1.0000
  H   H43       1.0  0.8911310062051283  0.40220415484746047  0.6614247734795667  1.0000
  H   H44       1.0  0.891129631797149  0.597796602628705  0.8385756704438805  1.0000
  H   H45       1.0  0.158334208784126  0.4638596504017516  0.370729028037708  1.0000
  H   H46       1.0  0.1583393216183353  0.5361407729762677  0.12927311386863496  1.0000
  H   H47       1.0  0.841662782525411  0.5361413344626911  0.6292726792992696  1.0000
  H   H48       1.0  0.8416604788407795  0.46386021172485664  0.8707277729852264  1.0000
  H   H49       1.0  0.3659184919327529  0.543828436467173  0.42643614530763335  1.0000
  H   H50       1.0  0.36592233601910346  0.4561714894607506  0.07356742405951883  1.0000
  H   H51       1.0  0.6340794357587781  0.45617078882806095  0.5735651602761891  1.0000
  H   H52       1.0  0.6340774644400042  0.5438294952403667  0.9264334627943427  1.0000
  H   H53       1.0  0.3338508715790027  0.6123146188090091  0.3126676536586359  1.0000
  H   H54       1.0  0.3338523475233827  0.3876826083921614  0.18733354729724994  1.0000
  H   H55       1.0  0.6661470561097856  0.38768372653527894  0.687332630559105  1.0000
  H   H56       1.0  0.6661465165482666  0.6123166165721232  0.812666117311217  1.0000
  C   C1        1.0  0.3486882749029974  0.17121804300154514  0.5922140498368407  1.0000
  C   C2        1.0  0.3486893212042688  0.8287808357032347  0.9077824412216131  1.0000
  C   C3        1.0  0.6513124619417994  0.8287811824621869  0.4077880762410331  1.0000
  C   C4        1.0  0.6513114156313121  0.1712183889309529  0.09221558241331002  1.0000
  C   C5        1.0  0.38624950837586886  0.28794522320888666  0.5966505806855196  1.0000
  C   C6        1.0  0.38624947863124953  0.7120554843824749  0.9033472787908181  1.0000
  C   C7        1.0  0.6137531012347351  0.7120522426864966  0.403351143641018  1.0000
  C   C8        1.0  0.6137512582052266  0.28794462003674687  0.09665094572159211  1.0000
  C   C9        1.0  0.30422240082825164  0.38188049598536367  0.6259114228286293  1.0000
  C   C10       1.0  0.3042212068504284  0.6181174212349418  0.8740855147894919  1.0000
  C   C11       1.0  0.6957792723893235  0.6181169690796154  0.3740861990531315  1.0000
  C   C12       1.0  0.6957795299833052  0.3818818032333412  0.1259116883568367  1.0000
  C   C13       1.0  0.17944837422179918  0.3631851988657432  0.6533324990304621  1.0000
  C   C14       1.0  0.17944613981031668  0.6368151279951989  0.8466645556371759  1.0000
  C   C15       1.0  0.8205523626192744  0.6368157856703291  0.346667567336624  1.0000
  C   C16       1.0  0.8205545970225144  0.36318321668805  0.1533324466316657  1.0000
  C   C17       1.0  0.14003123437735346  0.25014454586142426  0.6508731974704247  1.0000
  C   C18       1.0  0.14003006335045134  0.7498557085980196  0.8491245242888752  1.0000
  C   C19       1.0  0.8599695024683099  0.7498573187915056  0.3491287107513372  1.0000
  C   C20       1.0  0.8599688007193577  0.250143516200353  0.1508743198309972  1.0000
  C   C21       1.0  0.22094778369987716  0.15205907652909906  0.6194307991973957  1.0000
  C   C22       1.0  0.22094685457845029  0.8479395673308051  0.880566835708926  1.0000
  C   C23       1.0  0.7790529531449195  0.8479401489346332  0.38057132688047807  1.0000
  C   C24       1.0  0.7790510731057053  0.15205965730079646  0.1194311879205259  1.0000
  C   C25       1.0  0.1627851678515455  0.0394310952704018  0.6130602482809167  1.0000
  C   C26       1.0  0.16278438287679356  0.9605674410124153  0.8869346988094692  1.0000
  C   C27       1.0  0.837215568990466  0.9605690096465411  0.38694043769727676  1.0000
  C   C28       1.0  0.8372154175768217  0.0394317837868172  0.11306414531222228  1.0000
  C   C29       1.0  0.12841175060596297  0.8341398928065189  0.563367834913258  1.0000
  C   C30       1.0  0.1284131829592852  0.1658603404293402  0.9366306621203505  1.0000
  C   C31       1.0  0.8715880498513044  0.16586109172869365  0.43663223145200897  1.0000
  C   C32       1.0  0.8715866174979823  0.8341406441058722  0.06336940424491636  1.0000
  C   C33       1.0  0.20449286469428776  0.723004180735295  0.5574875623631287  1.0000
  C   C34       1.0  0.2044953738537599  0.2769970725205867  0.9425122521222136  1.0000
  C   C35       1.0  0.7955059993791663  0.27699680379905806  0.44251250400031233  1.0000
  C   C36       1.0  0.7955044266035003  0.7230039120146259  0.057487814243046435  1.0000
  C   C37       1.0  0.12685901314355869  0.6102009050491617  0.5196364617805571  1.0000
  C   C38       1.0  0.126861808106014  0.38979932566112313  0.9803636701901225  1.0000
  C   C39       1.0  0.8731389145479368  0.38980007965023583  0.48036442506965926  1.0000
  C   C40       1.0  0.873138928734157  0.6102007790899152  0.019636195299469316  1.0000
  C   C41       1.0  0.16596677976259852  0.5601150026357972  0.3961877797061605  1.0000
  C   C42       1.0  0.1659707430690318  0.43988455467615495  0.10381255004681832  1.0000
  C   C43       1.0  0.8340302115460289  0.43988510244361123  0.6038137267533301  1.0000
  C   C44       1.0  0.8340290573891734  0.5601155502399353  0.8961881359295489  1.0000
  C   C45       1.0  0.30071149176556833  0.60178221185452  0.39495380198965085  1.0000
  C   C46       1.0  0.3007154178818823  0.39821583428904744  0.10504829136912266  1.0000
  C   C47       1.0  0.6992864359232202  0.3982161334897683  0.605046482228083  1.0000
  C   C48       1.0  0.699283446192517  0.6017842706261761  0.8949523946054184  1.0000
  N   N1        1.0  0.21001767281139647  0.9361367984546616  0.5727752809773463  1.0000
  N   N2        1.0  0.2100198946543799  0.06386622421057811  0.9272233157860441  1.0000
  N   N3        1.0  0.7899830640297194  0.0638624266772467  0.42722520412334575  1.0000
  N   N4        1.0  0.7899808421848459  0.9361347601595899  0.07277593009245463  1.0000
  N   N5        1.0  0.47227737083283455  0.8649640374327132  0.6471349250626374  1.0000
  N   N6        1.0  0.4722802678990661  0.13503594908854671  0.8528647093122358  1.0000
  N   N7        1.0  0.5277224296263084  0.13503518786424712  0.35286638052483005  1.0000
  N   N8        1.0  0.5277214053203209  0.8649632755465078  0.1471333143245062  1.0000
  N   N9        1.0  0.49631336651923874  0.7646803607051353  0.6521116233259576  1.0000
  N   N10       1.0  0.4963135349275019  0.2353135117354199  0.8478875189302286  1.0000
  N   N11       1.0  0.5036892430868178  0.23531446566924077  0.34788867787951006  1.0000
  N   N12       1.0  0.5036881382928583  0.7646830738763483  0.1521115430512268  1.0000
  N   N13       1.0  0.5158210069787613  0.668118424317143  0.6548425219905809  1.0000
  N   N14       1.0  0.5158231349328162  0.3318842815580183  0.8451570639847006  1.0000
  N   N15       1.0  0.4841816026299242  0.3318825602206559  0.3451575443801502  1.0000
  N   N16       1.0  0.48418041106057796  0.6681175827656745  0.15484320326535086  1.0000
  N   N17       1.0  0.32455747442935484  0.9167191367484908  0.33759755139217174  1.0000
  N   N18       1.0  0.32456227163603296  0.08327895230174683  0.1623997118377503  1.0000
  N   N19       1.0  0.6754395168719399  0.08327920826312152  0.6624010918465616  1.0000
  N   N20       1.0  0.6754431471167378  0.9167202721708424  0.8375974913176876  1.0000
  N   N21       1.0  0.22761167033088003  0.8733884906267024  0.2959425972152658  1.0000
  N   N22       1.0  0.22759890790586465  0.1266182191042375  0.2040628613818214  1.0000
  N   N23       1.0  0.772401239510664  0.12661601372434464  0.7040615546398427  1.0000
  N   N24       1.0  0.7723896559575675  0.8733889244135967  0.7959410725697965  1.0000
  N   N25       1.0  0.1341941675004108  0.8312434462806736  0.25716984707056423  1.0000
  N   N26       1.0  0.13420503211438015  0.1687534125243602  0.2428264744600739  1.0000
  N   N27       1.0  0.8658000146403211  0.1687513790904873  0.7428255311869663  1.0000
  N   N28       1.0  0.8658050685500881  0.8312440518847454  0.7571678654837158  1.0000
  O   O1        1.0  0.43135775104726554  0.08455436020003759  0.5654347704915423  1.0000
  O   O2        1.0  0.4313580702055616  0.9154455508184327  0.9345638841435502  1.0000
  O   O3        1.0  0.5686429857957265  0.9154431056936189  0.43456695383135713  1.0000
  O   O4        1.0  0.5686417302489558  0.084554553765841  0.0654351608556354  1.0000
  O   O5        1.0  0.3007557331357305  0.7177488713334627  0.4714384359753723  1.0000
  O   O6        1.0  0.300758260199231  0.2822518134158329  0.0285601577423691  1.0000
  O   O7        1.0  0.6992431309377238  0.2822521132008902  0.5285616303880687  1.0000
  O   O8        1.0  0.6992424766372524  0.7177482910033889  0.9714380667700412  1.0000
