data_image0
_chemical_formula_structural       K9H12C18N9O33
_chemical_formula_sum              "K9 H12 C18 N9 O33"
_cell_length_a       9.821697395076798
_cell_length_b       9.821707930085742
_cell_length_c       11.837828353378232
_cell_angle_alpha    89.99939696777012
_cell_angle_beta     90.00089894421397
_cell_angle_gamma    119.99983626377141

_space_group_name_H-M_alt    "P 1"
_space_group_IT_number       1

loop_
  _space_group_symop_operation_xyz
  'x, y, z'

loop_
  _atom_site_type_symbol
  _atom_site_label
  _atom_site_symmetry_multiplicity
  _atom_site_fract_x
  _atom_site_fract_y
  _atom_site_fract_z
  _atom_site_occupancy
  K   K1        1.0  0.9999975680858456  0.5508554506496991  0.16663601848735243  1.0000
  K   K2        1.0  0.4491352550815934  0.44913554782189646  0.5000039884007988  1.0000
  K   K3        1.0  0.5508577299483052  0.9999964393633505  0.8333615299158053  1.0000
  K   K4        1.0  0.64744329925707  0.16512805684509863  0.4730235302814093  1.0000
  K   K5        1.0  0.8348799660518154  0.4823072306958876  0.8063218285385714  1.0000
  K   K6        1.0  0.5176790861613016  0.35257421102158304  0.13967694212705337  1.0000
  K   K7        1.0  0.1651304384066209  0.6474463276754322  0.5269749706808966  1.0000
  K   K8        1.0  0.4823096204950305  0.8348791149061229  0.19367606401515045  1.0000
  K   K9        1.0  0.35257479851723883  0.5176826305857675  0.8603225271468771  1.0000
  H   H1        1.0  0.27577815174511494  0.43709985397769907  0.24262884771275842  1.0000
  H   H2        1.0  0.5628839179346132  0.8386773708934498  0.5759764216715337  1.0000
  H   H3        1.0  0.1613184141599719  0.7242172653012064  0.9093023369628738  1.0000
  H   H4        1.0  0.4371008398157201  0.27577868006493833  0.7573694396714143  1.0000
  H   H5        1.0  0.8386754749449209  0.562883423345262  0.4240233411122602  1.0000
  H   H6        1.0  0.7242196842458668  0.16132025212468912  0.09069632032139908  1.0000
  H   H7        1.0  0.22372377706238222  0.44465409513357923  0.1194141533634792  1.0000
  H   H8        1.0  0.555361002246741  0.7790891779987205  0.4527597762526268  1.0000
  H   H9        1.0  0.2209484180355688  0.7762878360701534  0.7860957780093684  1.0000
  H   H10       1.0  0.44465279937804064  0.2237302852326123  0.8805857281430676  1.0000
  H   H11       1.0  0.7790857754267722  0.5553614003581232  0.5472389979911438  1.0000
  H   H12       1.0  0.7762874115469033  0.2209485083156509  0.21390396331744901  1.0000
  C   C1        1.0  0.8702513839109546  0.9999898751819886  0.33335129083763343  1.0000
  C   C2        1.0  0.9999857006921505  0.8702518026624804  0.6666469417643126  1.0000
  C   C3        1.0  0.1297458272478806  0.12974225969899322  0.9999987276102399  1.0000
  C   C4        1.0  0.02249852546308522  0.14298151502603673  0.34421637308662406  1.0000
  C   C5        1.0  0.8570025765404953  0.8795170030372645  0.6775356367013713  1.0000
  C   C6        1.0  0.12048542921801443  0.9774917052467132  0.010850701618082296  1.0000
  C   C7        1.0  0.1429810411354566  0.0224991611053724  0.6557841205571221  1.0000
  C   C8        1.0  0.8795151835497566  0.8570042702400614  0.32246315417864924  1.0000
  C   C9        1.0  0.977497957050595  0.120485069843191  0.9891458765801883  1.0000
  C   C10       1.0  0.17250469854414524  0.1492371148559357  0.32712212599230367  1.0000
  C   C11       1.0  0.8507543465766787  0.023274134011735562  0.6604627241187727  1.0000
  C   C12       1.0  0.9767214184273316  0.8274951300100852  0.9937728556053141  1.0000
  C   C13       1.0  0.14923766717488018  0.17250624868525222  0.6728761681759463  1.0000
  C   C14       1.0  0.023271358143823376  0.8507533492954452  0.339535063741863  1.0000
  C   C15       1.0  0.827499642120401  0.9767246926347326  0.006228614589538498  1.0000
  C   C16       1.0  0.1693829113002961  0.9999991804595821  0.3333264539923134  1.0000
  C   C17       1.0  0.9999997375147628  0.16938621141574836  0.6666711218782237  1.0000
  C   C18       1.0  0.8306159336140911  0.8306153396643907  2.624238206300002e-06  1.0000
  N   N1        1.0  0.028573354612873893  0.2842596208354209  0.37234595507695173  1.0000
  N   N2        1.0  0.7157347304155623  0.7443224356915294  0.7056899647878012  1.0000
  N   N3        1.0  0.25568424424063363  0.9714130758540733  0.038999507609531685  1.0000
  N   N4        1.0  0.2842571332506481  0.02857187119611382  0.6276548542473461  1.0000
  N   N5        1.0  0.7443209364539316  0.7157357663715873  0.29430992331166544  1.0000
  N   N6        1.0  0.9714216712102867  0.2556849603803927  0.9610015709700971  1.0000
  N   N7        1.0  0.31200328133159166  3.3216567131723038e-06  0.3333249923314837  1.0000
  N   N8        1.0  2.9343185375244284e-06  0.31200507444035  0.666673280973171  1.0000
  N   N9        1.0  0.6880112031640381  0.6880095355047544  4.0082299648e-06  1.0000
  O   O1        1.0  0.7414689112007269  0.9999801956922172  0.33338339770811126  1.0000
  O   O2        1.0  0.9999783069220813  0.7414693564210778  0.6666162484873154  1.0000
  O   O3        1.0  0.25853499059638096  0.25852897965643956  0.9999964692862516  1.0000
  O   O4        1.0  0.9210120041301977  0.31225658198371053  0.3421484678874265  1.0000
  O   O5        1.0  0.687719403867142  0.608755459700447  0.6755007156473097  1.0000
  O   O6        1.0  0.39125994026139926  0.07899176232516686  0.008830679560858798  1.0000
  O   O7        1.0  0.312252078154721  0.9210090220017477  0.6578509343451343  1.0000
  O   O8        1.0  0.6087545623756371  0.6877199830350804  0.3244996667539012  1.0000
  O   O9        1.0  0.07899991749659568  0.39125723039205706  0.9911713118366661  1.0000
  O   O10       1.0  0.14227122811323065  0.3846894396360199  0.43107324430594207  1.0000
  O   O11       1.0  0.6153349025358709  0.7576074813785568  0.7644390490650392  1.0000
  O   O12       1.0  0.2424022859696252  0.8576995112940794  0.09771845802384146  1.0000
  O   O13       1.0  0.3846898607630891  0.14227014895737267  0.5689288685256528  1.0000
  O   O14       1.0  0.7576036709276011  0.6153336895636556  0.23556149714670474  1.0000
  O   O15       1.0  0.8577093092632783  0.24240899816455652  0.9022840379651951  1.0000
  O   O16       1.0  0.2972247331139926  0.2794863840794052  0.3098810310225416  1.0000
  O   O17       1.0  0.7205052558071047  0.017752563355756524  0.6432416810077156  1.0000
  O   O18       1.0  0.9822550898926535  0.7027808209080887  0.9765135138607018  1.0000
  O   O19       1.0  0.2794871408338651  0.2972263053541582  0.6901194988844209  1.0000
  O   O20       1.0  0.01775084062042253  0.7205077600231532  0.3567600397212657  1.0000
  O   O21       1.0  0.7027832217630278  0.9822563381476286  0.0234800982544954  1.0000
  O   O22       1.0  0.3223047662098822  0.8891804706006994  0.37939128099942815  1.0000
  O   O23       1.0  0.11082305810477788  0.4331281430305723  0.7127401997967481  1.0000
  O   O24       1.0  0.5668873235584614  0.6776903038620361  0.046071680665342285  1.0000
  O   O25       1.0  0.8891790245705167  0.3223048574544691  0.6206080745716419  1.0000
  O   O26       1.0  0.4331261571346161  0.11082308679353765  0.28725941516572817  1.0000
  O   O27       1.0  0.6776916310696209  0.5668878130412054  0.9539285905676989  1.0000
  O   O28       1.0  0.2572870207281  0.5047489276276735  0.19026747665419208  1.0000
  O   O29       1.0  0.4952527340735316  0.7525430294413482  0.5236069549092405  1.0000
  O   O30       1.0  0.24745845433262298  0.7426960477449923  0.8569452408446168  1.0000
  O   O31       1.0  0.5047477252916366  0.25728650136066716  0.8097334502833817  1.0000
  O   O32       1.0  0.7525397786929632  0.49525217029980684  0.47639247844350036  1.0000
  O   O33       1.0  0.7426967211498906  0.24745847194112253  0.14305448531793263  1.0000
