data_image0
_chemical_formula_structural       Nd2H16C16N2O18
_chemical_formula_sum              "Nd2 H16 C16 N2 O18"
_cell_length_a       6.691580246357836
_cell_length_b       8.151466524146764
_cell_length_c       10.454712772309968
_cell_angle_alpha    78.47440598381384
_cell_angle_beta     71.36442758655726
_cell_angle_gamma    85.7652493353184

_space_group_name_H-M_alt    "P 1"
_space_group_IT_number       1

loop_
  _space_group_symop_operation_xyz
  'x, y, z'

loop_
  _atom_site_type_symbol
  _atom_site_label
  _atom_site_symmetry_multiplicity
  _atom_site_fract_x
  _atom_site_fract_y
  _atom_site_fract_z
  _atom_site_occupancy
  Nd  Nd1       1.0  0.23031125517784556  0.3434537998345775  0.3181304288395452  1.0000
  Nd  Nd2       1.0  0.7696976155164635  0.6565529638622111  0.6818631160090616  1.0000
  H   H1        1.0  0.36855621394452953  0.8851966857751133  0.9317301756985116  1.0000
  H   H2        1.0  0.6314259401392306  0.11480389712968281  0.06827845017354411  1.0000
  H   H3        1.0  0.6271767418506472  0.2799819884650674  0.4076158426765986  1.0000
  H   H4        1.0  0.3728178917239404  0.7200285839609818  0.5923857472451031  1.0000
  H   H5        1.0  0.7515791197997786  0.29247746108839584  0.2520825748428307  1.0000
  H   H6        1.0  0.24842512346717172  0.7075218161900452  0.7479159932439144  1.0000
  H   H7        1.0  0.2636863542209725  0.6615250046970471  0.43564244361611054  1.0000
  H   H8        1.0  0.7363178602611457  0.3384768105054903  0.5643595480099748  1.0000
  H   H9        1.0  0.429003885716881  0.6591558772015916  0.29213413677346267  1.0000
  H   H10       1.0  0.5709940790848478  0.3408408714212356  0.7078632559314073  1.0000
  H   H11       1.0  0.3522627113061247  0.020126303216109396  0.7181557425521419  1.0000
  H   H12       1.0  0.6477431090655442  0.9798729738575389  0.28184250222749085  1.0000
  H   H13       1.0  0.23002807539049996  0.9878990734161094  0.13855366642935252  1.0000
  H   H14       1.0  0.7699557670642676  0.012092702593321297  0.8614512481087644  1.0000
  H   H15       1.0  0.0236460234234883  0.4324019173301821  0.9046313219782647  1.0000
  H   H16       1.0  0.9763409530042038  0.567591084985189  0.09536988307035446  1.0000
  C   C1        1.0  0.16009485705865958  0.32454737852314963  0.6585229391390398  1.0000
  C   C2        1.0  0.8399188009840729  0.675455670615463  0.3414750046980472  1.0000
  C   C3        1.0  0.17953186569836527  0.23803936209849752  0.7962458732341273  1.0000
  C   C4        1.0  0.8204754886007777  0.7619637216564926  0.20375718354738837  1.0000
  C   C5        1.0  0.280638917786355  0.0823946150473134  0.8049160130550699  1.0000
  C   C6        1.0  0.7193433689690352  0.9175959429006824  0.1950932425944244  1.0000
  C   C7        1.0  0.21122770598941537  0.06441100423567292  0.0449612854512225  1.0000
  C   C8        1.0  0.78877501620709  0.9355845593037629  0.9550429748524891  1.0000
  C   C9        1.0  0.11054651114770313  0.22387074244985433  0.044237791329010186  1.0000
  C   C10       1.0  0.8894405057530222  0.7761198064344582  0.9557695394701324  1.0000
  C   C11       1.0  0.09707363006735649  0.30838282232546277  0.9140277881563815  1.0000
  C   C12       1.0  0.9029289045920593  0.6916264885638767  0.08597142838902981  1.0000
  C   C13       1.0  0.899671766817484  0.0492429063955768  0.533870627259894  1.0000
  C   C14       1.0  0.10035623807586089  0.9507488892275618  0.4661280994658056  1.0000
  C   C15       1.0  0.5444878760154666  0.4117511945073531  0.9889264250476654  1.0000
  C   C16       1.0  0.4554956796906994  0.5882618496819062  0.011073212131329098  1.0000
  N   N1        1.0  0.29149475603233554  0.002908402017538898  0.9284285343863699  1.0000
  N   N2        1.0  0.7085048609760773  0.9970833972918668  0.07157601186750644  1.0000
  O   O1        1.0  0.24746992489920672  0.25278653725574424  0.5571786083192194  1.0000
  O   O2        1.0  0.7525422003848805  0.747212713650832  0.44281547844496305  1.0000
  O   O3        1.0  0.0559235493293926  0.46064014813332216  0.6528980764112402  1.0000
  O   O4        1.0  0.9440714534752672  0.5393428873464005  0.3471088263821116  1.0000
  O   O5        1.0  0.03875269604774449  0.28759493071126485  0.15613703874323898  1.0000
  O   O6        1.0  0.9612091062451851  0.712394386284899  0.8438775729161064  1.0000
  O   O7        1.0  0.760697530129349  0.9728645958916502  0.6365937989894163  1.0000
  O   O8        1.0  0.2393160170136568  0.027145889583849198  0.36339436195696345  1.0000
  O   O9        1.0  0.8935118457175194  0.2028701031225069  0.47834361046859175  1.0000
  O   O10       1.0  0.10650825027583008  0.7971215245385324  0.521637634212972  1.0000
  O   O11       1.0  0.49663413154753033  0.29466583404331465  0.09385115412956672  1.0000
  O   O12       1.0  0.5033825184459246  0.7053483987636184  0.9061348110086836  1.0000
  O   O13       1.0  0.656925813198562  0.39622261253305174  0.8700405150922631  1.0000
  O   O14       1.0  0.3430814111331628  0.6037891427236702  0.1299506508522725  1.0000
  O   O15       1.0  0.6074609084772362  0.2811199160958963  0.31888959476084006  1.0000
  O   O16       1.0  0.3925290416357256  0.7188868838556104  0.6811116494891606  1.0000
  O   O17       1.0  0.3677369973680413  0.5871407896764042  0.3811213255330656  1.0000
  O   O18       1.0  0.6322671836539655  0.41286352965300926  0.618880269916417  1.0000
