data_image0
_chemical_formula_structural       Zn8H36C72O26
_chemical_formula_sum              "Zn8 H36 C72 O26"
_cell_length_a       19.690694366101056
_cell_length_b       23.151651800025416
_cell_length_c       21.200438251727228
_cell_angle_alpha    119.6151822690035
_cell_angle_beta     119.5980397045668
_cell_angle_gamma    90.06623205720953

_space_group_name_H-M_alt    "P 1"
_space_group_IT_number       1

loop_
  _space_group_symop_operation_xyz
  'x, y, z'

loop_
  _atom_site_type_symbol
  _atom_site_label
  _atom_site_symmetry_multiplicity
  _atom_site_fract_x
  _atom_site_fract_y
  _atom_site_fract_z
  _atom_site_occupancy
  Zn  Zn1       1.0  0.13277523380258321  0.06506593020727539  0.12968753859877322  1.0000
  Zn  Zn2       1.0  0.9735159020936879  0.06330936350617829  0.131381588429278  1.0000
  Zn  Zn3       1.0  0.9750293847632888  0.9265787181998418  0.9795703657535455  1.0000
  Zn  Zn4       1.0  0.9731090878813902  0.0676898056582118  0.9816558808069477  1.0000
  Zn  Zn5       1.0  0.39455963783722575  0.4995717777926812  0.985871481289742  1.0000
  Zn  Zn6       1.0  0.5489695933599208  0.4926358185061376  0.9760252453744301  1.0000
  Zn  Zn7       1.0  0.5546693672483228  0.4951026041929083  0.13174505840817122  1.0000
  Zn  Zn8       1.0  0.5563879719545497  0.6345549660848775  0.13070599247841122  1.0000
  H   H1        1.0  0.3056388718906646  0.19440422617694958  0.39447880162548205  1.0000
  H   H2        1.0  0.4003887829506071  0.2793690362364316  0.5578959358782428  1.0000
  H   H3        1.0  0.42051781522361154  0.3537998348154686  0.703166933796723  1.0000
  H   H4        1.0  0.2113299740293186  0.354842715701757  0.719234169068983  1.0000
  H   H5        1.0  0.11627878767269809  0.2699265822738965  0.555929102433332  1.0000
  H   H6        1.0  0.09559120745147709  0.19664278950733652  0.40922529319596634  1.0000
  H   H7        1.0  0.3115173699389188  0.9720737879796955  0.17885656086253454  1.0000
  H   H8        1.0  0.40823078672363516  0.9030054389774589  0.19646798990983408  1.0000
  H   H9        1.0  0.431418054661698  0.7865937055028736  0.14742687142138763  1.0000
  H   H10       1.0  0.22594974038369026  0.596935892845373  0.9288492377871906  1.0000
  H   H11       1.0  0.12954512084012032  0.666284881600191  0.9111725904453748  1.0000
  H   H12       1.0  0.10623087026802112  0.7820720143049441  0.9617436894107174  1.0000
  H   H13       1.0  0.3070748513308246  0.20687318927216575  0.1811344504733086  1.0000
  H   H14       1.0  0.40378743112533755  0.29455382162730354  0.201875348501936  1.0000
  H   H15       1.0  0.4267837232662045  0.3696370451641043  0.15667825465352772  1.0000
  H   H16       1.0  0.21931359787827634  0.3819465288301984  0.9607042833898378  1.0000
  H   H17       1.0  0.1222237439971394  0.2967938620724269  0.9428814784925026  1.0000
  H   H18       1.0  0.099557132142948  0.21723821855868408  0.9829781671189795  1.0000
  H   H19       1.0  0.8396999047822649  0.9624711383221156  0.16551855014216005  1.0000
  H   H20       1.0  0.7595268154042926  0.891172825718996  0.17923653999689265  1.0000
  H   H21       1.0  0.6896054575836245  0.7745216539853529  0.13252804728149656  1.0000
  H   H22       1.0  0.6834173164095176  0.5862058164764006  0.9299361296683346  1.0000
  H   H23       1.0  0.7625023438425914  0.6570043583624994  0.9148772812951125  1.0000
  H   H24       1.0  0.8343317371108583  0.7747511892292633  0.9628872888665967  1.0000
  H   H25       1.0  0.8374905818418626  0.19580457998392828  0.1719148475742429  1.0000
  H   H26       1.0  0.7588431866827391  0.28046504195612704  0.18693946769557354  1.0000
  H   H27       1.0  0.6877926300901721  0.3545402704458454  0.1391752577522071  1.0000
  H   H28       1.0  0.672821324148927  0.35159471183531804  0.9284224623844041  1.0000
  H   H29       1.0  0.7492599436873136  0.2652349592923713  0.9116417059956209  1.0000
  H   H30       1.0  0.8229133573518438  0.19348165244728213  0.9616806452444779  1.0000
  H   H31       1.0  0.849854397826192  0.9707554469570779  0.711890343022823  1.0000
  H   H32       1.0  0.7717562884788904  0.8989035872759884  0.547964212828063  1.0000
  H   H33       1.0  0.699678878988166  0.7812931331616892  0.40440507749691773  1.0000
  H   H34       1.0  0.6921430404553134  0.5940842015136879  0.4007995531933941  1.0000
  H   H35       1.0  0.7715399987771364  0.6659920081759836  0.5648308384851505  1.0000
  H   H36       1.0  0.8420044645898271  0.7834172662113656  0.7079823172970306  1.0000
  C   C1        1.0  0.1402938351082099  0.1414529478819588  0.29504610341670207  1.0000
  C   C2        1.0  0.19516647368121195  0.19104391148302105  0.3931221796795229  1.0000
  C   C3        1.0  0.2818922355688684  0.21426661219694404  0.4352701380903384  1.0000
  C   C4        1.0  0.3337911273993726  0.2610043372452323  0.5252883298826349  1.0000
  C   C5        1.0  0.30191427810382265  0.2865454880466629  0.5776806395232442  1.0000
  C   C6        1.0  0.353971308812099  0.3350222291617513  0.6702710144431452  1.0000
  C   C7        1.0  0.3215284909569718  0.35913960931014793  0.7200161973146211  1.0000
  C   C8        1.0  0.23496582450288622  0.33511592742904367  0.6783077977616685  1.0000
  C   C9        1.0  0.1828341184928988  0.2882036714235454  0.5882177188158338  1.0000
  C   C10       1.0  0.21430225906260597  0.26268043650868117  0.5353455049503069  1.0000
  C   C11       1.0  0.162280348582442  0.21484612934469272  0.44249556116380984  1.0000
  C   C12       1.0  0.37754778167202113  0.41074482342196444  0.8176542667779431  1.0000
  C   C13       1.0  0.14660290179194385  0.9229687327215998  0.06040846638600764  1.0000
  C   C14       1.0  0.2032833428079711  0.8804133543964806  0.06889646670655455  1.0000
  C   C15       1.0  0.2892390287385282  0.914922190665884  0.1356042894292315  1.0000
  C   C16       1.0  0.34225499371681417  0.8765284776347569  0.1449543509479055  1.0000
  C   C17       1.0  0.312418855772158  0.8019423756006314  0.08801937173127035  1.0000
  C   C18       1.0  0.3653693649200207  0.7609592887015565  0.09609887388700117  1.0000
  C   C19       1.0  0.33417708335117874  0.6883667131402261  0.03966915182439808  1.0000
  C   C20       1.0  0.24830795284857737  0.6540482662199522  0.9722745372002636  1.0000
  C   C21       1.0  0.1955021304660178  0.6925332657225667  0.9628964634987439  1.0000
  C   C22       1.0  0.2255052416487472  0.7670585785943586  0.020193515570589494  1.0000
  C   C23       1.0  0.1723614942284469  0.8078360819493963  0.012554488555465827  1.0000
  C   C24       1.0  0.3895213215695676  0.644787347467009  0.048808654738998196  1.0000
  C   C25       1.0  0.1418779984266649  0.1529826225891426  0.0677850578450219  1.0000
  C   C26       1.0  0.19775896317484148  0.20687123291263987  0.07999234047618838  1.0000
  C   C27       1.0  0.2842959391782999  0.2291652566450536  0.14274260586569204  1.0000
  C   C28       1.0  0.3373048334307356  0.27746908198143666  0.15385623372970514  1.0000
  C   C29       1.0  0.306829420281332  0.30576064087971117  0.10283755244130077  1.0000
  C   C30       1.0  0.36011330288175  0.3536254927985637  0.11065696173997708  1.0000
  C   C31       1.0  0.3286413519926796  0.37999584395758745  0.05968355283042104  1.0000
  C   C32       1.0  0.24195690136608047  0.3598608398080285  0.9993597352743395  1.0000
  C   C33       1.0  0.18876890902622281  0.31295367046071476  0.9898918512157523  1.0000
  C   C34       1.0  0.21923634657385802  0.2841994029626917  0.04040637623934631  1.0000
  C   C35       1.0  0.1661172126757577  0.23450311753464342  0.030478709605986837  1.0000
  C   C36       1.0  0.3853149878819194  0.4283283242292341  0.0657321809382693  1.0000
  C   C37       1.0  0.8900014459167024  0.9165631252124055  0.057297293694695085  1.0000
  C   C38       1.0  0.8413225219121685  0.8720566101773596  0.06308928595974074  1.0000
  C   C39       1.0  0.8200683276071032  0.9053350057596816  0.12469142028693601  1.0000
  C   C40       1.0  0.7759240931222775  0.8657937649078917  0.13198891108812194  1.0000
  C   C41       1.0  0.7508415830441706  0.7912611070813823  0.07845840477951065  1.0000
  C   C42       1.0  0.7059874684640375  0.7495088262749688  0.08528834083562478  1.0000
  C   C43       1.0  0.6824735674662178  0.67693509541472  0.032799875461229235  1.0000
  C   C44       1.0  0.702990825100464  0.6433692241534742  0.9705868904668336  1.0000
  C   C45       1.0  0.7466196068249715  0.6827384025184597  0.9625470736720135  1.0000
  C   C46       1.0  0.7720069696402376  0.7573817367727855  0.015911402358547284  1.0000
  C   C47       1.0  0.8174768523658288  0.7994484114961794  0.009776124918467079  1.0000
  C   C48       1.0  0.6353299016374977  0.634096330530653  0.0416302357360434  1.0000
  C   C49       1.0  0.8831283095842581  0.1404691120671231  0.05863134736620888  1.0000
  C   C50       1.0  0.834524721816429  0.19012274164663268  0.06556159826704543  1.0000
  C   C51       1.0  0.8161498775758033  0.21462138108855555  0.12958502627726193  1.0000
  C   C52       1.0  0.7727984006172477  0.2613673134489858  0.13762160615932115  1.0000
  C   C53       1.0  0.7455172400508374  0.28591705851735577  0.08235036950549814  1.0000
  C   C54       1.0  0.7018024422739018  0.33469127730828047  0.08990052000112302  1.0000
  C   C55       1.0  0.6766414233542193  0.35803154306324086  0.0355188736068824  1.0000
  C   C56       1.0  0.6937681163443017  0.33251325121264586  0.9704514751418716  1.0000
  C   C57       1.0  0.7359874928678707  0.28496254013305833  0.9615250682067401  1.0000
  C   C58       1.0  0.7634332864404955  0.2606753672253248  0.017061676087280375  1.0000
  C   C59       1.0  0.8082974952422148  0.21279037918046126  0.010438449779769635  1.0000
  C   C60       1.0  0.6317182959334248  0.4104562556398149  0.045065767374801224  1.0000
  C   C61       1.0  0.8960121850688125  0.9243033785062447  0.8172481669997324  1.0000
  C   C62       1.0  0.8499708372070387  0.8806400027432773  0.7189872802386575  1.0000
  C   C63       1.0  0.8301805150657343  0.9136127564081631  0.6735361682599859  1.0000
  C   C64       1.0  0.787033156099696  0.8737164231892008  0.5830451398283998  1.0000
  C   C65       1.0  0.7613197819206831  0.7991220069394342  0.5333571711606168  1.0000
  C   C66       1.0  0.7159972865685235  0.7567357061351812  0.4402285256423967  1.0000
  C   C67       1.0  0.691536195218461  0.6841337802827282  0.39355904057551067  1.0000
  C   C68       1.0  0.7121289776275007  0.6512168611405612  0.4391566639549254  1.0000
  C   C69       1.0  0.7559974188817833  0.6911319802092278  0.5296838358013147  1.0000
  C   C70       1.0  0.7816438351272978  0.7657087672049058  0.5792486139557127  1.0000
  C   C71       1.0  0.826212745153427  0.8080464146104375  0.6722840850614985  1.0000
  C   C72       1.0  0.642707059406078  0.6399407758166544  0.29505499851801886  1.0000
  O   O1        1.0  0.011948876704039397  0.02980359867244429  0.0537813456012657  1.0000
  O   O2        1.0  0.06235658790084389  0.12380160203127127  0.2583064944625023  1.0000
  O   O3        1.0  0.17639278901992128  0.12077292795635228  0.2554780841593285  1.0000
  O   O4        1.0  0.45443940539530553  0.4327769245878272  0.8514177266352764  1.0000
  O   O5        1.0  0.34382379906777766  0.4289346342941867  0.8598169841499586  1.0000
  O   O6        1.0  0.06905540393333344  0.8901036680612575  0.005548807916710232  1.0000
  O   O7        1.0  0.1810021515866821  0.9895231112170746  0.1095742859979579  1.0000
  O   O8        1.0  0.466762649796479  0.6763766514532746  0.10878390046319436  1.0000
  O   O9        1.0  0.35401489616367604  0.5783531083847251  0.994876211502664  1.0000
  O   O10       1.0  0.06415502463662648  0.13544606628794034  0.01306151518522815  1.0000
  O   O11       1.0  0.1772780438432378  0.128461924814701  0.11367662687462853  1.0000
  O   O12       1.0  0.46264303228625886  0.4387342477374858  0.11257437354220196  1.0000
  O   O13       1.0  0.3511890158276855  0.4550394891646475  0.0223314043060156  1.0000
  O   O14       1.0  0.9075605908388764  0.885400210883787  0.0007369968411476764  1.0000
  O   O15       1.0  0.9102613484107424  0.9829309651854953  0.11032612642220092  1.0000
  O   O16       1.0  0.6205928235134124  0.6673446858321695  0.10021197393746206  1.0000
  O   O17       1.0  0.61360950025896  0.5673670692097447  0.989513346891052  1.0000
  O   O18       1.0  0.9007893899406555  0.1220596765097355  0.0023715746167170364  1.0000
  O   O19       1.0  0.9033777513469518  0.120638122122628  0.11022370910623644  1.0000
  O   O20       1.0  0.6157583698902371  0.4307316790976755  0.10286647256644692  1.0000
  O   O21       1.0  0.61310334046388  0.43092384421149876  0.9942957328525498  1.0000
  O   O22       1.0  0.9122687850188312  0.8916431082734988  0.8543551688212717  1.0000
  O   O23       1.0  0.9151766217480243  0.990914793633948  0.8560996877117972  1.0000
  O   O24       1.0  0.6236507541868194  0.6718794846339691  0.256878626897695  1.0000
  O   O25       1.0  0.6238093901007956  0.5734611115526461  0.25704172458407737  1.0000
  O   O26       1.0  0.5155096790849995  0.5313698588585325  0.057947685423826376  1.0000
