data_image0
_chemical_formula_structural       Al3H9C81Cl36O18
_chemical_formula_sum              "Al3 H9 C81 Cl36 O18"
_cell_length_a       4.2574423605483185
_cell_length_b       28.080353763270562
_cell_length_c       28.0991515522193
_cell_angle_alpha    60.062699732783145
_cell_angle_beta     89.89678944088577
_cell_angle_gamma    89.77754112009923

_space_group_name_H-M_alt    "P 1"
_space_group_IT_number       1

loop_
  _space_group_symop_operation_xyz
  'x, y, z'

loop_
  _atom_site_type_symbol
  _atom_site_label
  _atom_site_symmetry_multiplicity
  _atom_site_fract_x
  _atom_site_fract_y
  _atom_site_fract_z
  _atom_site_occupancy
  Al  Al1       1.0  0.9978958192412364  0.4997232810199465  0.49994011371402536  1.0000
  Al  Al2       1.0  0.04754357844018389  0.8332492370800326  0.8332227185902922  1.0000
  Al  Al3       1.0  0.9589659452145792  0.16638125761109993  0.16668787510857183  1.0000
  H   H1        1.0  0.5073298927696116  0.07735955278925398  0.9224892399751495  1.0000
  H   H2        1.0  0.420615162832391  0.2528250919572985  0.8342280099315856  1.0000
  H   H3        1.0  0.5853371422149322  0.16578727310935912  0.7471133660493123  1.0000
  H   H4        1.0  0.5073110435297536  0.5001212113603516  0.07709482909688593  1.0000
  H   H5        1.0  0.5861363963161992  0.58709706150551  0.16571039401854648  1.0000
  H   H6        1.0  0.42423957753029384  0.4131791971049595  0.2524279312074426  1.0000
  H   H7        1.0  0.49994143497237786  0.9228258560195288  0.4997731381167938  1.0000
  H   H8        1.0  0.41603848869820587  0.8341625072320584  0.4129346288361049  1.0000
  H   H9        1.0  0.5814010073073135  0.747283068948974  0.5867307310929347  1.0000
  C   C1        1.0  0.4946942533764939  0.5726521119531187  0.4997257676746613  1.0000
  C   C2        1.0  0.4997738055643879  0.4270948487189516  0.572741219668721  1.0000
  C   C3        1.0  0.49984460457113755  0.4996184770047168  0.42722959651820247  1.0000
  C   C4        1.0  0.544251141236586  0.903387814855414  0.8366951285942718  1.0000
  C   C5        1.0  0.5473455143644088  0.7598201456714337  0.9034603804395045  1.0000
  C   C6        1.0  0.5464267751394161  0.8365898724487054  0.7596947637208301  1.0000
  C   C7        1.0  0.46214574302960904  0.16313027935673574  0.09645078404666659  1.0000
  C   C8        1.0  0.4586262370231042  0.23987059481261508  0.16361320167971627  1.0000
  C   C9        1.0  0.46072566763925243  0.09618773790878529  0.24014412545865577  1.0000
  C   C10       1.0  0.4768048526866978  0.16513634275257547  0.8852886731773564  1.0000
  C   C11       1.0  0.5061364984586731  0.11584461048354919  0.884055232013665  1.0000
  C   C12       1.0  0.5335432743803493  0.11463706093029931  0.8347624236424236  1.0000
  C   C13       1.0  0.5442263396271443  0.16543930801771725  0.7853835226385967  1.0000
  C   C14       1.0  0.5029679196142354  0.21588865267511909  0.7840949433084103  1.0000
  C   C15       1.0  0.46309727863358313  0.21456294332094938  0.8345528827344921  1.0000
  C   C16       1.0  0.6852239915906043  0.9618996521026378  0.8787171057909474  1.0000
  C   C17       1.0  0.7003125068940932  0.013125637499392558  0.876355496746811  1.0000
  C   C18       1.0  0.5423546349489641  0.06064232268759184  0.8353482300891598  1.0000
  C   C19       1.0  0.38169055201581165  0.05285704882928867  0.7954731694721316  1.0000
  C   C20       1.0  0.39512577568325474  0.003215024639438067  0.794592486486053  1.0000
  C   C21       1.0  0.5400252642197287  0.9569815318274026  0.8369985404029235  1.0000
  C   C22       1.0  0.3110854413104818  0.1233812258662399  0.9866816422873794  1.0000
  C   C23       1.0  0.3249549674229826  0.12108993613800584  0.0378436809001741  1.0000
  C   C24       1.0  0.4676050116735837  0.16297126882867022  0.042798376318451375  1.0000
  C   C25       1.0  0.6115313673646057  0.205449669166555  0.9966691385222503  1.0000
  C   C26       1.0  0.6267064100408816  0.20449154805126585  0.94711169780183  1.0000
  C   C27       1.0  0.4680074974294186  0.1644927664306054  0.939263921624054  1.0000
  C   C28       1.0  0.6665174234523261  0.3167207740147904  0.7226245234375241  1.0000
  C   C29       1.0  0.6535968975002006  0.3678294433895106  0.6734597726259323  1.0000
  C   C30       1.0  0.5008297753214066  0.37336855407848907  0.6264881576732292  1.0000
  C   C31       1.0  0.348584459994555  0.3263310942568511  0.6321653824584815  1.0000
  C   C32       1.0  0.3365470453968556  0.2772624836364132  0.6833352504057115  1.0000
  C   C33       1.0  0.5018139875489496  0.26960593905060665  0.7303935743292626  1.0000
  C   C34       1.0  0.5342928266444034  0.5506169462012594  0.11444862981586812  1.0000
  C   C35       1.0  0.5068196997057157  0.5001334026329546  0.11558050421751889  1.0000
  C   C36       1.0  0.4783174613462435  0.4496461352269991  0.1648004752829521  1.0000
  C   C37       1.0  0.4657719393222664  0.4510428349961161  0.2142290337988583  1.0000
  C   C38       1.0  0.5053642604796807  0.5001390314863274  0.21562704135062932  1.0000
  C   C39       1.0  0.5454072354944159  0.549237769838989  0.16525874680285577  1.0000
  C   C40       1.0  0.3210772224736401  0.3406125399227308  0.1214728051680538  1.0000
  C   C41       1.0  0.3098120305723882  0.3897489425260758  0.12339415373794789  1.0000
  C   C42       1.0  0.468484539633046  0.39617821805295267  0.16431521911508898  1.0000
  C   C43       1.0  0.6263895061622335  0.34816028038223124  0.20450690109168326  1.0000
  C   C44       1.0  0.6085970412959939  0.29745743463102065  0.20583111720990388  1.0000
  C   C45       1.0  0.46343836863296417  0.29371076424574494  0.16346895979412315  1.0000
  C   C46       1.0  0.7023163597205055  0.6103981323514774  0.01320376347233315  1.0000
  C   C47       1.0  0.6888628954578097  0.6593039220758928  0.9621139118803015  1.0000
  C   C48       1.0  0.5435565397370822  0.7061079641997456  0.9571242688855077  1.0000
  C   C49       1.0  0.39841100519864636  0.7024897132044856  0.0032475207349804648  1.0000
  C   C50       1.0  0.3838300709068818  0.6519816222689487  0.05276716547606233  1.0000
  C   C51       1.0  0.543611647923605  0.6040519850895053  0.06058757131837918  1.0000
  C   C52       1.0  0.3372508562733713  0.5394250066988278  0.2771910884952931  1.0000
  C   C53       1.0  0.34817846642844336  0.541266622780114  0.3264343414119253  1.0000
  C   C54       1.0  0.5020526807819579  0.49984713168008466  0.37335611674777874  1.0000
  C   C55       1.0  0.6579450139729702  0.4586672787237519  0.3675471374582101  1.0000
  C   C56       1.0  0.671106882286672  0.46079776156480545  0.3163303152975131  1.0000
  C   C57       1.0  0.5045340790785104  0.5001388046089305  0.26935334027918156  1.0000
  C   C58       1.0  0.47090635198176045  0.8853955656137561  0.44940493780896396  1.0000
  C   C59       1.0  0.4996645646786959  0.8842766082179739  0.49982218186545413  1.0000
  C   C60       1.0  0.52819085100856  0.8350240890766543  0.5502698724352298  1.0000
  C   C61       1.0  0.5396459568032623  0.7855335675075495  0.5488926029096033  1.0000
  C   C62       1.0  0.49852044928402245  0.7841413094509593  0.49983855565839247  1.0000
  C   C63       1.0  0.4581399748614032  0.8345629737561211  0.45078033797705785  1.0000
  C   C64       1.0  0.6831903762307833  0.8787698739211864  0.6590159652950405  1.0000
  C   C65       1.0  0.6955870540445872  0.876661061481123  0.6100209960520073  1.0000
  C   C66       1.0  0.5381734427001703  0.8356108429961754  0.6036517810632771  1.0000
  C   C67       1.0  0.3805499437846508  0.7955074171795006  0.6515761618826515  1.0000
  C   C68       1.0  0.3974281747410231  0.7943533927104768  0.7021720131027466  1.0000
  C   C69       1.0  0.5414621210560782  0.8368184518025715  0.705860551821473  1.0000
  C   C70       1.0  0.30423364660296665  0.9868561770518484  0.38948388808813655  1.0000
  C   C71       1.0  0.3185646924286942  0.03792306930331086  0.3405662952385952  1.0000
  C   C72       1.0  0.4643674557656042  0.042647050081647736  0.293981558762745  1.0000
  C   C73       1.0  0.6100187123008283  0.9963491948770199  0.2978921738886555  1.0000
  C   C74       1.0  0.623770148958357  0.9468552677000875  0.3484197571998208  1.0000
  C   C75       1.0  0.46270698093844953  0.939292107224958  0.3960414458548128  1.0000
  C   C76       1.0  0.6623322231943333  0.7224371664943025  0.4604552072788336  1.0000
  C   C77       1.0  0.648331131955274  0.6733239211823235  0.45834275835584726  1.0000
  C   C78       1.0  0.4942513179600141  0.6264990331217251  0.49964752756221736  1.0000
  C   C79       1.0  0.34117719640105537  0.6323500412218908  0.5409775467057328  1.0000
  C   C80       1.0  0.3308004107277966  0.6835155503547911  0.5390788269044078  1.0000
  C   C81       1.0  0.4975228716966101  0.7303659862949773  0.49982460479425567  1.0000
  Cl  Cl1       1.0  0.23422420746377526  0.9981438234805043  0.7412607626586195  1.0000
  Cl  Cl2       1.0  0.8474055453917798  0.9039484700858228  0.9326782708970995  1.0000
  Cl  Cl3       1.0  0.15203984055935393  0.10313270353103833  0.7456250342867533  1.0000
  Cl  Cl4       1.0  0.9307838473974002  0.01483000356653734  0.9254607083828572  1.0000
  Cl  Cl5       1.0  0.1639336846085584  0.06702866760210213  0.0956749397556962  1.0000
  Cl  Cl6       1.0  0.08316607103714091  0.0740940756004989  0.9848822770481432  1.0000
  Cl  Cl7       1.0  0.7689996012931316  0.25901971067133195  0.0017144225284937034  1.0000
  Cl  Cl8       1.0  0.8550853771736371  0.25443671777834004  0.8969491675792511  1.0000
  Cl  Cl9       1.0  0.8996079973268041  0.3135895126478659  0.7736797796594174  1.0000
  Cl  Cl10      1.0  0.8217367289378643  0.4233448425058839  0.6735739383737068  1.0000
  Cl  Cl11      1.0  0.10360323979533352  0.22618174962245552  0.6866090997688231  1.0000
  Cl  Cl12      1.0  0.1803439989067783  0.32600297726467903  0.5767491115847178  1.0000
  Cl  Cl13      1.0  0.7643679940865696  0.2387194151970888  0.2596673843458461  1.0000
  Cl  Cl14      1.0  0.15690738042941632  0.3366074579267889  0.0677109923286068  1.0000
  Cl  Cl15      1.0  0.8571085691394417  0.3482964571566996  0.2542982769544366  1.0000
  Cl  Cl16      1.0  0.08275500695454951  0.441027406378602  0.07389857758219877  1.0000
  Cl  Cl17      1.0  0.8533707362508948  0.6630931844776172  0.9043908448484997  1.0000
  Cl  Cl18      1.0  0.9324604797237368  0.559299221542709  0.01502426101247068  1.0000
  Cl  Cl19      1.0  0.23850390749288417  0.7611162487521386  0.9982183474248741  1.0000
  Cl  Cl20      1.0  0.15373977268281183  0.6518862874455282  0.10286814063729817  1.0000
  Cl  Cl21      1.0  0.10348340261752752  0.5873720562370652  0.2261138424905126  1.0000
  Cl  Cl22      1.0  0.17674088852830752  0.5968040812513707  0.3264416066650141  1.0000
  Cl  Cl23      1.0  0.9064225880235739  0.41306422113702035  0.3128787885756309  1.0000
  Cl  Cl24      1.0  0.8294236879682373  0.4030795692011042  0.4227950850474115  1.0000
  Cl  Cl25      1.0  0.2419599362132628  0.7406060898006079  0.7608118830080883  1.0000
  Cl  Cl26      1.0  0.8446947630030622  0.9327815195676409  0.6628803701402647  1.0000
  Cl  Cl27      1.0  0.1509610697581962  0.7456288446427738  0.651467186902316  1.0000
  Cl  Cl28      1.0  0.9224086335513276  0.9260876853826265  0.5588635467177311  1.0000
  Cl  Cl29      1.0  0.15491233870061194  0.09593604391047712  0.3364669554635995  1.0000
  Cl  Cl30      1.0  0.07425526932535578  0.9853651645661687  0.4403545984934638  1.0000
  Cl  Cl31      1.0  0.7716290327183799  0.0011437855488268633  0.23957175771622724  1.0000
  Cl  Cl32      1.0  0.8540074752228718  0.8964690878178206  0.34896193678040527  1.0000
  Cl  Cl33      1.0  0.8971284117442195  0.7732158762015474  0.4127089290015817  1.0000
  Cl  Cl34      1.0  0.8162978387943625  0.6733247358700326  0.4026564377211058  1.0000
  Cl  Cl35      1.0  0.09823903125369071  0.6870455059638093  0.5869576354729418  1.0000
  Cl  Cl36      1.0  0.16964370029903358  0.5771705352980521  0.5964032497665953  1.0000
  O   O1        1.0  0.7362478491386072  0.47872805353624415  0.45840674670061077  1.0000
  O   O2        1.0  0.731766351693814  0.5622242369369702  0.4790059580406021  1.0000
  O   O3        1.0  0.7358255594418494  0.4582005084503112  0.5624746872703524  1.0000
  O   O4        1.0  0.261708789591573  0.5203067624733536  0.4374766408798649  1.0000
  O   O5        1.0  0.2630084434118486  0.4372936705721815  0.5417145462883396  1.0000
  O   O6        1.0  0.2581012411582507  0.5416825985052826  0.5205573056698043  1.0000
  O   O7        1.0  0.7850712940251228  0.8144906381127162  0.7897648135781948  1.0000
  O   O8        1.0  0.7823759923387287  0.8952885721111914  0.8145281322498192  1.0000
  O   O9        1.0  0.7852109493478708  0.7899329282687619  0.8953487683311251  1.0000
  O   O10       1.0  0.31197597908350616  0.8580427234545099  0.7698838570242118  1.0000
  O   O11       1.0  0.3137612777342511  0.7698684900412618  0.8718645549617817  1.0000
  O   O12       1.0  0.3103633586009238  0.8719197585374164  0.8580739267297801  1.0000
  O   O13       1.0  0.6945274416991083  0.12765360300109316  0.23010371651718486  1.0000
  O   O14       1.0  0.6962573208411625  0.14160543647545865  0.1280200187850653  1.0000
  O   O15       1.0  0.6927431902725444  0.22969721704621557  0.142106451632678  1.0000
  O   O16       1.0  0.2231517378457255  0.10429684912408285  0.20989502415894623  1.0000
  O   O17       1.0  0.2203827433706707  0.20983731201286565  0.18555795966553748  1.0000
  O   O18       1.0  0.22329491304663662  0.18518973463008595  0.10455453154479953  1.0000
