data_image0
_chemical_formula_structural       Hf6H10C60N18O32
_chemical_formula_sum              "Hf6 H10 C60 N18 O32"
_cell_length_a       16.381598282138143
_cell_length_b       16.38572996987722
_cell_length_c       16.470306371138904
_cell_angle_alpha    84.78923829700257
_cell_angle_beta     89.56240277987432
_cell_angle_gamma    89.67863125675747

_space_group_name_H-M_alt    "P 1"
_space_group_IT_number       1

loop_
  _space_group_symop_operation_xyz
  'x, y, z'

loop_
  _atom_site_type_symbol
  _atom_site_label
  _atom_site_symmetry_multiplicity
  _atom_site_fract_x
  _atom_site_fract_y
  _atom_site_fract_z
  _atom_site_occupancy
  Hf  Hf1       1.0  0.9655244867668672  0.8000460655976697  0.15878578826634276  1.0000
  Hf  Hf2       1.0  0.847497959347784  0.7556093327254771  0.9919158518662459  1.0000
  Hf  Hf3       1.0  0.9908420147585631  0.0013357892845319997  0.0715846685568806  1.0000
  Hf  Hf4       1.0  0.7939132536549495  0.9204242714989022  0.10328483158639302  1.0000
  Hf  Hf5       1.0  0.0434509975369508  0.8369717218211437  0.9595116883213565  1.0000
  Hf  Hf6       1.0  0.871988651124525  0.9578976989316246  0.9049497816863765  1.0000
  H   H1        1.0  0.8004111630903381  0.7526276861956731  0.15735466460189682  1.0000
  H   H2        1.0  0.11235920276479311  0.8796952085531659  0.1044599956199121  1.0000
  H   H3        1.0  0.8426382633937309  0.07256094730686162  0.0207698236515554  1.0000
  H   H4        1.0  0.9229368626959555  0.8133386993078419  0.8416764951493791  1.0000
  H   H5        1.0  0.9323377662743014  0.4746813046898026  0.5171506615062569  1.0000
  H   H6        1.0  0.9170721085537251  0.28606344375804577  0.546054527275878  1.0000
  H   H7        1.0  0.3261627600034842  0.3671476356049582  0.028818214337960092  1.0000
  H   H8        1.0  0.5132712245880456  0.39299871535150294  0.02479083062674899  1.0000
  H   H9        1.0  0.4067666609327887  0.8864284582960592  0.6232256661889864  1.0000
  H   H10       1.0  0.43253164846685627  0.8789443334438403  0.4376381280634831  1.0000
  C   C1        1.0  0.2008651321236385  0.9357643606907545  0.45209558644463504  1.0000
  C   C2        1.0  0.3054690174669048  0.9107907736757355  0.5402807219004728  1.0000
  C   C3        1.0  0.17878512203966324  0.9409233328173842  0.5869602498336165  1.0000
  C   C4        1.0  0.6345598259556054  0.8287265946907212  0.6138279715549119  1.0000
  C   C5        1.0  0.6619308207311789  0.8286235149103263  0.4793066046267996  1.0000
  C   C6        1.0  0.5329414501100233  0.8549486086638042  0.5223540128079165  1.0000
  C   C7        1.0  0.49309940965299864  0.16834842635424965  0.9650235846248666  1.0000
  C   C8        1.0  0.40703897701523317  0.2693442164689942  0.9974341356645201  1.0000
  C   C9        1.0  0.35725722212593775  0.1458986880185549  0.9688743369428469  1.0000
  C   C10       1.0  0.3417339126940035  0.5878636155585184  0.09016485776459862  1.0000
  C   C11       1.0  0.43068141338017096  0.49001842436491233  0.055951975770661  1.0000
  C   C12       1.0  0.47640381044535474  0.6160467684244538  0.08118249496469328  1.0000
  C   C13       1.0  0.9813005550526697  0.47861679675528995  0.7476448638354896  1.0000
  C   C14       1.0  0.9522342187426673  0.41093943260635507  0.6372596094268419  1.0000
  C   C15       1.0  0.9741024324165934  0.34053807485252463  0.7604786872222391  1.0000
  C   C16       1.0  0.8657153863939371  0.2757850048416373  0.3184467807733356  1.0000
  C   C17       1.0  0.897199324516869  0.34747782224852847  0.4254500961987233  1.0000
  C   C18       1.0  0.8776622777350909  0.41341435400681814  0.2997237354845197  1.0000
  C   C19       1.0  0.0701993204784088  0.9291268362934987  0.2446854370709062  1.0000
  C   C20       1.0  0.8911751244666135  0.6236270280596728  0.1477165269871321  1.0000
  C   C21       1.0  0.8142713673052028  0.8368361859029747  0.28306500281802743  1.0000
  C   C22       1.0  0.1314241930398623  0.7162611357614566  0.09267176314202892  1.0000
  C   C23       1.0  0.7599950188500557  0.8309460433053671  0.82410445008329  1.0000
  C   C24       1.0  0.9561669082464236  0.13026632581743766  0.911319677718126  1.0000
  C   C25       1.0  0.6704724866686292  0.7704280699246909  0.06785153225370519  1.0000
  C   C26       1.0  0.9804876363083039  0.6698307048685309  0.887372910723272  1.0000
  C   C27       1.0  0.1635942908560679  0.9915755612058846  0.9859916956650352  1.0000
  C   C28       1.0  0.8609573103894022  0.0817255216805108  0.18368182108639533  1.0000
  C   C29       1.0  0.7008136843758095  0.0338248547126838  0.9677177892088978  1.0000
  C   C30       1.0  0.02718799207499249  0.9298792505195123  0.7833273521577055  1.0000
  C   C31       1.0  0.8545515834193509  0.20105910210816094  0.2817815524794654  1.0000
  C   C32       1.0  0.8520859116858688  0.14329022024097782  0.240479863686673  1.0000
  C   C33       1.0  0.8806892882767486  0.545523613211195  0.19487534649289978  1.0000
  C   C34       1.0  0.877882526882381  0.4862174683431633  0.24480027162458382  1.0000
  C   C35       1.0  0.9751416015613756  0.2660862889093708  0.8129268982560023  1.0000
  C   C36       1.0  0.9716654809900831  0.2061662670439546  0.8620247929300862  1.0000
  C   C37       1.0  0.9897975946479033  0.5515671623016872  0.7879603806448332  1.0000
  C   C38       1.0  0.9908979870297968  0.6071472184102832  0.832086554840025  1.0000
  C   C39       1.0  0.933086956946802  0.41392019506920963  0.5502265212633475  1.0000
  C   C40       1.0  0.9164820376801047  0.34645501485165653  0.5122257616149071  1.0000
  C   C41       1.0  0.2614466926601722  0.6194750029219306  0.10120156461294272  1.0000
  C   C42       1.0  0.1984428855733782  0.6588450991829617  0.10321863803790171  1.0000
  C   C43       1.0  0.5954345391076643  0.7245638115126314  0.0799731729670938  1.0000
  C   C44       1.0  0.5412297888499465  0.6739718325634955  0.0828481875819378  1.0000
  C   C45       1.0  0.23631469322998558  0.0399099973886834  0.9688567735242162  1.0000
  C   C46       1.0  0.2908544525225664  0.09012564815147782  0.9655286448558728  1.0000
  C   C47       1.0  0.5721896111571925  0.1329002986141887  0.9566522823344318  1.0000
  C   C48       1.0  0.6331292833717724  0.09022685387336792  0.9559531681310391  1.0000
  C   C49       1.0  0.39048881924285445  0.35204226665574373  0.020856283159879786  1.0000
  C   C50       1.0  0.4488073156317399  0.407433066433704  0.03286786323304369  1.0000
  C   C51       1.0  0.6668268359943854  0.8226007291776228  0.6944109636026141  1.0000
  C   C52       1.0  0.7051475309262116  0.8223359100100326  0.7573548908621319  1.0000
  C   C53       1.0  0.7200782070078163  0.8237177627680838  0.4146970151770617  1.0000
  C   C54       1.0  0.7700401036966156  0.8249355039197539  0.35961275836317713  1.0000
  C   C55       1.0  0.07343854085433321  0.946544147272192  0.7085600990018861  1.0000
  C   C56       1.0  0.12275885280063649  0.9478729659954723  0.6529370912494772  1.0000
  C   C57       1.0  0.12381152285193052  0.9388684801929231  0.3121061675231047  1.0000
  C   C58       1.0  0.1651103493265467  0.9396442935848484  0.3730484391476665  1.0000
  C   C59       1.0  0.3908343798278153  0.8899390056464969  0.5588182543899195  1.0000
  C   C60       1.0  0.4477423586923024  0.8753107550312436  0.5022146355697928  1.0000
  N   N1        1.0  0.2800576468748234  0.9161717426778041  0.46199784290735124  1.0000
  N   N2        1.0  0.2571351557177906  0.9219991691847653  0.6052462671567724  1.0000
  N   N3        1.0  0.1471631894908825  0.950378949509826  0.5116889105527849  1.0000
  N   N4        1.0  0.6909286536801318  0.8174518961413783  0.5555680509375521  1.0000
  N   N5        1.0  0.5838630416064134  0.8466450163941917  0.45868102845855674  1.0000
  N   N6        1.0  0.5554849911192506  0.8471015956363885  0.6015345180963011  1.0000
  N   N7        1.0  0.48510681568479436  0.24521589578300515  0.9861431335008748  1.0000
  N   N8        1.0  0.3407801224724238  0.2218064248889533  0.9902664933850858  1.0000
  N   N9        1.0  0.4317637834422783  0.11601991413301252  0.9536276314002381  1.0000
  N   N10       1.0  0.3521859210283438  0.5110501343135992  0.06988536417184582  1.0000
  N   N11       1.0  0.49521913189716565  0.5403811948091147  0.0603046888542664  1.0000
  N   N12       1.0  0.40127562363697683  0.6431623773328  0.09832471090345508  1.0000
  N   N13       1.0  0.9640224961812366  0.48390663601944084  0.6675719802840023  1.0000
  N   N14       1.0  0.9557454162557235  0.3373343575413088  0.6814308125289232  1.0000
  N   N15       1.0  0.9889660359323785  0.4090626343783584  0.7971677677668938  1.0000
  N   N16       1.0  0.8827096226617214  0.2734735579653602  0.39837611513522125  1.0000
  N   N17       1.0  0.8960838163172584  0.4195081509876886  0.3784190141557248  1.0000
  N   N18       1.0  0.8608198302909642  0.3436276835649252  0.2660139481967292  1.0000
  O   O1        1.0  0.058552375827602504  0.9894889772612032  0.1921426410737723  1.0000
  O   O2        1.0  0.8585789548390323  0.6374153056336098  0.0781414527769329  1.0000
  O   O3        1.0  0.8837172389486341  0.8042777717788355  0.2736416034288993  1.0000
  O   O4        1.0  0.08270656638514849  0.7254009549708442  0.15132753260211726  1.0000
  O   O5        1.0  0.13061291997562557  0.754816167836097  0.02132220923517991  1.0000
  O   O6        1.0  0.7737575199065532  0.8814383639193011  0.2291983677520122  1.0000
  O   O7        1.0  0.9337544441965663  0.6737823986594407  0.1851220272473952  1.0000
  O   O8        1.0  0.039551818580768804  0.8572140723048353  0.24535106639383744  1.0000
  O   O9        1.0  0.9602948632757773  0.7776677026191477  0.03787765293775891  1.0000
  O   O10       1.0  0.9163967170188911  0.9143664460116555  0.13105282493414447  1.0000
  O   O11       1.0  0.834332789760964  0.7885021049885594  0.12140196470632957  1.0000
  O   O12       1.0  0.05672605629923309  0.879094310182829  0.08478218381346639  1.0000
  O   O13       1.0  0.7728232975201338  0.7700106994674342  0.8756249200022596  1.0000
  O   O14       1.0  0.9881696620812691  0.1167588357031377  0.9812127794688482  1.0000
  O   O15       1.0  0.6800617966283156  0.8383301467052533  0.09779506490069419  1.0000
  O   O16       1.0  0.038388261916061595  0.7191038973280044  0.8966342851957878  1.0000
  O   O17       1.0  0.1541880440302137  0.9233185973976888  0.9566549859946037  1.0000
  O   O18       1.0  0.8023328289315188  0.0337008764993243  0.17326593195575415  1.0000
  O   O19       1.0  0.7503944059740064  0.0255005043883756  0.9095244795330402  1.0000
  O   O20       1.0  0.9573196698652781  0.9616386098495157  0.7926021684269956  1.0000
  O   O21       1.0  0.7033317876313276  0.9974086484935827  0.039968858948377296  1.0000
  O   O22       1.0  0.06495814268881617  0.8799265649010694  0.8347088558468486  1.0000
  O   O23       1.0  0.7230198753820004  0.7330135268671042  0.026273860769990203  1.0000
  O   O24       1.0  0.9306181445845924  0.08419282728030447  0.14744289827439166  1.0000
  O   O25       1.0  0.11404518831096061  0.0257076686089377  0.0333940980903762  1.0000
  O   O26       1.0  0.9097576361746746  0.6692947221562239  0.921319432061786  1.0000
  O   O27       1.0  0.7926673061387673  0.9020544077640267  0.8219645495828659  1.0000
  O   O28       1.0  0.9078127734718535  0.08290961126332523  0.8768924764906815  1.0000
  O   O29       1.0  0.9814277075181437  0.9456175714578451  0.9651962190866358  1.0000
  O   O30       1.0  0.8178602698182544  0.8779966447839485  0.9922955351828406  1.0000
  O   O31       1.0  0.8631155455926844  0.0167189923925832  0.023777997571301113  1.0000
  O   O32       1.0  0.9216388334346419  0.8308685965684504  0.8963651568195773  1.0000
