data_image0
_chemical_formula_structural       Zn2H28C52N6O8
_chemical_formula_sum              "Zn2 H28 C52 N6 O8"
_cell_length_a       14.69250976648419
_cell_length_b       15.735969513271675
_cell_length_c       19.32540875269886
_cell_angle_alpha    90.14480600890656
_cell_angle_beta     105.6677493932297
_cell_angle_gamma    98.3610373999296

_space_group_name_H-M_alt    "P 1"
_space_group_IT_number       1

loop_
  _space_group_symop_operation_xyz
  'x, y, z'

loop_
  _atom_site_type_symbol
  _atom_site_label
  _atom_site_symmetry_multiplicity
  _atom_site_fract_x
  _atom_site_fract_y
  _atom_site_fract_z
  _atom_site_occupancy
  Zn  Zn1       1.0  0.5938135293913263  0.48271105500772643  0.5205568178944946  1.0000
  Zn  Zn2       1.0  0.40575554783664103  0.5160595996413946  0.4816799450985202  1.0000
  H   H1        1.0  0.6452942726837352  0.479189883488928  0.30945037309781054  1.0000
  H   H2        1.0  0.3587906311417299  0.5339289310819594  0.693315984826363  1.0000
  H   H3        1.0  0.9769161317349102  0.6701961483152344  0.3741967641525792  1.0000
  H   H4        1.0  0.022269065862921905  0.32804399556145813  0.6261001416706551  1.0000
  H   H5        1.0  0.7656668001730511  0.5374732368083882  0.4784886488927144  1.0000
  H   H6        1.0  0.23511110587109135  0.4647165779350998  0.5259344187530958  1.0000
  H   H7        1.0  0.6935751406973979  0.35160436196660777  0.6120008387164974  1.0000
  H   H8        1.0  0.30577343560394615  0.6458333345161478  0.3883759740113107  1.0000
  H   H9        1.0  0.14271692463698576  0.6915709996397793  0.3582785014357911  1.0000
  H   H10       1.0  0.8566369827421739  0.30624697473462  0.6418259691327679  1.0000
  H   H11       1.0  0.8590516240831008  0.5953684089348455  0.4297144261044395  1.0000
  H   H12       1.0  0.14049190317238217  0.40377925826950184  0.5713237593518985  1.0000
  H   H13       1.0  0.6528592527653386  0.49657602443139126  0.1818405483363676  1.0000
  H   H14       1.0  0.3653401389613435  0.5511711577593842  0.8238336543850553  1.0000
  H   H15       1.0  0.3670257043285545  0.5594418592917236  0.12413485881148748  1.0000
  H   H16       1.0  0.6560376898893098  0.5006649092883889  0.8823475575461189  1.0000
  H   H17       1.0  0.7533198686019418  0.04913062855209921  0.48242906368997057  1.0000
  H   H18       1.0  0.23878563849932988  0.9471169640260584  0.4008725489721245  1.0000
  H   H19       1.0  0.5400478092742773  0.2194814794476158  0.47915063452954615  1.0000
  H   H20       1.0  0.45747200242666247  0.7783408033986278  0.4675233995080534  1.0000
  H   H21       1.0  0.2462917155418936  0.25032679123446394  0.4355313535640662  1.0000
  H   H22       1.0  0.7519198036297327  0.7476642275148533  0.5201321263521665  1.0000
  H   H23       1.0  0.7983483857682572  0.9047389281026809  0.505747957080743  1.0000
  H   H24       1.0  0.19634822022045742  0.0921245792360352  0.40770533629324057  1.0000
  H   H25       1.0  0.6323324138712892  0.14510329620073747  0.46318170464838476  1.0000
  H   H26       1.0  0.3599597432957253  0.8511543819616418  0.42172616023304244  1.0000
  H   H27       1.0  0.36084648283257786  0.5415958874737116  0.2519880038843426  1.0000
  H   H28       1.0  0.6485154587590716  0.48468810520908073  0.7515363191947275  1.0000
  C   C1        1.0  0.5718344697701312  0.6622557478268974  0.5047916562632438  1.0000
  C   C2        1.0  0.4283807533476391  0.3361034783684573  0.47962724086850295  1.0000
  C   C3        1.0  0.6010474978995151  0.755468211791829  0.49406193669743476  1.0000
  C   C4        1.0  0.39694566975362017  0.24223608787362133  0.45966196193309383  1.0000
  C   C5        1.0  0.7233193883740087  0.8769198935517863  0.4965895495137363  1.0000
  C   C6        1.0  0.27185638842493637  0.12009619486502737  0.4229713618093173  1.0000
  C   C7        1.0  0.6982890435056179  0.7902823168020985  0.504585386838997  1.0000
  C   C8        1.0  0.29881983374455257  0.2072373947692085  0.4384676107923583  1.0000
  C   C9        1.0  0.5310870304620892  0.8080311679449322  0.47402498254236053  1.0000
  C   C10       1.0  0.4655480408959036  0.18942707304633893  0.4623639638434442  1.0000
  C   C11       1.0  0.5542414575682174  0.8968125306484536  0.46562318318587614  1.0000
  C   C12       1.0  0.440358584610486  0.10017113369885777  0.4466221276677801  1.0000
  C   C13       1.0  0.6530013086228126  0.9320903785778824  0.47847460470049463  1.0000
  C   C14       1.0  0.3411014854247441  0.06467087728642439  0.42797540299017817  1.0000
  C   C15       1.0  0.4823807234473918  0.9532534494367154  0.4487263238404824  1.0000
  C   C16       1.0  0.5113147259578241  0.04349590672750028  0.45292458055168094  1.0000
  C   C17       1.0  0.6103832779677275  0.07606140026916819  0.4641657202985102  1.0000
  C   C18       1.0  0.38258029504913793  0.9204236508890843  0.4286333041247091  1.0000
  C   C19       1.0  0.6781814271441534  0.022583419106148  0.47484823974441087  1.0000
  C   C20       1.0  0.3146957096839246  0.9738470802157051  0.41699361402301366  1.0000
  C   C21       1.0  0.16017411493200484  0.6407999733180177  0.39566659299801915  1.0000
  C   C22       1.0  0.8394263154886802  0.357809984522511  0.6052402587261485  1.0000
  C   C23       1.0  0.5001766861567631  0.5028356279700361  0.36478364261643054  1.0000
  C   C24       1.0  0.5004847880631828  0.5021474893477559  0.636885218944393  1.0000
  C   C25       1.0  0.2496135040384573  0.6165560420299486  0.4117165453807346  1.0000
  C   C26       1.0  0.7500485004778812  0.3820972853448835  0.5895028827690185  1.0000
  C   C27       1.0  0.2095081398483387  0.5137935802224617  0.48914700995371885  1.0000
  C   C28       1.0  0.790762144728781  0.48698647832508596  0.5138687577442911  1.0000
  C   C29       1.0  0.11576184904289732  0.5330314294285046  0.47613677479184  1.0000
  C   C30       1.0  0.8841990483202623  0.46713757502926967  0.5260807600684532  1.0000
  C   C31       1.0  0.09048082048244048  0.5990823233792992  0.4273447722888407  1.0000
  C   C32       1.0  0.9092858047996162  0.4002805018212712  0.5740833448477789  1.0000
  C   C33       1.0  0.04646047508328622  0.4885522766194441  0.5094190647475261  1.0000
  C   C34       1.0  0.9534597992268344  0.5116144239270993  0.4927272237532066  1.0000
  C   C35       1.0  0.9305866704745611  0.5778338096377666  0.44330482586409675  1.0000
  C   C36       1.0  0.0691672459931141  0.4217367346334696  0.5582068860932099  1.0000
  C   C37       1.0  0.9962217128218214  0.6201005601838644  0.4118935419957881  1.0000
  C   C38       1.0  0.0033683165554024203  0.3789667144425409  0.589185199408462  1.0000
  C   C39       1.0  0.5850800313783042  0.49686342253532684  0.2681995689663666  1.0000
  C   C40       1.0  0.42319229738292574  0.5264202364587619  0.7353671351249605  1.0000
  C   C41       1.0  0.5891295355918728  0.5062677663714793  0.19757540395315226  1.0000
  C   C42       1.0  0.4268150260453679  0.5358892256479351  0.8076224694256597  1.0000
  C   C43       1.0  0.5105751448826155  0.52953250141541  0.14531807721230902  1.0000
  C   C44       1.0  0.5111771794801783  0.5272551917209966  0.8610884142383456  1.0000
  C   C45       1.0  0.42765780995253516  0.5416617470325916  0.16491342331199382  1.0000
  C   C46       1.0  0.5909806647852136  0.5075042371404238  0.8407086242807228  1.0000
  C   C47       1.0  0.4242061616458129  0.5320597971899658  0.23567119141601015  1.0000
  C   C48       1.0  0.5869152686436722  0.49856575928657065  0.768302178941504  1.0000
  C   C49       1.0  0.503035253616666  0.5102806325412104  0.28796023015278394  1.0000
  C   C50       1.0  0.5033397387517695  0.5085272067469404  0.7150342194783124  1.0000
  C   C51       1.0  0.5159357698440984  0.5401016190853412  0.9372918146497827  1.0000
  C   C52       1.0  0.51555337062549  0.5413857083675779  0.07111261471442282  1.0000
  N   N1        1.0  0.43947397222211737  0.5654195272574538  0.022305169632097877  1.0000
  N   N2        1.0  0.5993033132691681  0.5350352876571024  0.9875185424249726  1.0000
  N   N3        1.0  0.43975607576387443  0.5649681962116091  0.9543350270605164  1.0000
  N   N4        1.0  0.5991793452452469  0.535899680388155  0.055572443119700755  1.0000
  N   N5        1.0  0.2733079293644565  0.5534596616439558  0.45804161771571483  1.0000
  N   N6        1.0  0.7268141989582588  0.44646568385479657  0.5444519776094553  1.0000
  O   O1        1.0  0.6367410926682028  0.6142541750838361  0.5194690550729322  1.0000
  O   O2        1.0  0.3640965275343788  0.38472691436135875  0.4686701153822456  1.0000
  O   O3        1.0  0.48311441756667506  0.6375886805492142  0.4979691233157342  1.0000
  O   O4        1.0  0.5179120464868773  0.36045641987288213  0.5059618272141791  1.0000
  O   O5        1.0  0.5746541442776305  0.4840186445919342  0.40969896312574167  1.0000
  O   O6        1.0  0.4210248547203648  0.5074111232704297  0.5911466773167007  1.0000
  O   O7        1.0  0.42384222994268583  0.516823398984087  0.379113016608848  1.0000
  O   O8        1.0  0.5782060104057649  0.4928680076413555  0.6224718024634728  1.0000
