data_image0
_chemical_formula_structural       Ag4H16C24N20O12
_chemical_formula_sum              "Ag4 H16 C24 N20 O12"
_cell_length_a       5.8654076655424365
_cell_length_b       8.441494380517641
_cell_length_c       17.89922869835476
_cell_angle_alpha    90.00130538462265
_cell_angle_beta     90.72740494147399
_cell_angle_gamma    90.00022063691972

_space_group_name_H-M_alt    "P 1"
_space_group_IT_number       1

loop_
  _space_group_symop_operation_xyz
  'x, y, z'

loop_
  _atom_site_type_symbol
  _atom_site_label
  _atom_site_symmetry_multiplicity
  _atom_site_fract_x
  _atom_site_fract_y
  _atom_site_fract_z
  _atom_site_occupancy
  Ag  Ag1       1.0  0.5217608849508649  0.9456577346054048  0.8497645171810363  1.0000
  Ag  Ag2       1.0  0.4782015959781207  0.44567422709145177  0.6502363041703276  1.0000
  Ag  Ag3       1.0  0.47822664579424407  0.05433338939818099  0.1502303178587141  1.0000
  Ag  Ag4       1.0  0.521767284995704  0.5543441434612929  0.3497571611676378  1.0000
  H   H1        1.0  0.1740529800652837  0.6362447400775294  0.7828946497280356  1.0000
  H   H2        1.0  0.8259102950397123  0.13626314032013911  0.717106553843557  1.0000
  H   H3        1.0  0.8259319198042335  0.36373453732967675  0.2171107688158145  1.0000
  H   H4        1.0  0.17407319388885156  0.86375759906948  0.2828954928974383  1.0000
  H   H5        1.0  0.8463577259535455  0.45396828084923163  0.7930059478936826  1.0000
  H   H6        1.0  0.1536259115240668  0.9539804069205997  0.706991552569022  1.0000
  H   H7        1.0  0.153629024597663  0.5460145504752983  0.2069978190244726  1.0000
  H   H8        1.0  0.8463680471907439  0.0460367786104712  0.2930078412304482  1.0000
  H   H9        1.0  0.6205649707346694  0.5353694869562845  0.8486141594031125  1.0000
  H   H10       1.0  0.3794076282977059  0.035380277645629114  0.6513823469170532  1.0000
  H   H11       1.0  0.3794189560968775  0.4646121600024671  0.15138286233967338  1.0000
  H   H12       1.0  0.6206116517826531  0.9646297998382707  0.3486201839730256  1.0000
  H   H13       1.0  0.8022181350345077  0.38348851540570905  0.8850704372018612  1.0000
  H   H14       1.0  0.1977503455472061  0.8834898718315998  0.6149259457444174  1.0000
  H   H15       1.0  0.197787314892949  0.6165061619932998  0.11493414189556718  1.0000
  H   H16       1.0  0.8022423958062248  0.11650362141838139  0.3850678420279792  1.0000
  C   C1        1.0  0.13344140372548444  0.6697015794542764  0.8396481184746705  1.0000
  C   C2        1.0  0.8665435898707442  0.16968426976725226  0.6603568429690512  1.0000
  C   C3        1.0  0.8665322958464898  0.3303156056291883  0.16036832743291998  1.0000
  C   C4        1.0  0.1334859158018702  0.83030211514734  0.3396458258640322  1.0000
  C   C5        1.0  0.1379735238429021  0.7802231605246702  0.9487490224751626  1.0000
  C   C6        1.0  0.8620138169368589  0.2801993818868739  0.5512494110932947  1.0000
  C   C7        1.0  0.8620017356768557  0.21979047130253795  0.051249559299790796  1.0000
  C   C8        1.0  0.13802265231710456  0.7197834491578945  0.44875167517402303  1.0000
  C   C9        1.0  0.20943819143468548  0.8770442600228067  0.0084556636800741  1.0000
  C   C10       1.0  0.7904936796610328  0.3770284784665279  0.4915562430995735  1.0000
  C   C11       1.0  0.7905028837574547  0.12297884903355077  0.9915435734920309  1.0000
  C   C12       1.0  0.2095080203334305  0.6229673834491861  0.5084521976560764  1.0000
  C   C13       1.0  0.9504772363563774  0.6777174991874587  0.9465850296381078  1.0000
  C   C14       1.0  0.0495105919943271  0.17770461048700528  0.5534113221093762  1.0000
  C   C15       1.0  0.04948730941607949  0.3222902094069227  0.053418996161873594  1.0000
  C   C16       1.0  0.9505350329853144  0.8222876977351775  0.4465826223788198  1.0000
  C   C17       1.0  0.7836304929924012  0.6487559982730104  0.0004000713594650023  1.0000
  C   C18       1.0  0.2163859700162334  0.14873762873491359  0.49959509287107545  1.0000
  C   C19       1.0  0.2163417969953372  0.3512765877449482  0.9995934403721733  1.0000
  C   C20       1.0  0.7836680306504888  0.8512629717318845  0.5004006418490619  1.0000
  C   C21       1.0  0.7942213884279425  0.4880945430966293  0.849094860004378  1.0000
  C   C22       1.0  0.2057642277280536  0.988100355083155  0.6508983315655854  1.0000
  C   C23       1.0  0.20577393286528428  0.511898949798372  0.1509084641816401  1.0000
  C   C24       1.0  0.7942594359679802  0.011904984261519798  0.34909308032300157  1.0000
  N   N1        1.0  0.24845228220944895  0.7738419391676743  0.8815095490420148  1.0000
  N   N2        1.0  0.7515280601029417  0.2738316758181725  0.6184874378418216  1.0000
  N   N3        1.0  0.7515146503740198  0.22616340043419572  0.1184866842489285  1.0000
  N   N4        1.0  0.24849146349843917  0.7261677401427491  0.38151230158892696  1.0000
  N   N5        1.0  0.6469331078116483  0.627029403437305  0.0462199564417389  1.0000
  N   N6        1.0  0.3530843541147845  0.12702286321465547  0.45377162887901074  1.0000
  N   N7        1.0  0.3530438072054309  0.3729794898594889  0.9537792065610516  1.0000
  N   N8        1.0  0.6469613682370292  0.8729635219242127  0.5462211989945019  1.0000
  N   N9        1.0  0.2653368492733463  0.9572482557002074  0.0585207856145402  1.0000
  N   N10       1.0  0.734669526263751  0.4572261768591445  0.4414822204562086  1.0000
  N   N11       1.0  0.734639968682167  0.0427807761724068  0.9414794942682222  1.0000
  N   N12       1.0  0.26535691198699846  0.5427613928420385  0.5585164945060868  1.0000
  N   N13       1.0  0.9535470198495445  0.6083720204464098  0.8768088311575184  1.0000
  N   N14       1.0  0.04644050433788042  0.10836019028175768  0.6231927939815094  1.0000
  N   N15       1.0  0.0464464999269367  0.39163687254053764  0.12319558675584831  1.0000
  N   N16       1.0  0.9535790677813408  0.8916285640790632  0.3768063869981972  1.0000
  N   N17       1.0  0.2835421505105629  0.24020496380303058  0.7848765334349679  1.0000
  N   N18       1.0  0.716437939036382  0.7402092328632149  0.7151248038215668  1.0000
  N   N19       1.0  0.716472308683116  0.7597897137205718  0.2151225784627044  1.0000
  N   N20       1.0  0.2835610834649245  0.25978426012017763  0.2848752169803959  1.0000
  O   O1        1.0  0.21899458744564274  0.36251092118616407  0.748008573708951  1.0000
  O   O2        1.0  0.7809894348618656  0.8625092549616724  0.7519939558694162  1.0000
  O   O3        1.0  0.7810077951375971  0.6374884948725567  0.2519920515840113  1.0000
  O   O4        1.0  0.2190028677861733  0.13748660736356305  0.24800485621585014  1.0000
  O   O5        1.0  0.4920108131058072  0.19703224997151378  0.7814426263440808  1.0000
  O   O6        1.0  0.5079707985718329  0.6970394145048147  0.7185571456947314  1.0000
  O   O7        1.0  0.5080105124782364  0.802973089136195  0.2185560197572514  1.0000
  O   O8        1.0  0.4920368431634542  0.3029528938245746  0.2814418739019473  1.0000
  O   O9        1.0  0.1430590333072388  0.16295533980602528  0.8225449773992466  1.0000
  O   O10       1.0  0.8569141741036361  0.662953038175317  0.6774545468065014  1.0000
  O   O11       1.0  0.8569575200373832  0.8370298608631612  0.1774496913691692  1.0000
  O   O12       1.0  0.14308806214957315  0.3370428239524442  0.3225477531763588  1.0000
