data_image0
_chemical_formula_structural       Cd4H32C24N8O28
_chemical_formula_sum              "Cd4 H32 C24 N8 O28"
_cell_length_a       8.028150542655128
_cell_length_b       11.424175985323348
_cell_length_c       12.27705736638753
_cell_angle_alpha    110.19078569690276
_cell_angle_beta     90.00499699484442
_cell_angle_gamma    110.60859461791235

_space_group_name_H-M_alt    "P 1"
_space_group_IT_number       1

loop_
  _space_group_symop_operation_xyz
  'x, y, z'

loop_
  _atom_site_type_symbol
  _atom_site_label
  _atom_site_symmetry_multiplicity
  _atom_site_fract_x
  _atom_site_fract_y
  _atom_site_fract_z
  _atom_site_occupancy
  Cd  Cd1       1.0  0.5616672940898653  0.3263463107207727  0.2749917172176879  1.0000
  Cd  Cd2       1.0  0.23533362358557497  0.6737253944425774  0.2250578443943496  1.0000
  Cd  Cd3       1.0  0.43832823362960477  0.6736547820081142  0.7250078762039038  1.0000
  Cd  Cd4       1.0  0.7646671263489112  0.3262736883734405  0.7749411358394341  1.0000
  H   H1        1.0  0.47943937812062387  0.0333979577685355  0.1285923621679075  1.0000
  H   H2        1.0  0.4467223285083151  0.9667589044998907  0.3715654672695976  1.0000
  H   H3        1.0  0.5205577345834912  0.9666013229523714  0.8714148252132715  1.0000
  H   H4        1.0  0.5532817255659879  0.0332393128710038  0.6284389517739655  1.0000
  H   H5        1.0  0.9768055598488772  0.335301661398816  0.28146728621571526  1.0000
  H   H6        1.0  0.6415099192544177  0.6647790753727991  0.21891724086727044  1.0000
  H   H7        1.0  0.023188173947396275  0.664703314465342  0.7185277893331234  1.0000
  H   H8        1.0  0.3584898338875179  0.3352180155531101  0.7810819461694507  1.0000
  H   H9        1.0  0.9559259500168694  0.9377258065018241  0.0819129573805598  1.0000
  H   H10       1.0  0.019034753678447192  0.06240011186484651  0.4182198587781158  1.0000
  H   H11       1.0  0.0440758722200627  0.062280396452266004  0.9180914544420133  1.0000
  H   H12       1.0  0.980966967631332  0.9375959341099218  0.5817773800657805  1.0000
  H   H13       1.0  0.6212088038255034  0.8624397179725847  0.0400873792988961  1.0000
  H   H14       1.0  0.7597883123117767  0.13768900205696605  0.45997273291781937  1.0000
  H   H15       1.0  0.3787922505944862  0.1375624617707487  0.9599158047616783  1.0000
  H   H16       1.0  0.2402166984809568  0.8623111275907364  0.5400281962790032  1.0000
  H   H17       1.0  0.5227518742472057  0.42429511550619736  0.0941548184336725  1.0000
  H   H18       1.0  0.09868462466849343  0.5757647836907227  0.40580169404771743  1.0000
  H   H19       1.0  0.477248123269078  0.5757049529270972  0.9058436478641312  1.0000
  H   H20       1.0  0.9013156218604549  0.42423329322857484  0.5941969792070624  1.0000
  H   H21       1.0  0.6449923490097902  0.33622678403876444  0.04813827408833758  1.0000
  H   H22       1.0  0.30916499004099757  0.663943333937361  0.4518094055743945  1.0000
  H   H23       1.0  0.3550088943117089  0.6637732847706418  0.9518601923635046  1.0000
  H   H24       1.0  0.6908357598934884  0.33605574887864986  0.5481895746593893  1.0000
  H   H25       1.0  0.39240016257588195  0.16650283578652392  0.410515383446139  1.0000
  H   H26       1.0  0.22582772499657003  0.8334303046418725  0.08952291938668824  1.0000
  H   H27       1.0  0.6076040657430609  0.8334982197684934  0.5894825695318531  1.0000
  H   H28       1.0  0.7741717791326934  0.16656877779803383  0.9104760606930569  1.0000
  H   H29       1.0  0.4283294539906492  0.3171465193251493  0.49339688482530863  1.0000
  H   H30       1.0  0.11122382292869298  0.6827762836223599  0.006567349934734088  1.0000
  H   H31       1.0  0.5716717993493743  0.6828535693875821  0.506602402387486  1.0000
  H   H32       1.0  0.8887774304113305  0.31722380509037146  0.9934319372780607  1.0000
  C   C1        1.0  0.19126051696231627  0.1908050057412538  0.2096993675403596  1.0000
  C   C2        1.0  0.000732375456074393  0.8092230624232856  0.29061516904526025  1.0000
  C   C3        1.0  0.8087360776793987  0.8091982182009971  0.7903057644049554  1.0000
  C   C4        1.0  0.9992663508377291  0.1907719769025462  0.7093817625115406  1.0000
  C   C5        1.0  0.9904934366760116  0.14223971657090567  0.18375439194809934  1.0000
  C   C6        1.0  0.8486243336165418  0.8578071461938351  0.31662838688032485  1.0000
  C   C7        1.0  0.0095050860594341  0.8577623828069179  0.8162455087605878  1.0000
  C   C8        1.0  0.15137535941422445  0.14218982531212992  0.6833658755906882  1.0000
  C   C9        1.0  0.6240908191432909  0.059380464524160494  0.1416591807064904  1.0000
  C   C10       1.0  0.5652683419132176  0.9406839532893729  0.3585642759073125  1.0000
  C   C11       1.0  0.37590669678107963  0.9406196230602292  0.8583401060441744  1.0000
  C   C12       1.0  0.43473518408016076  0.059318187399547605  0.6414372669394481  1.0000
  C   C13       1.0  0.9009800131316013  0.23027781701250663  0.2282441660937451  1.0000
  C   C14       1.0  0.670860521223119  0.7697785727263807  0.2721208753817947  1.0000
  C   C15       1.0  0.09902276044356027  0.7697253092936905  0.7717568628170284  1.0000
  C   C16       1.0  0.3291367302898535  0.2302184975439729  0.7278774905858966  1.0000
  C   C17       1.0  0.8889263662189746  0.008011876464920001  0.11595883208534731  1.0000
  C   C18       1.0  0.881612978601794  0.9920703775228787  0.3842997913700755  1.0000
  C   C19       1.0  0.11107093074830476  0.9919902623434423  0.8840427099911992  1.0000
  C   C20       1.0  0.1183897795746489  0.007927739955285104  0.6157005237146934  1.0000
  C   C21       1.0  0.7031252975324095  0.9661863906828145  0.09355069794239769  1.0000
  C   C22       1.0  0.7377038703127708  0.0338902064193007  0.4066689224043216  1.0000
  C   C23       1.0  0.2968737586641552  0.033816774301698195  0.906451972028151  1.0000
  C   C24       1.0  0.2623043644715466  0.9661088985566978  0.5933308795146672  1.0000
  N   N1        1.0  0.8005544008747589  0.5904539257845798  0.4434739406063741  1.0000
  N   N2        1.0  0.2100871927595094  0.40967489180924593  0.05646210132547941  1.0000
  N   N3        1.0  0.19944707142234822  0.40954411170417876  0.5565230912805461  1.0000
  N   N4        1.0  0.7899140405434579  0.5903251570968353  0.9435355443654103  1.0000
  N   N5        1.0  0.7212182639151977  0.18931432480112423  0.2082216292110175  1.0000
  N   N6        1.0  0.5321625482145151  0.8107539263738063  0.2920294557158414  1.0000
  N   N7        1.0  0.27877777722834196  0.8106877937278013  0.7917790919505308  1.0000
  N   N8        1.0  0.4678367269391401  0.18924718738674068  0.7079709589288327  1.0000
  O   O1        1.0  0.26630646339567926  0.10577956580091553  0.18172485728815252  1.0000
  O   O2        1.0  0.16095101537875683  0.8942060285438205  0.3186313849952144  1.0000
  O   O3        1.0  0.7336984686993657  0.894222893717277  0.8182898178878659  1.0000
  O   O4        1.0  0.8390472876577348  0.10578816411187832  0.6813718056701888  1.0000
  O   O5        1.0  0.27649492633733525  0.3180656562348219  0.2599079667757493  1.0000
  O   O6        1.0  0.9584369225296713  0.6819600330675045  0.24025622650110282  1.0000
  O   O7        1.0  0.7235018371688255  0.6819354169668513  0.7400908060389355  1.0000
  O   O8        1.0  0.0415610613644546  0.31803601177892205  0.7597410118806707  1.0000
  O   O9        1.0  0.860646628916882  0.4966242499098002  0.39928842405497994  1.0000
  O   O10       1.0  0.36416127879469673  0.5035243170161792  0.10055122694408418  1.0000
  O   O11       1.0  0.13935309416947206  0.5033727813061332  0.6007083006988836  1.0000
  O   O12       1.0  0.6358387287401115  0.4964757713204334  0.8994480601146718  1.0000
  O   O13       1.0  0.6313905420195736  0.5599384441882336  0.41651760681239847  1.0000
  O   O14       1.0  0.07150275483395764  0.44016559238084335  0.08355514872065577  1.0000
  O   O15       1.0  0.36861070130191814  0.44006162462117254  0.583480859639451  1.0000
  O   O16       1.0  0.9284972126267305  0.5598344163424828  0.9164408552942972  1.0000
  O   O17       1.0  0.6138778837261114  0.39473969309040774  0.11812023226475794  1.0000
  O   O18       1.0  0.21942045092393409  0.605232737982135  0.381834188926284  1.0000
  O   O19       1.0  0.38611912879271415  0.6052593885972684  0.8818787475069032  1.0000
  O   O20       1.0  0.7805802990105518  0.3947663448338758  0.6181647913075068  1.0000
  O   O21       1.0  0.4867087315729465  0.25626261727469307  0.4437470123967699  1.0000
  O   O22       1.0  0.23050175932378641  0.74375942674007  0.05630850543361992  1.0000
  O   O23       1.0  0.5132942609593059  0.7437384578075381  0.5562517611881291  1.0000
  O   O24       1.0  0.7694982482110149  0.2562406615965429  0.9436907816251363  1.0000
  O   O25       1.0  0.899118762547502  0.7049521219022026  0.5088699182169236  1.0000
  O   O26       1.0  0.19389638098511597  0.2951835305068613  0.9910158340625586  1.0000
  O   O27       1.0  0.10088392549923947  0.295045856252699  0.4911246515411846  1.0000
  O   O28       1.0  0.8061055947175291  0.7048155128786178  0.008981504803365703  1.0000
