data_image0
_chemical_formula_structural       Hf6H20C100N32O32
_chemical_formula_sum              "Hf6 H20 C100 N32 O32"
_cell_length_a       15.280199674612728
_cell_length_b       17.680929594032357
_cell_length_c       17.68743224264212
_cell_angle_alpha    88.14655212073107
_cell_angle_beta     89.98068192086507
_cell_angle_gamma    89.98509284141211

_space_group_name_H-M_alt    "P 1"
_space_group_IT_number       1

loop_
  _space_group_symop_operation_xyz
  'x, y, z'

loop_
  _atom_site_type_symbol
  _atom_site_label
  _atom_site_symmetry_multiplicity
  _atom_site_fract_x
  _atom_site_fract_y
  _atom_site_fract_z
  _atom_site_occupancy
  Hf  Hf1       1.0  0.9950382177790474  0.1405776633348594  0.9982052997363411  1.0000
  Hf  Hf2       1.0  0.991421596000052  0.9956682814391015  0.1424289691776366  1.0000
  Hf  Hf3       1.0  0.9926478123884479  0.0040641861791144  0.8571480693412354  1.0000
  Hf  Hf4       1.0  0.9938343027641849  0.8604317052401598  0.9992785950354915  1.0000
  Hf  Hf5       1.0  0.15554724212491775  0.9999177503097129  0.9993505181504644  1.0000
  Hf  Hf6       1.0  0.8314157554993359  0.0005675926930165998  0.998885883978666  1.0000
  H   H1        1.0  0.8695068543993046  0.11497728761209912  0.10882574773764732  1.0000
  H   H2        1.0  0.11001942481122741  0.8836590450411775  0.12113440971565131  1.0000
  H   H3        1.0  0.8698920364647051  0.8848589169562898  0.8884400977806735  1.0000
  H   H4        1.0  0.1175685381805565  0.1141306521139143  0.8819379564719156  1.0000
  H   H5        1.0  0.9574812740989956  0.8841982003079705  0.24536436549605872  1.0000
  H   H6        1.0  0.9370418724905534  0.7537250922602536  0.11000650888217932  1.0000
  H   H7        1.0  0.029453197213520403  0.7549165786871441  0.8977076866444095  1.0000
  H   H8        1.0  0.990610861700496  0.850006701134795  0.835226171631767  1.0000
  H   H9        1.0  0.9554428772537308  0.11587689860306227  0.7529662414242964  1.0000
  H   H10       1.0  0.991310164499609  0.16875678045072817  0.8451640192194745  1.0000
  H   H11       1.0  0.03494703948945241  0.24378177492660308  0.1012812742842897  1.0000
  H   H12       1.0  0.9916580592243209  0.14979421610248517  0.1633881799921539  1.0000
  H   H13       1.0  0.03783604487441039  0.884112283994355  0.7599121173835715  1.0000
  H   H14       1.0  0.03530544037056419  0.24625218991988623  0.8743678852643413  1.0000
  H   H15       1.0  0.03479570603890641  0.1151069218142524  0.240287274287688  1.0000
  H   H16       1.0  0.041569782187139  0.747755054493652  0.1221683868663277  1.0000
  H   H17       1.0  0.656752857510739  0.5007502961452273  0.9933850716932112  1.0000
  H   H18       1.0  0.33517129864482337  0.49956757381141864  0.9960102275530076  1.0000
  H   H19       1.0  0.6538915088965427  0.9985361102492545  0.4981963972936115  1.0000
  H   H20       1.0  0.3324606812599455  0.9981745598459852  0.4991011285325087  1.0000
  C   C1        1.0  0.2053776640251996  0.17634981396599866  0.0015808497114946016  1.0000
  C   C2        1.0  0.7796583682455207  0.9957603791780296  0.17308548535771004  1.0000
  C   C3        1.0  0.2062839147665088  0.0022545920985806  0.1723596879938825  1.0000
  C   C4        1.0  0.7832961600156666  0.17511481501144024  0.9888266337890315  1.0000
  C   C5        1.0  0.7832195574589561  0.0045362868674204  0.8221974320504444  1.0000
  C   C6        1.0  0.20542942740249262  0.82423898152156  0.9941607923957463  1.0000
  C   C7        1.0  0.7798925348823643  0.8264079668129508  0.009682745993963205  1.0000
  C   C8        1.0  0.20406750599283194  0.9988457427141308  0.8232994568098917  1.0000
  C   C9        1.0  0.542426350906176  0.43076414873527097  0.9938839062956221  1.0000
  C   C10       1.0  0.450079578490204  0.43043930045637047  0.9947739116111765  1.0000
  C   C11       1.0  0.40634694570349694  0.49984974605246174  0.9956415585248096  1.0000
  C   C12       1.0  0.44938794525553055  0.5695157690034732  0.9962544279797072  1.0000
  C   C13       1.0  0.5417714106465396  0.5698015585461533  0.9956794523978234  1.0000
  C   C14       1.0  0.585537966823182  0.5004862169472589  0.9940460342318219  1.0000
  C   C15       1.0  0.5391268356813728  0.997047983131381  0.4290473528551573  1.0000
  C   C16       1.0  0.44673445956171065  0.9978469971100306  0.4292152933000537  1.0000
  C   C17       1.0  0.4036553532900058  0.9983678824853395  0.4988987139155371  1.0000
  C   C18       1.0  0.447185550775174  0.9993406973632446  0.5683470850221255  1.0000
  C   C19       1.0  0.5395890106483633  0.0003923911508678999  0.5681051372346175  1.0000
  C   C20       1.0  0.5826915125374441  0.9986217623554903  0.4984440829950146  1.0000
  C   C21       1.0  0.7152166463947369  0.005405846284979497  0.7603514074375968  1.0000
  C   C22       1.0  0.6467790682463957  0.9526175505582656  0.7600024712749232  1.0000
  C   C23       1.0  0.5899009655357972  0.9492220194073862  0.6964950229279979  1.0000
  C   C24       1.0  0.5959619759849276  0.0028930437536871995  0.6361284627987802  1.0000
  C   C25       1.0  0.6623904684932641  0.05847119243792779  0.6390929265973072  1.0000
  C   C26       1.0  0.7227930285519975  0.05810731769781087  0.6994265960456688  1.0000
  C   C27       1.0  0.6330805161198113  0.8996606220175277  0.8214058945282758  1.0000
  C   C28       1.0  0.6708152161427491  0.11507714546083037  0.5802450087681806  1.0000
  C   C29       1.0  0.7909254597052993  0.11320075560352898  0.6984524317954168  1.0000
  C   C30       1.0  0.5298335382547918  0.8878727664345402  0.6927726445476807  1.0000
  C   C31       1.0  0.3907127819626767  0.9989925402923915  0.6365363801701491  1.0000
  C   C32       1.0  0.325773348334998  0.9423178065117523  0.6451528272092377  1.0000
  C   C33       1.0  0.26608875454570574  0.9431610459758698  0.7059120110616776  1.0000
  C   C34       1.0  0.2713347246184341  0.9986700288637564  0.7608350987178483  1.0000
  C   C35       1.0  0.3362391901976309  0.05442826642644859  0.7535875036234785  1.0000
  C   C36       1.0  0.39450671476525667  0.05554413367102739  0.6907850852349995  1.0000
  C   C37       1.0  0.31812546063709857  0.8837546204664333  0.5919614537950864  1.0000
  C   C38       1.0  0.3415997273316265  0.11321658792462586  0.8067656592704537  1.0000
  C   C39       1.0  0.4542056658507434  0.11697886668256531  0.6813129857230749  1.0000
  C   C40       1.0  0.2002898745768036  0.8861587666003244  0.7117616682125742  1.0000
  C   C41       1.0  0.7116076783253008  0.9940743650751999  0.23481701673208016  1.0000
  C   C42       1.0  0.6447078007172211  0.04813081377442779  0.23736016023779172  1.0000
  C   C43       1.0  0.5884405599806186  0.0503598591437964  0.3013677852051515  1.0000
  C   C44       1.0  0.5947449100773881  0.9953029504371925  0.360465169166801  1.0000
  C   C45       1.0  0.6602584694030328  0.9390433210064015  0.3556715547831644  1.0000
  C   C46       1.0  0.718928828224783  0.939468211037173  0.2940972384919079  1.0000
  C   C47       1.0  0.632999015450153  0.10338135977352887  0.17765253696099853  1.0000
  C   C48       1.0  0.6694088899198576  0.8818450044035584  0.4138769121508333  1.0000
  C   C49       1.0  0.7844788756715317  0.882197288919272  0.2908769022723874  1.0000
  C   C50       1.0  0.5288702545323575  0.11191005013620266  0.3069065900219243  1.0000
  C   C51       1.0  0.2732135695858062  0.0015643347468596996  0.2350969976191877  1.0000
  C   C52       1.0  0.2665584474073413  0.055718676476224985  0.2913623045792377  1.0000
  C   C53       1.0  0.325389086182085  0.05552502371936899  0.3527545193636072  1.0000
  C   C54       1.0  0.39043163189109015  0.9988513967207946  0.36094365749076474  1.0000
  C   C55       1.0  0.3949342726118701  0.9431577373351558  0.3058635372785758  1.0000
  C   C56       1.0  0.3379318285929075  0.9455777205158925  0.24219156103399092  1.0000
  C   C57       1.0  0.2000890341064263  0.11228993373073587  0.2868673022446089  1.0000
  C   C58       1.0  0.4538020535042477  0.8810975360668178  0.31532271351191105  1.0000
  C   C59       1.0  0.3443745088264549  0.8874609942931212  0.18830783458548692  1.0000
  C   C60       1.0  0.31670200756564526  0.11281998598489199  0.40726602226808245  1.0000
  C   C61       1.0  0.5968951750591885  0.6386202589087161  0.9980871453338338  1.0000
  C   C62       1.0  0.6610007565054516  0.6520093451523505  0.9414808678907535  1.0000
  C   C63       1.0  0.7167716509207906  0.7153962060973028  0.9442349992867918  1.0000
  C   C64       1.0  0.7120025541690113  0.7647693144294931  0.004871785563246108  1.0000
  C   C65       1.0  0.6471814722217601  0.7534553437633771  0.05989895596421492  1.0000
  C   C66       1.0  0.5902587579935314  0.6900384548832715  0.057020136369594424  1.0000
  C   C67       1.0  0.6711909664816814  0.6011741881686133  0.8811155756720696  1.0000
  C   C68       1.0  0.6381028296854013  0.8050839301146338  0.11961914283193661  1.0000
  C   C69       1.0  0.528960059208231  0.6776362138189781  0.11677771048863408  1.0000
  C   C70       1.0  0.7736834041297626  0.7337451732854844  0.8824823660083468  1.0000
  C   C71       1.0  0.3931506306315029  0.6377662733078179  0.9971590011167636  1.0000
  C   C72       1.0  0.3997600754010193  0.6971668361920675  0.9423380044986587  1.0000
  C   C73       1.0  0.342455682499157  0.7606130022972477  0.9434325628587673  1.0000
  C   C74       1.0  0.2741619975480987  0.762721598227948  0.9961534421865537  1.0000
  C   C75       1.0  0.26705631205744856  0.7033108365916831  0.0506347166689167  1.0000
  C   C76       1.0  0.3262391248624965  0.6420896426552146  0.052182561381052  1.0000
  C   C77       1.0  0.4605865257023111  0.6928519854494579  0.8816169859990384  1.0000
  C   C78       1.0  0.19960441995861095  0.7056898252096598  0.1060954034768642  1.0000
  C   C79       1.0  0.31497710371553483  0.5836989102721688  0.10890114246419101  1.0000
  C   C80       1.0  0.3544431750943389  0.8204115837396626  0.8883937835251529  1.0000
  C   C81       1.0  0.7151883076995631  0.23677462144004824  0.9911587856798577  1.0000
  C   C82       1.0  0.6500086767296764  0.24543439498803818  0.93597812988466  1.0000
  C   C83       1.0  0.5922462540071577  0.30848106096527056  0.9365254684967256  1.0000
  C   C84       1.0  0.5984019895960914  0.36230198300661687  0.9932825177385284  1.0000
  C   C85       1.0  0.66296119737207  0.3517356692437373  0.0499611226077405  1.0000
  C   C86       1.0  0.719747148808267  0.2888383560815271  0.0494720751183664  1.0000
  C   C87       1.0  0.641273570241232  0.1918737418118894  0.8779189150886353  1.0000
  C   C88       1.0  0.6725929647419376  0.4051186625328781  0.10818461560708671  1.0000
  C   C89       1.0  0.7777106749401811  0.2750743595218665  0.1115367889170003  1.0000
  C   C90       1.0  0.5303949874838949  0.31812749053574396  0.8767881923281566  1.0000
  C   C91       1.0  0.2738769891979658  0.23798262189617245  0.9989055478195468  1.0000
  C   C92       1.0  0.3428135689533178  0.24032545290430102  0.0509972866728745  1.0000
  C   C93       1.0  0.40064052389762855  0.30345221860073923  0.050897145381661305  1.0000
  C   C94       1.0  0.3940246916459457  0.36202220571149707  0.9952206003081658  1.0000
  C   C95       1.0  0.32648181125630776  0.35741771053889687  0.9409089040465304  1.0000
  C   C96       1.0  0.26622102984499213  0.2970386073049269  0.944108234559998  1.0000
  C   C97       1.0  0.3544309279822713  0.1814642139878941  0.10709570503644981  1.0000
  C   C98       1.0  0.31592756589272863  0.41488927322163954  0.8831492322061649  1.0000
  C   C99       1.0  0.1972201083106739  0.2962593709395093  0.8900512416810573  1.0000
  C   C100      1.0  0.4619482641374972  0.30867188337889917  0.1111372874815615  1.0000
  N   N1        1.0  0.8470136350002165  0.15800332662763586  0.6966892474738202  1.0000
  N   N2        1.0  0.48144765758563335  0.8370226465018787  0.6890423030905382  1.0000
  N   N3        1.0  0.6801963470305878  0.16015011937410858  0.5311870700558148  1.0000
  N   N4        1.0  0.6168424244600106  0.8555194242459688  0.8698290438195289  1.0000
  N   N5        1.0  0.5029779458217831  0.16745776115349287  0.6733790839004996  1.0000
  N   N6        1.0  0.14560093150026893  0.8401988876544734  0.7165887133286191  1.0000
  N   N7        1.0  0.3457215229219699  0.16251393240225545  0.8488968584985486  1.0000
  N   N8        1.0  0.3084692614204272  0.8370562505366759  0.547511185893697  1.0000
  N   N9        1.0  0.8376310326173881  0.8350387053038658  0.2872848637898144  1.0000
  N   N10       1.0  0.48068745354984804  0.1628046756104595  0.3117099114355071  1.0000
  N   N11       1.0  0.6797892814321858  0.8367127827373507  0.4627220560311541  1.0000
  N   N12       1.0  0.6200760275697876  0.14911892317730488  0.12994213936434562  1.0000
  N   N13       1.0  0.3499449654385174  0.838253979960754  0.14617470302983554  1.0000
  N   N14       1.0  0.3062851018316267  0.158141914168759  0.4530017022842188  1.0000
  N   N15       1.0  0.501609909703113  0.8299137080546684  0.32327690065614695  1.0000
  N   N16       1.0  0.14536860392107093  0.15836565034651776  0.2844691261785783  1.0000
  N   N17       1.0  0.4785793362618307  0.668170635755473  0.1658481788541053  1.0000
  N   N18       1.0  0.8159497395003259  0.754045979538162  0.8307040472377949  1.0000
  N   N19       1.0  0.629492006508123  0.8477920206703116  0.16796407305511  1.0000
  N   N20       1.0  0.6833054365189997  0.5575794400096823  0.8340197633032462  1.0000
  N   N21       1.0  0.301216577841778  0.5349426963355838  0.15343505270408292  1.0000
  N   N22       1.0  0.3674414580183196  0.8683552134387394  0.8429506932172475  1.0000
  N   N23       1.0  0.1433996956521355  0.7089100667885191  0.15048082374932656  1.0000
  N   N24       1.0  0.5090949813380945  0.6897788886695719  0.8307775864819932  1.0000
  N   N25       1.0  0.8207313120821952  0.2606673959772862  0.164613406895981  1.0000
  N   N26       1.0  0.47930652033275584  0.3255957483769834  0.8280154420959251  1.0000
  N   N27       1.0  0.683989032959765  0.4509184554483595  0.1532648158096137  1.0000
  N   N28       1.0  0.6321447657689916  0.14841461333741524  0.8303244295740768  1.0000
  N   N29       1.0  0.14002548049924  0.2961121689416544  0.8464017988392885  1.0000
  N   N30       1.0  0.5109982259357011  0.3131485652948172  0.1614044407385364  1.0000
  N   N31       1.0  0.3035727060782066  0.46301701730926204  0.8376348259061077  1.0000
  N   N32       1.0  0.3666866896472527  0.13449193472997217  0.1537103742593828  1.0000
  O   O1        1.0  0.1272337466461835  0.20065199115197163  0.9998680548902285  1.0000
  O   O2        1.0  0.23170784934698221  0.10851849632859967  0.004164842848013002  1.0000
  O   O3        1.0  0.8573570151625702  0.993012511917918  0.1973505865475786  1.0000
  O   O4        1.0  0.7531562113871785  0.0005394084829788  0.10515420286400001  1.0000
  O   O5        1.0  0.12880526707888856  0.010633040951034897  0.1946481676912697  1.0000
  O   O6        1.0  0.23349983570461325  0.9934307449132402  0.1052501774557939  1.0000
  O   O7        1.0  0.8609997298499793  0.19897960586694546  0.987423969075394  1.0000
  O   O8        1.0  0.7561027071238301  0.10723066779637948  0.9900382311139352  1.0000
  O   O9        1.0  0.9928557379699827  0.20357212921401666  0.09429409384107153  1.0000
  O   O10       1.0  0.9922755097644824  0.2071760686494244  0.889436409294092  1.0000
  O   O11       1.0  0.9899756032638722  0.10425853476927219  0.20247092865460564  1.0000
  O   O12       1.0  0.0034099772566591005  0.910828583972474  0.21722544597878377  1.0000
  O   O13       1.0  0.0634164859731214  0.056431179699622185  0.05606670787324931  1.0000
  O   O14       1.0  0.9017119820759022  0.08015588578830797  0.0776372944303176  1.0000
  O   O15       1.0  0.8615379202029632  0.0073368136698946  0.7986691431079507  1.0000
  O   O16       1.0  0.7562038734573591  9.172573921749999e-05  0.8898371255275634  1.0000
  O   O17       1.0  0.1274786646259969  0.7997013728518707  0.995170285335803  1.0000
  O   O18       1.0  0.2317073255412723  0.8919669333918704  0.9925152771626244  1.0000
  O   O19       1.0  0.857429243116755  0.8018474864075388  0.016824212576857192  1.0000
  O   O20       1.0  0.7537316104329719  0.894148311119707  0.0043708756001166  1.0000
  O   O21       1.0  0.1258939035514075  0.9936944561675527  0.8005084974494068  1.0000
  O   O22       1.0  0.2317039673857266  0.0046826435707671985  0.8904214849113998  1.0000
  O   O23       1.0  0.991590304917523  0.8959848693194769  0.7962006310215699  1.0000
  O   O24       1.0  0.9976487021043569  0.10358292587969936  0.7930165855260399  1.0000
  O   O25       1.0  0.988860672964563  0.7964998555688607  0.903607818496944  1.0000
  O   O26       1.0  0.9937444793737882  0.7701339529468142  0.09076876517704591  1.0000
  O   O27       1.0  0.9016266379119104  0.919515138543808  0.9202211401536644  1.0000
  O   O28       1.0  0.06306709458753798  0.9426639347631958  0.9414886067612613  1.0000
  O   O29       1.0  0.9246293094250291  0.05894222829942207  0.9392505380699563  1.0000
  O   O30       1.0  0.08314734381342961  0.9151016899048583  0.08139877222505022  1.0000
  O   O31       1.0  0.08623922526872721  0.0812934324876196  0.9177291118440324  1.0000
  O   O32       1.0  0.922343925246537  0.9399007817922892  0.059490501725932204  1.0000
