data_image0
_chemical_formula_structural       Zn4H54C82S6N4O16
_chemical_formula_sum              "Zn4 H54 C82 S6 N4 O16"
_cell_length_a       12.761554943581043
_cell_length_b       13.8374733833448
_cell_length_c       28.028164276726127
_cell_angle_alpha    89.9846638547475
_cell_angle_beta     89.77412421481507
_cell_angle_gamma    89.88481992022066

_space_group_name_H-M_alt    "P 1"
_space_group_IT_number       1

loop_
  _space_group_symop_operation_xyz
  'x, y, z'

loop_
  _atom_site_type_symbol
  _atom_site_label
  _atom_site_symmetry_multiplicity
  _atom_site_fract_x
  _atom_site_fract_y
  _atom_site_fract_z
  _atom_site_occupancy
  Zn  Zn1       1.0  0.5000194240559139  0.39877020908308947  0.4991100608593301  1.0000
  Zn  Zn2       1.0  0.499283042595252  0.6012771616607324  0.4991609221361415  1.0000
  Zn  Zn3       1.0  0.500297111007221  0.6015123983155918  0.04406474082036029  1.0000
  Zn  Zn4       1.0  0.5004645123468593  0.3990393392244229  0.044018444446798796  1.0000
  H   H1        1.0  0.38608610599754206  0.24973228160092015  0.551339618307189  1.0000
  H   H2        1.0  0.6140216747682317  0.24888708711576157  0.44777400136172923  1.0000
  H   H3        1.0  0.6134742848026989  0.7505056718411822  0.4478714193359821  1.0000
  H   H4        1.0  0.38495190453430445  0.7509933520310453  0.551161511366665  1.0000
  H   H5        1.0  0.5014057108177213  0.6528571277208856  0.3365728047962477  1.0000
  H   H6        1.0  0.5014073164009789  0.3467832730125409  0.20664501704170848  1.0000
  H   H7        1.0  0.49958602280240433  0.6531215263205753  0.649393899922849  1.0000
  H   H8        1.0  0.4986857370014022  0.34716392588914863  0.6493128244353628  1.0000
  H   H9        1.0  0.49941212770882965  0.34665206246053504  0.893704987813436  1.0000
  H   H10       1.0  0.5003820134806817  0.6526667249784879  0.8938230539871341  1.0000
  H   H11       1.0  0.14293106682841744  0.3470597602437877  0.4992899138406841  1.0000
  H   H12       1.0  0.8564966066353821  0.6529277694358554  0.5002763264620214  1.0000
  H   H13       1.0  0.3868005956007182  0.7510980396776644  0.9921387160571769  1.0000
  H   H14       1.0  0.6145987240018657  0.750737316470797  0.0949497842887794  1.0000
  H   H15       1.0  0.614676655846104  0.2491453537945389  0.09491241497071458  1.0000
  H   H16       1.0  0.3867353065178777  0.2497603831056097  0.9921594252856778  1.0000
  H   H17       1.0  0.14289476729393163  0.6543170337805577  0.0448220753169224  1.0000
  H   H18       1.0  0.8580846491717437  0.3482090806846045  0.0439731001389632  1.0000
  H   H19       1.0  0.20689660739822807  0.9177930256203553  0.5892123135791465  1.0000
  H   H20       1.0  0.29432942997073047  0.8190501155904714  0.5936924882581207  1.0000
  H   H21       1.0  0.3045460712000363  0.9176229054246575  0.6335453074690988  1.0000
  H   H22       1.0  0.3050315391144949  0.08372522860986459  0.6336134681609877  1.0000
  H   H23       1.0  0.2946344765784802  0.18210946723431928  0.593645774290074  1.0000
  H   H24       1.0  0.20715794226973833  0.08355336477607982  0.5894092679955847  1.0000
  H   H25       1.0  0.7940078873881403  0.9163122277826757  0.4108778390698546  1.0000
  H   H26       1.0  0.706266732526352  0.8180311113726615  0.4062482938272041  1.0000
  H   H27       1.0  0.6967040233463423  0.9168185387324  0.3664418840024552  1.0000
  H   H28       1.0  0.6965563960790109  0.08256385360024149  0.3664418921438326  1.0000
  H   H29       1.0  0.7068241425620416  0.18106293474652801  0.4062963975086973  1.0000
  H   H30       1.0  0.7940990369649443  0.08216098221888048  0.4108107238452163  1.0000
  H   H31       1.0  0.4310472414619396  0.819149720927868  0.8127290477918478  1.0000
  H   H32       1.0  0.50083865913156  0.7679021424754069  0.8609986722425873  1.0000
  H   H33       1.0  0.5692762208842695  0.818744702852534  0.8121569905782451  1.0000
  H   H34       1.0  0.5692698191026366  0.8187481579439009  0.7307074901722785  1.0000
  H   H35       1.0  0.49987452689880735  0.7681931040900664  0.6823386466125854  1.0000
  H   H36       1.0  0.43100947648909493  0.8195190454874465  0.7310844837788366  1.0000
  H   H37       1.0  0.5674779120102329  0.18052109162155713  0.8120720550979427  1.0000
  H   H38       1.0  0.49851480175236423  0.23156161759234103  0.8607652262219858  1.0000
  H   H39       1.0  0.4292287438864832  0.1808838403127311  0.8122798661465965  1.0000
  H   H40       1.0  0.42882194804776214  0.18122924545725283  0.7306619887120077  1.0000
  H   H41       1.0  0.4986583063471103  0.2320181935817445  0.6821154171714453  1.0000
  H   H42       1.0  0.5670585293018888  0.18053463467801115  0.7306032967949747  1.0000
  H   H43       1.0  0.20847905951619344  0.0837799323737443  0.9546453698006515  1.0000
  H   H44       1.0  0.2959699005089647  0.18216308915164353  0.9498805268077746  1.0000
  H   H45       1.0  0.3062346678945715  0.0834995136558092  0.9100244151808423  1.0000
  H   H46       1.0  0.30642303565852563  0.9174203338950307  0.9100175182384334  1.0000
  H   H47       1.0  0.2958168311062438  0.8191108696203243  0.950037936168826  1.0000
  H   H48       1.0  0.2084581436952959  0.9180759125545349  0.9545250676395085  1.0000
  H   H49       1.0  0.7950774958794045  0.08236924807893328  0.1312095288059751  1.0000
  H   H50       1.0  0.7075193646136383  0.18112640774418054  0.1361397532175346  1.0000
  H   H51       1.0  0.6977158353911436  0.08238797125098778  0.17596141870834708  1.0000
  H   H52       1.0  0.6973307765652097  0.9165666775713247  0.17599515564429416  1.0000
  H   H53       1.0  0.7075378863741834  0.8181084309096461  0.1360453343150994  1.0000
  H   H54       1.0  0.7949226395459944  0.9166202026423561  0.1312892542542272  1.0000
  C   C1        1.0  0.4981389615491381  0.5001596687313992  0.5925083483921227  1.0000
  C   C2        1.0  0.294198945398179  0.49967199916522287  0.4997218633153437  1.0000
  C   C3        1.0  0.5020621101305239  0.500312776841227  0.40572936174995516  1.0000
  C   C4        1.0  0.7052327712079532  0.500390518704215  0.4985927802765673  1.0000
  C   C5        1.0  0.4991893306537277  0.49960209784378407  0.9506501812799542  1.0000
  C   C6        1.0  0.29494094938672794  0.5017115037030067  0.044136145271103495  1.0000
  C   C7        1.0  0.5020102237651758  0.49930899795705824  0.1374748427817849  1.0000
  C   C8        1.0  0.7059568059560917  0.500545009363968  0.0446916087394982  1.0000
  C   C9        1.0  0.43530635303634563  0.20365394623365773  0.5291487933802799  1.0000
  C   C10       1.0  0.43138765444737714  0.10241877074648897  0.531231413366136  1.0000
  C   C11       1.0  0.36201417135707464  0.050427145364011494  0.5629418261315848  1.0000
  C   C12       1.0  0.5650181532942045  0.20323871605205562  0.470197116331505  1.0000
  C   C13       1.0  0.5693839197430323  0.10199029453821142  0.46851369063841014  1.0000
  C   C14       1.0  0.6390291099313431  0.049711775053097484  0.4369776425605707  1.0000
  C   C15       1.0  0.5645072762741992  0.7965108893569306  0.470216994804197  1.0000
  C   C16       1.0  0.5691680022564826  0.8977291484279986  0.46851055518389007  1.0000
  C   C17       1.0  0.6389294056876196  0.9496873903784574  0.4369832052189508  1.0000
  C   C18       1.0  0.43457491069499093  0.7967578029446755  0.5290769870011474  1.0000
  C   C19       1.0  0.4310764449841075  0.8980275592731106  0.5312009567553986  1.0000
  C   C20       1.0  0.36186198469152236  0.9503969987366148  0.5629221480597977  1.0000
  C   C21       1.0  0.5004162947426848  0.05106570316106478  0.4999152575869417  1.0000
  C   C22       1.0  0.500293111867279  0.9490033752271502  0.4999124183902309  1.0000
  C   C23       1.0  0.5024307347348014  0.5792627931010587  0.3230175154150814  1.0000
  C   C24       1.0  0.5023397283313146  0.42038724420332585  0.22019153918166978  1.0000
  C   C25       1.0  0.5025689140097783  0.5000759314324483  0.3530888910537655  1.0000
  C   C26       1.0  0.5023817572568349  0.49958352170110487  0.19012056366126728  1.0000
  C   C27       1.0  0.5027018682081846  0.44912733402060917  0.2685359847873627  1.0000
  C   C28       1.0  0.502693904476594  0.5505285718198606  0.2746605619576243  1.0000
  C   C29       1.0  0.49881477479527087  0.5875196794041171  0.6707129614331393  1.0000
  C   C30       1.0  0.4989911063223076  0.5901216577984981  0.7207801017388816  1.0000
  C   C31       1.0  0.49955882497536663  0.6801145491527052  0.7470057012605196  1.0000
  C   C32       1.0  0.4982864040721894  0.4127048357709383  0.6706611033455232  1.0000
  C   C33       1.0  0.4983897610131294  0.409948170512564  0.7207138337884232  1.0000
  C   C34       1.0  0.49832543610239816  0.3198290202103422  0.7468518190399678  1.0000
  C   C35       1.0  0.4989710270422947  0.4122956455665303  0.8724201578055784  1.0000
  C   C36       1.0  0.4987413340981277  0.4097261790089632  0.8223552551213089  1.0000
  C   C37       1.0  0.4984596572143119  0.319723208345934  0.7961255873174621  1.0000
  C   C38       1.0  0.4995205567787694  0.5871075788818915  0.8724937424487464  1.0000
  C   C39       1.0  0.4993701130986638  0.5898953219182628  0.8224328917717685  1.0000
  C   C40       1.0  0.49973615775851243  0.6800022300440743  0.7962875995653746  1.0000
  C   C41       1.0  0.4983041009059051  0.5001435402242862  0.6459732150908977  1.0000
  C   C42       1.0  0.49867153727391417  0.4999793049168347  0.7462541979509822  1.0000
  C   C43       1.0  0.4991518399801863  0.4996529338854074  0.8971815279698133  1.0000
  C   C44       1.0  0.49887125465254917  0.4998750134495749  0.7968811338997097  1.0000
  C   C45       1.0  0.11284904520320542  0.42063425488093015  0.4998386933259766  1.0000
  C   C46       1.0  0.8865605619959  0.579351626690091  0.499924523101889  1.0000
  C   C47       1.0  0.1785814945675881  0.4998818139694805  0.500175581351975  1.0000
  C   C48       1.0  0.8208234712618321  0.5001211141017378  0.4991698510621632  1.0000
  C   C49       1.0  0.9928217636345239  0.5506721650133314  0.5002987225288962  1.0000
  C   C50       1.0  0.006588573004414401  0.4492937763342013  0.49988478189271757  1.0000
  C   C51       1.0  0.436157473234907  0.7969152999843272  0.0141367762923608  1.0000
  C   C52       1.0  0.43251120250144487  0.8981561149345652  0.0120195521552304  1.0000
  C   C53       1.0  0.36332130209242314  0.9505124551351823  0.9805071321110645  1.0000
  C   C54       1.0  0.5657138934159961  0.7966521058830622  0.072691850662828  1.0000
  C   C55       1.0  0.5702656786660043  0.8978712766560262  0.07433508974526859  1.0000
  C   C56       1.0  0.6399134094630909  0.9497944082248536  0.10565365656584898  1.0000
  C   C57       1.0  0.5658196047189109  0.20339869033907118  0.0726559127157529  1.0000
  C   C58       1.0  0.5703632491058457  0.10214399201958457  0.0743180964230561  1.0000
  C   C59       1.0  0.639955917877394  0.049817359171768785  0.10562999758778349  1.0000
  C   C60       1.0  0.4361798468389965  0.2037767436659621  0.014136675555846497  1.0000
  C   C61       1.0  0.4325497387400006  0.10254082282520471  0.0120176598164363  1.0000
  C   C62       1.0  0.3633379289793979  0.050543335325180294  0.9805002880784669  1.0000
  C   C63       1.0  0.5015256226948851  0.9491550886984325  0.0431207651768304  1.0000
  C   C64       1.0  0.5015446015484315  0.05121163390091248  0.0431127252793573  1.0000
  C   C65       1.0  0.11319916023391131  0.5807156903695442  0.044495013339918885  1.0000
  C   C66       1.0  0.8877685103502914  0.42179877990876236  0.044378673750721  1.0000
  C   C67       1.0  0.17933790520319093  0.5014946233590293  0.0441919743907135  1.0000
  C   C68       1.0  0.8215719382737277  0.5009453493527971  0.0447356793657647  1.0000
  C   C69       1.0  0.9938643664204039  0.450575503997527  0.0442653353623328  1.0000
  C   C70       1.0  0.007067986160109301  0.5519693783965494  0.0445456229190384  1.0000
  C   C71       1.0  0.2888968551856835  0.8977232856698548  0.5962246555976164  1.0000
  C   C72       1.0  0.2891845615063389  0.10346082024537401  0.5962760031443038  1.0000
  C   C73       1.0  0.7120081164453043  0.8966789178999619  0.40376776220730176  1.0000
  C   C74       1.0  0.7121611050024799  0.10239481077189788  0.4037654679939067  1.0000
  C   C75       1.0  0.5002440981141804  0.7755275341201081  0.8221914135168688  1.0000
  C   C76       1.0  0.49992453617228705  0.7757380781668032  0.7211500457136778  1.0000
  C   C77       1.0  0.4984003882576715  0.22408095834208547  0.8219496655999308  1.0000
  C   C78       1.0  0.4981873048531114  0.22432980222050955  0.7209227445395285  1.0000
  C   C79       1.0  0.29051965124261875  0.1035102604233202  0.9473919753224394  1.0000
  C   C80       1.0  0.290488919900497  0.897786414334618  0.9474122512035804  1.0000
  C   C81       1.0  0.7131106036727674  0.1024539653912697  0.1385883708250333  1.0000
  C   C82       1.0  0.7129552508478485  0.8967423937608033  0.1386049410283334  1.0000
  S   S1        1.0  0.5024336245523031  0.3902930964855712  0.32281109529140645  1.0000
  S   S2        1.0  0.5022561302871936  0.609356946335957  0.22038311524877938  1.0000
  S   S3        1.0  0.11181867082854073  0.6096235217236198  0.5005778037758475  1.0000
  S   S4        1.0  0.8875689963032019  0.39036674085974  0.49913871274875277  1.0000
  S   S5        1.0  0.11316458365490692  0.3917115863403921  0.0440082223685039  1.0000
  S   S6        1.0  0.8877083116141051  0.6107906425826569  0.04481104076887019  1.0000
  N   N1        1.0  0.5000338842546485  0.2510090631503701  0.49955062010455725  1.0000
  N   N2        1.0  0.4992455613769736  0.7490844725189804  0.4995121121932797  1.0000
  N   N3        1.0  0.5006526080500323  0.7492389567438593  0.04356823029119989  1.0000
  N   N4        1.0  0.5007396014135284  0.25116930588961855  0.04354730972049481  1.0000
  O   O1        1.0  0.49810923981264216  0.4181945637930937  0.5717369000536365  1.0000
  O   O2        1.0  0.49808061859397423  0.582140308352237  0.5717606382288735  1.0000
  O   O3        1.0  0.3387773931449091  0.5822166208906056  0.4995102182668916  1.0000
  O   O4        1.0  0.3392796312218637  0.4174608298144021  0.4994687904441619  1.0000
  O   O5        1.0  0.5017356409108232  0.5824964065841199  0.4261878440330094  1.0000
  O   O6        1.0  0.5018389668722634  0.41776514744489646  0.4261381957401013  1.0000
  O   O7        1.0  0.660631731549323  0.4178333275478323  0.49837097070453495  1.0000
  O   O8        1.0  0.6601741619736928  0.5825876761196082  0.49841481788133274  1.0000
  O   O9        1.0  0.49907104618743864  0.5815238043162125  0.9714415060341395  1.0000
  O   O10       1.0  0.499355911925811  0.41757883880542584  0.9713923458063005  1.0000
  O   O11       1.0  0.33989775385482096  0.41916325510949554  0.044174742010774495  1.0000
  O   O12       1.0  0.3396478813203387  0.5839134238676138  0.0440894271439234  1.0000
  O   O13       1.0  0.5021362168140869  0.41706823255300657  0.1170363269017543  1.0000
  O   O14       1.0  0.5015345125534338  0.5818052590844971  0.1170415341862778  1.0000
  O   O15       1.0  0.6609734031925569  0.5830730088930806  0.044663759593674995  1.0000
  O   O16       1.0  0.6612601452233166  0.4183179068463898  0.04463020045250939  1.0000
