data_image0
_chemical_formula_structural       Cu4H16C24N4O8
_chemical_formula_sum              "Cu4 H16 C24 N4 O8"
_cell_length_a       7.18243589192295
_cell_length_b       7.183713703422771
_cell_length_c       13.86858032238774
_cell_angle_alpha    82.55571690548484
_cell_angle_beta     74.98509328495557
_cell_angle_gamma    60.020286910225586

_space_group_name_H-M_alt    "P 1"
_space_group_IT_number       1

loop_
  _space_group_symop_operation_xyz
  'x, y, z'

loop_
  _atom_site_type_symbol
  _atom_site_label
  _atom_site_symmetry_multiplicity
  _atom_site_fract_x
  _atom_site_fract_y
  _atom_site_fract_z
  _atom_site_occupancy
  Cu  Cu1       1.0  0.9391051736729282  0.7079777867149987  0.515799969261579  1.0000
  Cu  Cu2       1.0  0.16180724598298463  0.29289931474643544  0.4842212536588875  1.0000
  Cu  Cu3       1.0  0.20444191330022912  0.20756766677501304  0.9841286683572789  1.0000
  Cu  Cu4       1.0  0.3964229892692328  0.7925154013441967  0.01592990188815688  1.0000
  H   H1        1.0  0.7858240909739601  0.6110886177877362  0.720869818204754  1.0000
  H   H2        1.0  0.11724617991333  0.38887555762309495  0.279114329572856  1.0000
  H   H3        1.0  0.25627869019680816  0.11107621582868889  0.7790350477859889  1.0000
  H   H4        1.0  0.14671672619178353  0.8896737669093112  0.22103888185695553  1.0000
  H   H5        1.0  0.2893866054361639  0.7358966412231637  0.5604656200501026  1.0000
  H   H6        1.0  0.5845910448872116  0.2653170987746734  0.43954639946901614  1.0000
  H   H7        1.0  0.5996359865353542  0.23500306724640296  0.9396109900285978  1.0000
  H   H8        1.0  0.775225628571796  0.7638145874403292  0.06041879857690447  1.0000
  H   H9        1.0  0.39819297697370326  0.7410553303138345  0.7148089825282113  1.0000
  H   H10       1.0  0.8532439926408985  0.2595292065665049  0.2851519998053647  1.0000
  H   H11       1.0  0.8629391016772276  0.24043890136950807  0.7852898370338578  1.0000
  H   H12       1.0  0.8895864251301472  0.758503342269904  0.21466612138220845  1.0000
  H   H13       1.0  0.879187661236059  0.6099333882017748  0.8825837466870112  1.0000
  H   H14       1.0  0.3713961602954041  0.38952601288490035  0.11736295572868018  1.0000
  H   H15       1.0  0.5114683082265257  0.1100971415561318  0.6173467273269609  1.0000
  H   H16       1.0  0.2394630741923647  0.8903490227590962  0.3826677787850273  1.0000
  C   C1        1.0  0.9198629820020514  0.6395121491991774  0.7230888793643899  1.0000
  C   C2        1.0  0.28191652902415837  0.3604499691324392  0.27688863889921583  1.0000
  C   C3        1.0  0.3925647044253395  0.13949549240235373  0.776845791105643  1.0000
  C   C4        1.0  0.3093911229726911  0.8607960331533066  0.22320011026578612  1.0000
  C   C5        1.0  0.20233909005159473  0.7069690397690633  0.6326265505304747  1.0000
  C   C6        1.0  0.5409460416697627  0.2937749995522693  0.3673946893778321  1.0000
  C   C7        1.0  0.5847559800249089  0.2063525795693693  0.8674278454233785  1.0000
  C   C8        1.0  0.6592971975212405  0.7929548401810962  0.13258245006819175  1.0000
  C   C9        1.0  0.2618359905730899  0.7114016002766163  0.719369788232477  1.0000
  C   C10       1.0  0.6917717310847066  0.289048504115101  0.2806313817108688  1.0000
  C   C11       1.0  0.7309751541611361  0.21099202731696215  0.780706978657875  1.0000
  C   C12       1.0  0.7234307153598822  0.7884650408759553  0.21927532595103832  1.0000
  C   C13       1.0  0.1447205056377854  0.6799566671391161  0.8116162015906526  1.0000
  C   C14       1.0  0.6356770047387316  0.31998089006581415  0.188358213611572  1.0000
  C   C15       1.0  0.7059819374510712  0.1799578743149652  0.6884164273720259  1.0000
  C   C16       1.0  0.5749932453801346  0.8199653797786935  0.31158309862733086  1.0000
  C   C17       1.0  0.9719698168170511  0.6403145393614764  0.8125774499071952  1.0000
  C   C18       1.0  0.4243949438721586  0.3593868242794471  0.18737510166877766  1.0000
  C   C19       1.0  0.5342274130943068  0.14035440704677168  0.6873700709388118  1.0000
  C   C20       1.0  0.3625234198195311  0.8598547891578506  0.3126420251617503  1.0000
  C   C21       1.0  0.20270528688773437  0.6868571235087305  0.9071007127335308  1.0000
  C   C22       1.0  0.7963238879480911  0.3128133617742678  0.09288004674137079  1.0000
  C   C23       1.0  0.8595442954789975  0.18697906336963402  0.592949922959278  1.0000
  C   C24       1.0  0.6401782811972792  0.8128233887970567  0.4070289313252005  1.0000
  N   N1        1.0  0.031224600696930074  0.6748067141568088  0.6340129135631116  1.0000
  N   N2        1.0  0.3392019800355468  0.3256784037449378  0.36599969966958673  1.0000
  N   N3        1.0  0.4149064839178178  0.17446541994650033  0.8659701180823376  1.0000
  N   N4        1.0  0.45588737821959285  0.8253962488831449  0.1340616399062853  1.0000
  O   O1        1.0  0.1180173543019405  0.6283767463881774  0.9873945513417723  1.0000
  O   O2        1.0  0.7337334389536634  0.37112068007191107  0.012534363642458846  1.0000
  O   O3        1.0  0.8550574054607625  0.128773034268761  0.5126245740350724  1.0000
  O   O4        1.0  0.49734168417266716  0.8705879490513767  0.4874144331307804  1.0000
  O   O5        1.0  0.34264378609130786  0.7559548158252412  0.897093858104725  1.0000
  O   O6        1.0  0.9952135489708522  0.24401166438435953  0.10295911929637912  1.0000
  O   O7        1.0  0.9895462482201149  0.25590385390383125  0.6030580467820742  1.0000
  O   O8        1.0  0.849125112527055  0.7443247971352063  0.3968803764311275  1.0000
