data_image0
_chemical_formula_structural       Cu2H12C6S6Cl4
_chemical_formula_sum              "Cu2 H12 C6 S6 Cl4"
_cell_length_a       4.147146694902301
_cell_length_b       6.756319195727372
_cell_length_c       14.033626216524599
_cell_angle_alpha    89.99051341175081
_cell_angle_beta     90.01634798296037
_cell_angle_gamma    97.34938623712951

_space_group_name_H-M_alt    "P 1"
_space_group_IT_number       1

loop_
  _space_group_symop_operation_xyz
  'x, y, z'

loop_
  _atom_site_type_symbol
  _atom_site_label
  _atom_site_symmetry_multiplicity
  _atom_site_fract_x
  _atom_site_fract_y
  _atom_site_fract_z
  _atom_site_occupancy
  Cu  Cu1       1.0  0.9999964345002894  0.5000023696924104  0.4999983079968615  1.0000
  Cu  Cu2       1.0  1.0209725424183177e-05  0.4999997074127124  1.8596012549999686e-07  1.0000
  H   H1        1.0  0.979717239778374  0.6451497442558606  0.249991385928773  1.0000
  H   H2        1.0  0.02027519434478358  0.354845275614494  0.7500016224593651  1.0000
  H   H3        1.0  0.267598510194233  0.46622935017285283  0.2500220322191424  1.0000
  H   H4        1.0  0.7324057493040784  0.533776115074602  0.7499731139704906  1.0000
  H   H5        1.0  0.8472219738729622  0.050930354666974216  0.41338936354024014  1.0000
  H   H6        1.0  0.15280585481497863  0.9491011058789169  0.9133132198376189  1.0000
  H   H7        1.0  0.15277505705758188  0.949075109660143  0.5866171835325744  1.0000
  H   H8        1.0  0.8471967714222471  0.05088495766396761  0.0866883402291236  1.0000
  H   H9        1.0  0.19577624642134592  0.13999855754855162  0.3424836060868515  1.0000
  H   H10       1.0  0.8042278837163295  0.8599938696261236  0.8423632668857834  1.0000
  H   H11       1.0  0.8042364149973905  0.860000936772316  0.6575165287152913  1.0000
  H   H12       1.0  0.1957735785793062  0.13999816297067016  0.15764256833789858  1.0000
  C   C1        1.0  0.009707772680243932  0.4857733389477661  0.2500025564058816  1.0000
  C   C2        1.0  0.9902940778363457  0.5142321258323933  0.7499975777018548  1.0000
  C   C3        1.0  0.9298685987852194  0.1258513763062794  0.34680547840037695  1.0000
  C   C4        1.0  0.0701475886118956  0.8741786761752764  0.8467419246823339  1.0000
  C   C5        1.0  0.07010882655850995  0.8741525985717121  0.6531918044422795  1.0000
  C   C6        1.0  0.9298496722367418  0.1258163420292746  0.1532603473737453  1.0000
  S   S1        1.0  0.7999072716516764  0.37312417092049105  0.3529887769036648  1.0000
  S   S2        1.0  0.20011030061716184  0.626895246621885  0.8529958969353757  1.0000
  S   S3        1.0  0.20009271016888872  0.6268723399149538  0.647009932336033  1.0000
  S   S4        1.0  0.7998906165249692  0.37310574089698173  0.14700566246102648  1.0000
  S   S5        1.0  0.7432075838546981  0.9788549118115174  0.2500393088265298  1.0000
  S   S6        1.0  0.256798156443196  0.02114607510096531  0.7499636759213146  1.0000
  Cl  Cl1       1.0  0.3673933695471234  0.7334108193220674  0.4395524208335502  1.0000
  Cl  Cl2       1.0  0.6326933005704163  0.2665732671569003  0.9395086947659479  1.0000
  Cl  Cl3       1.0  0.6326000803471031  0.26660061599943674  0.5604455749586066  1.0000
  Cl  Cl4       1.0  0.36732597127704025  0.7334232420234984  0.0604900152856729  1.0000
