data_image0
_chemical_formula_structural       Zn2H42C62N10O14
_chemical_formula_sum              "Zn2 H42 C62 N10 O14"
_cell_length_a       10.287374148315939
_cell_length_b       10.652273987
_cell_length_c       13.6499
_cell_angle_alpha    90.0
_cell_angle_beta     109.20765970481335
_cell_angle_gamma    90.0

_space_group_name_H-M_alt    "P 1"
_space_group_IT_number       1

loop_
  _space_group_symop_operation_xyz
  'x, y, z'

loop_
  _atom_site_type_symbol
  _atom_site_label
  _atom_site_symmetry_multiplicity
  _atom_site_fract_x
  _atom_site_fract_y
  _atom_site_fract_z
  _atom_site_occupancy
  Zn  Zn1       1.0  0.5406064654827389  0.6202300098610891  0.668492661928056  1.0000
  Zn  Zn2       1.0  0.040597236376982  0.3797611669524201  0.6684994212699351  1.0000
  H   H1        1.0  0.0381216068354959  0.7186578198554159  0.6503623872007368  1.0000
  H   H2        1.0  0.5381226009989106  0.2813202142244151  0.6503352708642964  1.0000
  H   H3        1.0  0.43689766036645483  0.2603800844199995  0.4081340035658485  1.0000
  H   H4        1.0  0.9368945370586986  0.7396223575937952  0.40812491406696694  1.0000
  H   H5        1.0  0.6931412731109957  0.0445867239783411  0.34605952600603723  1.0000
  H   H6        1.0  0.1931176328561364  0.9554166568021429  0.3460517230328081  1.0000
  H   H7        1.0  0.2570835768633941  0.1572903590392798  0.2587507911880351  1.0000
  H   H8        1.0  0.7570701598777134  0.8427036340742973  0.258744277629269  1.0000
  H   H9        1.0  0.9686073000167355  0.447564529960303  0.2651466497563746  1.0000
  H   H10       1.0  0.4685949828076019  0.5524266468531991  0.2651482477708882  1.0000
  H   H11       1.0  0.1474970816506911  0.5471141661501093  0.4164360098187956  1.0000
  H   H12       1.0  0.6474949877107292  0.4528929696971388  0.41644402549046333  1.0000
  H   H13       1.0  0.7400557396318845  0.2022816914613372  0.10418235073364458  1.0000
  H   H14       1.0  0.24005165736509326  0.797713240418929  0.1041764667109248  1.0000
  H   H15       1.0  0.5841682811027482  0.3080910239452308  0.9439916610999859  1.0000
  H   H16       1.0  0.0841755218816758  0.6918860713679109  0.9439988410954997  1.0000
  H   H17       1.0  0.9292576574045269  0.5083844075555106  0.9105031869485387  1.0000
  H   H18       1.0  0.4292597513444889  0.4916189732249734  0.9105127538232622  1.0000
  H   H19       1.0  0.0862013176977499  0.4050337050347609  0.0711445528767598  1.0000
  H   H20       1.0  0.5862074587001231  0.5949781246459409  0.07114655172339471  1.0000
  H   H21       1.0  0.2509608972323107  0.6662840261771024  0.6350735449152439  1.0000
  H   H22       1.0  0.7509680676024857  0.3337033955696356  0.6350486925664498  1.0000
  H   H23       1.0  0.6076481604546373  0.8038255503425588  0.8501094361539927  1.0000
  H   H24       1.0  0.1076451075556335  0.1962041159052674  0.8501125986347234  1.0000
  H   H25       1.0  0.4737891726896564  0.9548787434883295  0.9224211651851278  1.0000
  H   H26       1.0  0.9737675207616333  0.0451396575592042  0.9224235988757954  1.0000
  H   H27       1.0  0.8336263013576968  0.7118414349137012  0.7080913200122367  1.0000
  H   H28       1.0  0.3336253071942821  0.2881572520333293  0.7080818060436869  1.0000
  H   H29       1.0  0.4600872580007973  0.7761629122655052  0.4774059079075812  1.0000
  H   H30       1.0  0.9600769291184861  0.2238385909816003  0.47740455567618784  1.0000
  H   H31       1.0  0.8055091200996216  0.0182721548692371  0.4959460412333386  1.0000
  H   H32       1.0  0.3054978322582755  0.9817199607109616  0.4959478944781069  1.0000
  H   H33       1.0  0.3717386790874357  0.9629455656621602  0.15952421061158623  1.0000
  H   H34       1.0  0.8717087922170704  0.0370568763516346  0.15952093942969012  1.0000
  H   H35       1.0  0.2505645906321163  0.09754630807169208  0.005245393134778481  1.0000
  H   H36       1.0  0.7505367624973331  0.902447685041878  0.00524336501949562  1.0000
  H   H37       1.0  0.336579592759378  0.3170158788744288  0.9974911570081204  1.0000
  H   H38       1.0  0.8365692638770738  0.6829903182061301  0.9974956656255216  1.0000
  H   H39       1.0  0.6474857234005924  0.2726938871028892  0.2795975024531145  1.0000
  H   H40       1.0  0.1474785530304246  0.727306677377527  0.2795952483762179  1.0000
  H   H41       1.0  0.2166078058859497  0.9623635303138798  0.841135339497747  1.0000
  H   H42       1.0  0.7165974770036456  0.0376407892333006  0.8411164047199619  1.0000
  C   C1        1.0  0.4101485089048964  0.4668336550551402  0.5114599047889641  1.0000
  C   C2        1.0  0.9101515618039002  0.5331744195587973  0.511460405338731  1.0000
  C   C3        1.0  0.3034010100645119  0.4103677773717394  0.4202882458286226  1.0000
  C   C4        1.0  0.8033999454923375  0.5896299708086019  0.4202818646085547  1.0000
  C   C5        1.0  0.3341049925856865  0.3004841974498902  0.3759514228361738  1.0000
  C   C6        1.0  0.8341059867491013  0.6995182445639045  0.3759470172888228  1.0000
  C   C7        1.0  0.23494599311321449  0.2432804491475409  0.2931917721118751  1.0000
  C   C8        1.0  0.7349521341155949  0.7567191765661789  0.29319450356461374  1.0000
  C   C9        1.0  0.1040412909133366  0.2963667667441499  0.2549384933209282  1.0000
  C   C10       1.0  0.6040433144445387  0.7036319202028807  0.25494533209533193  1.0000
  C   C11       1.0  0.0713372467709092  0.4072135212907355  0.2967303046608762  1.0000
  C   C12       1.0  0.5713300059919817  0.592791737023127  0.2967341137568553  1.0000
  C   C13       1.0  0.1715235553005101  0.46348789056921896  0.3796853340887907  1.0000
  C   C14       1.0  0.6715204319927537  0.5365173677446435  0.3796901641058028  1.0000
  C   C15       1.0  0.9209475712139223  0.2964822350471152  0.09441623668958236  1.0000
  C   C16       1.0  0.42095172388946617  0.7035211457333688  0.09442118578211732  1.0000
  C   C17       1.0  0.7806231243428812  0.2680038087157754  0.060297722878125626  1.0000
  C   C18       1.0  0.2806211008116719  0.7319845517976518  0.06030187319521471  1.0000
  C   C19       1.0  0.6942849007287037  0.3275704327788063  0.9722795405698221  1.0000
  C   C20       1.0  0.1942880240364602  0.6724169889679317  0.9722864322503995  1.0000
  C   C21       1.0  0.7478161434211827  0.4152850372980197  0.9193051631420845  1.0000
  C   C22       1.0  0.2478141198899735  0.5847061395154824  0.9193049178225792  1.0000
  C   C23       1.0  0.6545904199059294  0.4786151770243592  0.8253843326493425  1.0000
  C   C24       1.0  0.1545842789035561  0.5213778773225215  0.8253837990149082  1.0000
  C   C25       1.0  0.8891092253851697  0.44258812773250616  0.9546799732867656  1.0000
  C   C26       1.0  0.3891102899573369  0.5574171305813564  0.9546841566885291  1.0000
  C   C27       1.0  0.9764037316787791  0.38368708925323597  0.042586544001501594  1.0000
  C   C28       1.0  0.4764078843543302  0.6163209853607015  0.0425914930940436  1.0000
  C   C29       1.0  0.2967842338929216  0.7325149549779439  0.6979302578360489  1.0000
  C   C30       1.0  0.7967841986885418  0.2674846707357759  0.6979138753608466  1.0000
  C   C31       1.0  0.4957352940303963  0.8093849266853255  0.8191937463126422  1.0000
  C   C32       1.0  0.9957332000904273  0.19061563779508356  0.8191885750745201  1.0000
  C   C33       1.0  0.4208117298696621  0.8931698538369588  0.857895364642026  1.0000
  C   C34       1.0  0.9208065478263164  0.1068354044769109  0.8578872298948285  1.0000
  C   C35       1.0  0.2145521584038974  0.8142092487092185  0.7322219201026883  1.0000
  C   C36       1.0  0.714551093831723  0.1858025809714832  0.732214073670427  1.0000
  C   C37       1.0  0.9848363126367232  0.9042106888871544  0.6562628231370623  1.0000
  C   C38       1.0  0.4848322303699319  0.0957776716262728  0.6562569391143356  1.0000
  C   C39       1.0  0.8371251224851407  0.8687609811101283  0.6056621202113349  1.0000
  C   C40       1.0  0.3371220695861439  0.131236767070213  0.6056586892371669  1.0000
  C   C41       1.0  0.7762565461661737  0.7696957485327617  0.64176069579797  1.0000
  C   C42       1.0  0.2762514345315878  0.2303038771809582  0.6417545565449885  1.0000
  C   C43       1.0  0.5667215263839793  0.8056974511239616  0.5130106231229092  1.0000
  C   C44       1.0  0.0667112679104349  0.19430499088982597  0.5130046729308404  1.0000
  C   C45       1.0  0.6200674828737718  0.9053822697172436  0.47137500303769303  1.0000
  C   C46       1.0  0.1200551656646383  0.0946145396964084  0.4713722054156051  1.0000
  C   C47       1.0  0.7569301658579022  0.9393890930905542  0.5212909771669842  1.0000
  C   C48       1.0  0.2569178486487687  0.0606086550897871  0.5212903773631936  1.0000
  C   C49       1.0  0.5255797544446494  0.9687790618786281  0.376922211024592  1.0000
  C   C50       1.0  0.0255602316609682  0.031229012735309404  0.3769161615784924  1.0000
  C   C51       1.0  0.5167735129779558  0.108832161228186  0.23166440792892468  1.0000
  C   C52       1.0  0.0167632545044043  0.8911740358523729  0.2316518642819574  1.0000
  C   C53       1.0  0.404620803858009  0.0584429203341728  0.15302809441063658  1.0000
  C   C54       1.0  0.9046001812977735  0.9415576441462434  0.15302785290715804  1.0000
  C   C55       1.0  0.3389471386826344  0.1335714798301666  0.06763986837255942  1.0000
  C   C56       1.0  0.8389193105478512  0.866424390816789  0.06764516631827182  1.0000
  C   C57       1.0  0.3869270008689867  0.2554722121606261  0.06321027900659001  1.0000
  C   C58       1.0  0.8869012314697855  0.7445274135530937  0.06321535480672225  1.0000
  C   C59       1.0  0.5590537656960279  0.23147076417759394  0.2196743108408512  1.0000
  C   C60       1.0  0.05904453659027099  0.7685363716696543  0.21967227890953467  1.0000
  C   C61       1.0  0.2782597310951829  0.8975642207164752  0.8132207962607012  1.0000
  C   C62       1.0  0.7782555784196319  0.1024457314308478  0.8132107189254612  1.0000
  N   N1        1.0  0.4341852762326468  0.7319488786634025  0.7398785591401378  1.0000
  N   N2        1.0  0.9341800941893014  0.2680488695169316  0.7398689591807397  1.0000
  N   N3        1.0  0.0719775135379734  0.8043193416219053  0.6851307299816443  1.0000
  N   N4        1.0  0.5719795370691827  0.19567089642490737  0.6851177883913523  1.0000
  N   N5        1.0  0.6420928655345506  0.7416219306451453  0.596920561095267  1.0000
  N   N6        1.0  0.1420877538999648  0.2583776950685746  0.5969129566300921  1.0000
  N   N7        1.0  0.5879460609020271  0.0401350923306865  0.3221091413548294  1.0000
  N   N8        1.0  0.0879265381183387  0.9598645333830335  0.3220994288782322  1.0000
  N   N9        1.0  0.4959669017837527  0.3036140455969303  0.13753702136870774  1.0000
  N   N10       1.0  0.9959514260624829  0.6963874576501752  0.13753805601652402  1.0000
  O   O1        1.0  0.383234658596507  0.5757503052854958  0.5419642161982239  1.0000
  O   O2        1.0  0.8832428583344694  0.4242605856285167  0.5419703885358729  1.0000
  O   O3        1.0  0.520947599377422  0.4085587739586174  0.5557361654303463  1.0000
  O   O4        1.0  0.0209548401563495  0.5914464843552452  0.5557250302733721  1.0000
  O   O5        1.0  0.5315459701712442  0.4432283666156138  0.7846865533303103  1.0000
  O   O6        1.0  0.0315408585366583  0.5567637489645776  0.7846862749261234  1.0000
  O   O7        1.0  0.7056254457010738  0.5713193265050407  0.7879259385847702  1.0000
  O   O8        1.0  0.2056295983766177  0.42867372784184704  0.787926492040711  1.0000
  O   O9        1.0  0.0052549225818197  0.2299095951708381  0.17880241932873284  1.0000
  O   O10       1.0  0.5052507699062758  0.7700881530095032  0.17880406369108934  1.0000
  O   O11       1.0  0.0213099720448398  0.015591037200387303  0.6680446761526824  1.0000
  O   O12       1.0  0.521296555059152  0.9844048334465754  0.6680447560488147  1.0000
  O   O13       1.0  0.398345777793601  0.9557414700771502  0.3514883280907881  1.0000
  O   O14       1.0  0.8983405957502555  0.0442637882367123  0.3514882520106895  1.0000
