data_image0
_chemical_formula_structural       Cd6H40C40O38
_chemical_formula_sum              "Cd6 H40 C40 O38"
_cell_length_a       6.631236137904144
_cell_length_b       11.627798225
_cell_length_c       17.4396
_cell_angle_alpha    90.0
_cell_angle_beta     98.97035534882886
_cell_angle_gamma    90.0

_space_group_name_H-M_alt    "P 1"
_space_group_IT_number       1

loop_
  _space_group_symop_operation_xyz
  'x, y, z'

loop_
  _atom_site_type_symbol
  _atom_site_label
  _atom_site_symmetry_multiplicity
  _atom_site_fract_x
  _atom_site_fract_y
  _atom_site_fract_z
  _atom_site_occupancy
  Cd  Cd1       1.0  0.2500179208644226  0.8307746499445301  0.2500045746202062  1.0000
  Cd  Cd2       1.0  0.7500033819173735  0.1692332427792849  0.7499998421285026  1.0000
  Cd  Cd3       1.0  0.8089640395901583  0.3468945643834473  0.5286096299912159  1.0000
  Cd  Cd4       1.0  0.6910213506245029  0.3468859643030129  0.971385346613367  1.0000
  Cd  Cd5       1.0  0.19102062270007278  0.6531107483162373  0.4713880271422539  1.0000
  Cd  Cd6       1.0  0.3089541515428351  0.65310644827602  0.0286111940239451  1.0000
  H   H1        1.0  0.5275482708308984  0.4559298241520722  0.26185786645621073  1.0000
  H   H2        1.0  0.9724569663166915  0.4559478843209774  0.2381336995789809  1.0000
  H   H3        1.0  0.47245776507941156  0.5440565683706637  0.7381387642532147  1.0000
  H   H4        1.0  0.027541436157875392  0.5440677484752285  0.7618636253719657  1.0000
  H   H5        1.0  0.3784947511543209  0.2030951994783194  0.0817473064392118  1.0000
  H   H6        1.0  0.1214815497757371  0.203115839671355  0.41824856479586  1.0000
  H   H7        1.0  0.6214944911973601  0.7968886130202861  0.9182517690538106  1.0000
  H   H8        1.0  0.8784970057659008  0.7968920530524599  0.5817452898327244  1.0000
  H   H9        1.0  0.5286963395665296  0.0975180320520224  0.3213349796291141  1.0000
  H   H10       1.0  0.9713043175196174  0.0975360922209347  0.17865918190005198  1.0000
  H   H11       1.0  0.4713081696566377  0.9024683604707135  0.6786621339731977  1.0000
  H   H12       1.0  0.028694084954949493  0.9024829806074522  0.8213329823820741  1.0000
  H   H13       1.0  0.6884580429022761  0.9928070453768144  0.1354716576257147  1.0000
  H   H14       1.0  0.8115456675581711  0.9928225255215963  0.36453472649354507  1.0000
  H   H15       1.0  0.311526619387962  0.007175907113747801  0.8645328803995225  1.0000
  H   H16       1.0  0.18845884166498905  0.0071767671217913  0.6354595200705404  1.0000
  H   H17       1.0  0.4792988501915757  0.0403515773941834  0.06621930753218659  1.0000
  H   H18       1.0  0.0207201979786404  0.0403618974906976  0.4337813917465425  1.0000
  H   H19       1.0  0.5206995522829914  0.9596399751768133  0.933782031272294  1.0000
  H   H20       1.0  0.9792827845573696  0.9596485752572478  0.5662104706721962  1.0000
  H   H21       1.0  0.3023451228772345  0.5865504258008372  0.2101530009275336  1.0000
  H   H22       1.0  0.19782659400782165  0.5865426857284463  0.28986191049526866  1.0000
  H   H23       1.0  0.6977540409491283  0.41345488689884763  0.7898588991117917  1.0000
  H   H24       1.0  0.8022710431313909  0.41345574690689096  0.710147031991063  1.0000
  H   H25       1.0  0.9637350026376479  0.8802302724856547  0.12057663375319548  1.0000
  H   H26       1.0  0.5362809213199853  0.8802534927028277  0.3794574246434905  1.0000
  H   H27       1.0  0.03626950658551209  0.119759560069248  0.879448003416172  1.0000
  H   H28       1.0  0.4637251145903248  0.11975870006120463  0.6205627157794564  1.0000
  H   H29       1.0  0.9397553275970906  0.7509512833845235  0.13636173520602313  1.0000
  H   H30       1.0  0.5602422761147636  0.7509779436338634  0.36366034226834637  1.0000
  H   H31       1.0  0.0602354414417334  0.2490351091382124  0.8636529128082273  1.0000
  H   H32       1.0  0.43975765304695347  0.2490376891623427  0.6363496881655947  1.0000
  H   H33       1.0  0.3405840558842356  0.3612369185224651  0.5317365073363121  1.0000
  H   H34       1.0  0.15941819872734433  0.36124379858681277  0.9682597558342606  1.0000
  H   H35       1.0  0.6594036597802955  0.638755494056575  0.4682693585337248  1.0000
  H   H36       1.0  0.8405802037472226  0.6387589340887416  0.0317450234161072  1.0000
  H   H37       1.0  0.44416977890595166  0.4416115502382639  0.5964108124868943  1.0000
  H   H38       1.0  0.055824842269892386  0.441615850278481  0.9035844247022666  1.0000
  H   H39       1.0  0.5558072499485434  0.5583997825177249  0.4035846718498703  1.0000
  H   H40       1.0  0.9441613467074885  0.5583696822362114  0.09641274953831669  1.0000
  C   C1        1.0  0.5321237522147797  0.2799179979750619  0.2999522543784678  1.0000
  C   C2        1.0  0.9678784315585175  0.2799291780796267  0.2000431444807447  1.0000
  C   C3        1.0  0.4678777036340874  0.7200726945878841  0.7000481186402254  1.0000
  C   C4        1.0  0.032119970916049595  0.720082154676362  0.7999524602472688  1.0000
  C   C5        1.0  0.5031884506903737  0.3667203298068955  0.24407092171942676  1.0000
  C   C6        1.0  0.9968076263343235  0.3667375299677573  0.2559223948578406  1.0000
  C   C7        1.0  0.4968114784713363  0.6332660627158404  0.7559276405615732  1.0000
  C   C8        1.0  0.0031846693916505998  0.6332755228043183  0.744070554180574  1.0000
  C   C9        1.0  0.4468460614771672  0.3382385834270849  0.16577118672189775  1.0000
  C   C10       1.0  0.05313634620148379  0.3382549235799104  0.3342204593110054  1.0000
  C   C11       1.0  0.5531462342488069  0.6617503891197742  0.8342246293547504  1.0000
  C   C12       1.0  0.9468437360273041  0.6617546891599915  0.6657746326476186  1.0000
  C   C13       1.0  0.42284959287797347  0.2230190058187063  0.1429873207699757  1.0000
  C   C14       1.0  0.07712976142638438  0.22303276594740143  0.3570052910487219  1.0000
  C   C15       1.0  0.5771411761608505  0.7769708267362034  0.8570101250148594  1.0000
  C   C16       1.0  0.9228518474895537  0.7769759867844641  0.6429870243864286  1.0000
  C   C17       1.0  0.4525100707978779  0.1371024822715299  0.19945982564694728  1.0000
  C   C18       1.0  0.047473863567915886  0.13711538239218163  0.3005353513465892  1.0000
  C   C19       1.0  0.547477644866646  0.8628873502833798  0.8005397327389685  1.0000
  C   C20       1.0  0.9525184321580582  0.8628968103718507  0.699456450876525  1.0000
  C   C21       1.0  0.5067379983104985  0.164773241066456  0.2774478402270191  1.0000
  C   C22       1.0  0.9932611320884985  0.1647878612031874  0.22254508397210057  1.0000
  C   C23       1.0  0.4932619308512116  0.8352148714723668  0.7225495752386877  1.0000
  C   C24       1.0  0.0067372703860684  0.8352243315608447  0.777444213271792  1.0000
  C   C25       1.0  0.600467429101883  0.3076541173812828  0.3834722301733606  1.0000
  C   C26       1.0  0.8995439147943073  0.3076670175019345  0.11652371177436999  1.0000
  C   C27       1.0  0.39954318686987017  0.6923339951575401  0.6165269657109035  1.0000
  C   C28       1.0  0.10045754105455977  0.692349475302322  0.8834743676137364  1.0000
  C   C29       1.0  0.40510948821308546  0.42985008023735116  0.1055734668215038  1.0000
  C   C30       1.0  0.0948759728398585  0.42986470037408964  0.3944183602409126  1.0000
  C   C31       1.0  0.5948919676357747  0.5701423323416819  0.8944251859742492  1.0000
  C   C32       1.0  0.9050995293274795  0.5701449123658122  0.6055770335811059  1.0000
  C   C33       1.0  0.5224811961852253  0.9857145590432737  0.1176808682546451  1.0000
  C   C34       1.0  0.9775194609009218  0.9857257391478313  0.3823167337204082  1.0000
  C   C35       1.0  0.47750651947930567  0.0142761335196795  0.8823209837618649  1.0000
  C   C36       1.0  0.0224850483222383  0.0142838735920705  0.6176717787672031  1.0000
  C   C37       1.0  0.4702623889599522  0.8632846739994094  0.09494110249094229  1.0000
  C   C38       1.0  0.029721545405848794  0.8632924140717934  0.4050552213178946  1.0000
  C   C39       1.0  0.5297085331459428  0.136710318603761  0.9050580336403513  1.0000
  C   C40       1.0  0.9702844905044612  0.1367163386600652  0.5949391157609369  1.0000
  O   O1        1.0  0.6358407703312565  0.412769460488292  0.4036983131548624  1.0000
  O   O2        1.0  0.8641491999448545  0.41277978058481324  0.09629177432515229  1.0000
  O   O3        1.0  0.3641591588304607  0.5872195120585674  0.5962973820878972  1.0000
  O   O4        1.0  0.13585072921686248  0.5872358522113929  0.9037022006946669  1.0000
  O   O5        1.0  0.2501202089033683  0.6340899504213766  0.25001924022333094  1.0000
  O   O6        1.0  0.7500278089117456  0.3659102022300544  0.7500058776257176  1.0000
  O   O7        1.0  0.6320515328288252  0.2256222501659408  0.4322764950538626  1.0000
  O   O8        1.0  0.8679613377545081  0.22563945032680274  0.067715523555087  1.0000
  O   O9        1.0  0.367952976394335  0.7743641423567951  0.567719471733156  1.0000
  O   O10       1.0  0.132034011345759  0.774381342517664  0.9322776065128268  1.0000
  O   O11       1.0  0.9436392197027246  0.8284861685411613  0.16272907210027648  1.0000
  O   O12       1.0  0.5563614373834227  0.8285179888387688  0.337298920480066  1.0000
  O   O13       1.0  0.05634544258750649  0.1714993639735241  0.8372909479314287  1.0000
  O   O14       1.0  0.4436491785883305  0.1715028040056978  0.6627174776336062  1.0000
  O   O15       1.0  0.3835465589285079  0.404479842958402  0.034017048430151  1.0000
  O   O16       1.0  0.11644042881158607  0.4044936030870971  0.46597716277759815  1.0000
  O   O17       1.0  0.6164472634846163  0.5955117096125875  0.9659805783841903  1.0000
  O   O18       1.0  0.8835503402272378  0.5955108496045513  0.5340208564148838  1.0000
  O   O19       1.0  0.45625198099870795  0.3628907139898345  0.5753531376598886  1.0000
  O   O20       1.0  0.043745693551421994  0.36289673404613865  0.9246434273740718  1.0000
  O   O21       1.0  0.543731154604373  0.6371137387018067  0.4246518832582495  1.0000
  O   O22       1.0  0.9562572889845882  0.6370965385409448  0.07536277023584148  1.0000
  O   O23       1.0  0.3885968400155519  0.5337854923088869  0.1294167028880651  1.0000
  O   O24       1.0  0.11139625447313507  0.5337975324214881  0.37057787037869616  1.0000
  O   O25       1.0  0.611407669207608  0.4662034802379793  0.8705827043448408  1.0000
  O   O26       1.0  0.8885853544427957  0.46620864028624  0.6294178855023275  1.0000
  O   O27       1.0  0.4213427526624614  0.021500201083853202  0.1809756909135913  1.0000
  O   O28       1.0  0.07864576176478268  0.021519981268852507  0.3190174639936174  1.0000
  O   O29       1.0  0.5786434363149197  0.9784844714227887  0.8190191896963979  1.0000
  O   O30       1.0  0.9213480606483413  0.9784930715032232  0.6809715617060161  1.0000
  O   O31       1.0  0.3537196721094205  0.803956159120574  0.1321070300220555  1.0000
  O   O32       1.0  0.14624594201060148  0.8039552991125305  0.3678864873868121  1.0000
  O   O33       1.0  0.6462283496892524  0.19604571354694403  0.8678901749803032  1.0000
  O   O34       1.0  0.8537555138382658  0.19604829357107434  0.6321047111095339  1.0000
  O   O35       1.0  0.5389404103325646  0.8240356269168033  0.03702295473345169  1.0000
  O   O36       1.0  0.9610526133178394  0.8240528270776724  0.46297706170606995  1.0000
  O   O37       1.0  0.4610350918347734  0.1759413055174477  0.9629827604262075  1.0000
  O   O38       1.0  0.0389686894639567  0.175961085702447  0.5370204741508714  1.0000
