data_image0
_chemical_formula_structural       Cu2H34C26S2N4O14
_chemical_formula_sum              "Cu2 H34 C26 S2 N4 O14"
_cell_length_a       8.90404448116702
_cell_length_b       9.352693191596869
_cell_length_c       12.452626104820677
_cell_angle_alpha    98.32867896999835
_cell_angle_beta     91.61629731666088
_cell_angle_gamma    102.25421585212125

_space_group_name_H-M_alt    "P 1"
_space_group_IT_number       1

loop_
  _space_group_symop_operation_xyz
  'x, y, z'

loop_
  _atom_site_type_symbol
  _atom_site_label
  _atom_site_symmetry_multiplicity
  _atom_site_fract_x
  _atom_site_fract_y
  _atom_site_fract_z
  _atom_site_occupancy
  Cu  Cu1       1.0  0.9999992333628283  1.9404345650000534e-06  1.7030436864873249e-06  1.0000
  Cu  Cu2       1.0  0.5000020568410334  4.293504140699613e-06  8.632522891967811e-07  1.0000
  H   H1        1.0  0.7141000493121509  0.29894572081463616  0.07934489385034742  1.0000
  H   H2        1.0  0.2859010691570134  0.7010570250771266  0.9206509959251649  1.0000
  H   H3        1.0  0.6805610744371222  0.4636688714972977  0.8056937466388945  1.0000
  H   H4        1.0  0.3194429059635695  0.5363416327113626  0.1943038338884264  1.0000
  H   H5        1.0  0.5835359838360503  0.5778981571362536  0.8893502779409631  1.0000
  H   H6        1.0  0.4164713179701565  0.42211237495812537  0.11065141132350223  1.0000
  H   H7        1.0  0.49760860958100755  0.3833856132396677  0.8537581060836602  1.0000
  H   H8        1.0  0.5023940814127884  0.616629333544836  0.14624311540833193  1.0000
  H   H9        1.0  0.8447912838273695  0.5196553793428651  0.10170587285959701  1.0000
  H   H10       1.0  0.15521239678088247  0.4803440764951432  0.8982945617664343  1.0000
  H   H11       1.0  0.7510849411103775  0.6549157539057617  0.05516154368999081  1.0000
  H   H12       1.0  0.24892156104856866  0.3450914774400857  0.944843794737352  1.0000
  H   H13       1.0  0.8939946142390623  0.5907698221563252  0.9782335180857586  1.0000
  H   H14       1.0  0.10601252252811831  0.40923519219933274  0.02177080312162621  1.0000
  H   H15       1.0  0.7503159918470672  0.0069519847152506  0.8453533871545034  1.0000
  H   H16       1.0  0.24968157960629606  0.9930452413384786  0.15464584540104911  1.0000
  H   H17       1.0  0.5939252128950088  0.036443912315128606  0.7191405845705391  1.0000
  H   H18       1.0  0.4060713899489983  0.9635488711957978  0.28085574866587854  1.0000
  H   H19       1.0  0.6944516504771131  0.07635227208064782  0.5999350659653686  1.0000
  H   H20       1.0  0.30554542152876246  0.9236427391482778  0.4000639218241844  1.0000
  H   H21       1.0  0.6212553964774727  0.21665842961396461  0.6805387411437138  1.0000
  H   H22       1.0  0.37874144599507525  0.7833354656070881  0.3194585177380844  1.0000
  H   H23       1.0  0.8953597097522064  0.3926931257194965  0.7322423304131506  1.0000
  H   H24       1.0  0.10463622819793984  0.6073018876748153  0.26775742983035405  1.0000
  H   H25       1.0  0.9475792776814486  0.2624192445352094  0.6296758593659675  1.0000
  H   H26       1.0  0.05241532696526716  0.7375746421234126  0.3703205346366047  1.0000
  H   H27       1.0  0.0417690992146689  0.29663362595582043  0.7625239693161133  1.0000
  H   H28       1.0  0.9582299709885049  0.7033602821254022  0.23747495770727062  1.0000
  H   H29       1.0  0.6433505903168494  0.8551437166507156  0.2768073324372367  1.0000
  H   H30       1.0  0.3566463162426459  0.144855739286406  0.7231953271254028  1.0000
  H   H31       1.0  0.7649655188508149  0.8247801843625027  0.4487699537244013  1.0000
  H   H32       1.0  0.2350349250366222  0.17521483326347465  0.551229126490405  1.0000
  H   H33       1.0  0.13181719179148393  0.20142013943982556  0.4182451684599044  1.0000
  H   H34       1.0  0.8681841061423157  0.7985737815015668  0.5817554267050724  1.0000
  C   C1        1.0  0.6475801496322973  0.30729907001830986  0.005788130755725297  1.0000
  C   C2        1.0  0.35242848196163834  0.692707002309277  0.9942067044945591  1.0000
  C   C3        1.0  0.6054750463659957  0.46596388871693517  0.8741096580582237  1.0000
  C   C4        1.0  0.3945277696933473  0.5340466305503142  0.1258911047101847  1.0000
  C   C5        1.0  0.8001073534126917  0.557663584091131  0.030715862724896736  1.0000
  C   C6        1.0  0.19989508826469662  0.4423402928340607  0.9692841965539216  1.0000
  C   C7        1.0  0.8443385398693553  0.0982801751505846  0.8317143088475305  1.0000
  C   C8        1.0  0.15565427592296996  0.9017159392590912  0.16828548135372048  1.0000
  C   C9        1.0  0.6734051523326413  0.1207397123061895  0.6835556968618519  1.0000
  C   C10       1.0  0.32659280400521595  0.8792541893449554  0.3164423960907428  1.0000
  C   C11       1.0  0.9325193008007916  0.2872990489515246  0.7171251965748553  1.0000
  C   C12       1.0  0.06748001912612266  0.7126959665421067  0.2828738528315284  1.0000
  C   C13       1.0  0.7382625827174535  0.04265906649637691  0.1428640481331271  1.0000
  C   C14       1.0  0.2617330950063987  0.9573448062301895  0.8571374328199256  1.0000
  C   C15       1.0  0.8196400955712875  0.0393637220088365  0.24863335736628045  1.0000
  C   C16       1.0  0.18035721565578194  0.9606423633771399  0.7513675958988203  1.0000
  C   C17       1.0  0.7514246193764151  0.9299035920961817  0.308819641012974  1.0000
  C   C18       1.0  0.24857207784017277  0.0700947392376037  0.6911796831171557  1.0000
  C   C19       1.0  0.8208942355314051  0.9137284451456368  0.4063087346382019  1.0000
  C   C20       1.0  0.1791088714471911  0.08626323944923801  0.5936868578033625  1.0000
  C   C21       1.0  0.9612574928863964  0.008552026259387401  0.44865712359253257  1.0000
  C   C22       1.0  0.038743835333022565  0.9914418817887953  0.5513410617853225  1.0000
  C   C23       1.0  0.026001941754174095  0.12093813312595358  0.3893623693888273  1.0000
  C   C24       1.0  0.9739964837455517  0.8790579962431978  0.6106383781168958  1.0000
  C   C25       1.0  0.9578931990494937  0.135998212592547  0.29088313506376556  1.0000
  C   C26       1.0  0.042107474371270805  0.8639979210413035  0.7091176740587956  1.0000
  S   S1        1.0  0.0541102412560903  0.2799092078549208  0.2201682078570215  1.0000
  S   S2        1.0  0.9458895478326924  0.7200880353567172  0.7798334961024979  1.0000
  N   N1        1.0  0.6816974946613782  0.4373515375438758  0.9714625286579948  1.0000
  N   N2        1.0  0.3183068605286011  0.5626556465599254  0.028534715528742524  1.0000
  N   N3        1.0  0.8181847148310339  0.16713973547287964  0.7490293949213368  1.0000
  N   N4        1.0  0.18181436546734633  0.8328541683106112  0.2509687288396734  1.0000
  O   O1        1.0  0.7940754357423715  0.015058068559248702  0.0512661466996107  1.0000
  O   O2        1.0  0.2059194827150463  0.9849424862278442  0.9487357703668167  1.0000
  O   O3        1.0  0.6007057620318433  0.0631616511875421  0.1479818009828762  1.0000
  O   O4        1.0  0.39928989550159605  0.9368422301344952  0.8520212864949244  1.0000
  O   O5        1.0  0.5456451922581849  0.1989458182221711  0.9567256005176361  1.0000
  O   O6        1.0  0.4543553016979515  0.8010591403620424  0.0432705032154601  1.0000
  O   O7        1.0  0.9682520600782638  0.13207759760433652  0.890911883934436  1.0000
  O   O8        1.0  0.03174311819810068  0.8679240602974261  0.10908935225261733  1.0000
  O   O9        1.0  0.133602461127893  0.20280316085465702  0.13494705667162074  1.0000
  O   O10       1.0  0.8663964739145271  0.7971951790415588  0.865053132337728  1.0000
  O   O11       1.0  0.1606300197991573  0.38428309205334443  0.301096813014695  1.0000
  O   O12       1.0  0.8393697591944189  0.6157141554560254  0.6989056942072055  1.0000
  O   O13       1.0  0.93084100504943  0.34090740404548114  0.17598851336841653  1.0000
  O   O14       1.0  0.06916111623775827  0.6590953955514536  0.8240170463640338  1.0000
