data_image0
_chemical_formula_structural       Zn2H32C22S2N8O8
_chemical_formula_sum              "Zn2 H32 C22 S2 N8 O8"
_cell_length_a       8.508468499346682
_cell_length_b       9.976264099836953
_cell_length_c       9.859272070088243
_cell_angle_alpha    79.36635777572977
_cell_angle_beta     68.64854607787275
_cell_angle_gamma    61.576936409951394

_space_group_name_H-M_alt    "P 1"
_space_group_IT_number       1

loop_
  _space_group_symop_operation_xyz
  'x, y, z'

loop_
  _atom_site_type_symbol
  _atom_site_label
  _atom_site_symmetry_multiplicity
  _atom_site_fract_x
  _atom_site_fract_y
  _atom_site_fract_z
  _atom_site_occupancy
  Zn  Zn1       1.0  0.9987923414035504  0.8200582882784888  0.12889092278362582  1.0000
  Zn  Zn2       1.0  0.0012102486985697005  0.1799401199111585  0.8711139467667478  1.0000
  H   H1        1.0  0.4052838510719425  0.16669746680425135  0.2501573538457293  1.0000
  H   H2        1.0  0.5947200546804936  0.8333030544029043  0.7498375404448865  1.0000
  H   H3        1.0  0.603875601957526  0.16975495683144712  0.263039779088956  1.0000
  H   H4        1.0  0.3961226884377566  0.8302368824588985  0.7369647449157739  1.0000
  H   H5        1.0  0.09857462507439153  0.33335726757065504  0.2059728665022789  1.0000
  H   H6        1.0  0.9014312668059576  0.6666442890997855  0.7940201637651753  1.0000
  H   H7        1.0  0.3967679912276551  0.70385570319894  0.1089159706470042  1.0000
  H   H8        1.0  0.6032414649355714  0.2961390893453668  0.8910863743176378  1.0000
  H   H9        1.0  0.9738078798910408  0.5259686273121177  0.1565240816251359  1.0000
  H   H10       1.0  0.026195706351891983  0.4740374847450896  0.8434687931091817  1.0000
  H   H11       1.0  0.7646832608649136  0.32142085991664976  0.20200508694814084  1.0000
  H   H12       1.0  0.23531257780523882  0.6785732972664533  0.7979987582937155  1.0000
  H   H13       1.0  0.7380251567774823  0.5001141927358931  0.11430547145907606  1.0000
  H   H14       1.0  0.26197888213578563  0.4998763315871887  0.8856994773258434  1.0000
  H   H15       1.0  0.6593443486914765  0.48624239438672845  0.3071091155553063  1.0000
  H   H16       1.0  0.3406693992370646  0.5137488782340969  0.6928915209193179  1.0000
  H   H17       1.0  0.9523956441213741  0.47492935035180045  0.3422704523150131  1.0000
  H   H18       1.0  0.047600684831415684  0.5250736955149193  0.6577274134924807  1.0000
  H   H19       1.0  0.4003277258417128  0.13985936931938173  0.789627177209553  1.0000
  H   H20       1.0  0.5996799658178701  0.860138816780328  0.210372023972738  1.0000
  H   H21       1.0  0.9517706673334063  0.2940225607622011  0.5158490623223101  1.0000
  H   H22       1.0  0.04821489502199942  0.7059943025091613  0.48415057007348133  1.0000
  H   H23       1.0  0.7477414619194037  0.16728439677784476  0.4360892724666383  1.0000
  H   H24       1.0  0.2522561344812288  0.8327085047436075  0.5639051222131782  1.0000
  H   H25       1.0  0.020161421210161706  0.1013019265416943  0.5766386435434256  1.0000
  H   H26       1.0  0.9798126205922134  0.898717551341086  0.42335812120366967  1.0000
  H   H27       1.0  0.1243176898525817  0.1440525353640396  0.3932259117390231  1.0000
  H   H28       1.0  0.87566365128869  0.8559678938001626  0.6067814834117726  1.0000
  H   H29       1.0  0.6081133725490986  0.33479744588576915  0.5413801734463917  1.0000
  H   H30       1.0  0.39188523852404705  0.66520102927106  0.4586158298059145  1.0000
  H   H31       1.0  0.700719846388104  0.15461356411393012  0.6285011451690892  1.0000
  H   H32       1.0  0.2992785313022497  0.8453804743626492  0.3714988568445675  1.0000
  C   C1        1.0  0.213191346625173  0.481813890323977  0.21260331452364772  1.0000
  C   C2        1.0  0.7868132178463297  0.5181855456673928  0.7873986819594023  1.0000
  C   C3        1.0  0.48310724126008603  0.4766478345416091  0.203136797341898  1.0000
  C   C4        1.0  0.5168955469492362  0.5233549873436016  0.7968610463146388  1.0000
  C   C5        1.0  0.38385401237601274  0.38881580707196406  0.24382779198865728  1.0000
  C   C6        1.0  0.6161380836041135  0.6111907970260333  0.7561768275296714  1.0000
  C   C7        1.0  0.4487725679511813  0.22723375143958446  0.3009520249839353  1.0000
  C   C8        1.0  0.551222974726528  0.7727660119166941  0.6990518187899398  1.0000
  C   C9        1.0  0.3797149585936737  0.20689076168047654  0.46392665734145316  1.0000
  C   C10       1.0  0.6202962867586167  0.7931128793480865  0.5360703091851278  1.0000
  C   C11       1.0  0.6708972081724697  0.4441749528687637  0.20663738539845153  1.0000
  C   C12       1.0  0.32911040795057284  0.555821041706281  0.7933673468190889  1.0000
  C   C13       1.0  0.05147901717378288  0.4518438626341421  0.2305407990962962  1.0000
  C   C14       1.0  0.9485284893054878  0.5481621441480939  0.7694558967152646  1.0000
  C   C15       1.0  0.22162867628526334  0.18149813698626363  0.5486512501806686  1.0000
  C   C16       1.0  0.7783638852920802  0.8185051137556983  0.4513559121237022  1.0000
  C   C17       1.0  0.4692246544463431  0.1973633259201506  0.5623559636142729  1.0000
  C   C18       1.0  0.5307791807549191  0.8026371493176542  0.4376328764113638  1.0000
  C   C19       1.0  0.07207857009646551  0.18006881524927115  0.5059648343730458  1.0000
  C   C20       1.0  0.9278985939086227  0.8199472671865422  0.4940407203735262  1.0000
  C   C21       1.0  0.6409583553137993  0.2139482085001276  0.5408542143701212  1.0000
  C   C22       1.0  0.3590349610800487  0.7860482206063678  0.4591428978438756  1.0000
  S   S1        1.0  0.839365456862936  0.9623808631958326  0.8848685144439867  1.0000
  S   S2        1.0  0.16063979864705402  0.037609567296975406  0.1151299720281003  1.0000
  N   N1        1.0  0.20944875717969325  0.6166810127485717  0.15687338998828437  1.0000
  N   N2        1.0  0.7905584051046546  0.3833183428440706  0.843129808487376  1.0000
  N   N3        1.0  0.37265222077417076  0.6117432475441905  0.15290614405808609  1.0000
  N   N4        1.0  0.627352920106688  0.38825504960048823  0.8470958913082497  1.0000
  N   N5        1.0  0.217010869569279  0.1566288215314557  0.6891873687064987  1.0000
  N   N6        1.0  0.7829771198258445  0.8433734818074967  0.3108214646725783  1.0000
  N   N7        1.0  0.3666653179390948  0.16848227028468443  0.6953810631212887  1.0000
  N   N8        1.0  0.6333369967314795  0.8315138161337928  0.3046121837135444  1.0000
  O   O1        1.0  0.86047270418738  0.8334711176975491  0.9977770245108603  1.0000
  O   O2        1.0  0.13953276796150496  0.16652159625862592  0.0022280394559431017  1.0000
  O   O3        1.0  0.6692209159823577  0.006582392659495894  0.8480924940177558  1.0000
  O   O4        1.0  0.33078860279052696  0.9934023570313854  0.1519138511762036  1.0000
  O   O5        1.0  0.8158326893102766  0.09599317162837913  0.9595048130985404  1.0000
  O   O6        1.0  0.1841759267705854  0.9040004456530183  0.040486879311444596  1.0000
  O   O7        1.0  0.012792358366205169  0.9167627870020639  0.7592225295423064  1.0000
  O   O8        1.0  0.9872192220711254  0.0832251896767815  0.24077642059324936  1.0000
