data_image0
_chemical_formula_structural       Zn2C26N2Cl8O8F4
_chemical_formula_sum              "Zn2 C26 N2 Cl8 O8 F4"
_cell_length_a       11.030836756301461
_cell_length_b       14.762475966624306
_cell_length_c       16.157784918571643
_cell_angle_alpha    89.78266487117484
_cell_angle_beta     89.01492968862884
_cell_angle_gamma    69.64165820438379

_space_group_name_H-M_alt    "P 1"
_space_group_IT_number       1

loop_
  _space_group_symop_operation_xyz
  'x, y, z'

loop_
  _atom_site_type_symbol
  _atom_site_label
  _atom_site_symmetry_multiplicity
  _atom_site_fract_x
  _atom_site_fract_y
  _atom_site_fract_z
  _atom_site_occupancy
  Zn  Zn1       1.0  0.5300642719832922  0.39834905932583103  0.4984984482485046  1.0000
  Zn  Zn2       1.0  0.469836832376309  0.6015153077755286  0.49859008054035314  1.0000
  C   C1        1.0  0.5017474563688963  0.49988901943718395  0.3384623765765938  1.0000
  C   C2        1.0  0.4983154118276047  0.49996659346383143  0.6581437780761021  1.0000
  C   C3        1.0  0.3832454774050972  0.08296056558918959  0.497917199206789  1.0000
  C   C4        1.0  0.616190750269723  0.916989294119979  0.49784796992128827  1.0000
  C   C5        1.0  0.506557863854482  0.0925149262709155  0.4978611224513827  1.0000
  C   C6        1.0  0.49286247990554677  0.9074349597453237  0.498001302314485  1.0000
  C   C7        1.0  0.6200253481651288  0.010498117336368306  0.4977839841799963  1.0000
  C   C8        1.0  0.3793896245617956  0.9894512630173368  0.49795592277092743  1.0000
  C   C9        1.0  0.518992740496266  0.18482502122014918  0.4983465868821001  1.0000
  C   C10       1.0  0.48043569534996744  0.815130475461338  0.4985438214361437  1.0000
  C   C11       1.0  0.2538075351440695  0.5366345419698675  0.4947543857871182  1.0000
  C   C12       1.0  0.7462477083849561  0.4633720858263502  0.4936335588307372  1.0000
  C   C13       1.0  0.11387497631904601  0.5453037378218256  0.48879258757266814  1.0000
  C   C14       1.0  0.886552626902926  0.4545688428463421  0.4880444038449809  1.0000
  C   C15       1.0  0.06827345802179248  0.49963690428200636  0.43153756928310844  1.0000
  C   C16       1.0  0.9353791962012751  0.5004224210443625  0.431315805594096  1.0000
  C   C17       1.0  0.3962662251718071  0.4915897632690048  0.9561882806888635  1.0000
  C   C18       1.0  0.6025577783511262  0.508818538117808  0.040644785751482  1.0000
  C   C19       1.0  0.5013147589921941  0.5002634627577507  0.9102611012590813  1.0000
  C   C20       1.0  0.49770292609904465  0.49985698416665514  0.08654774815466483  1.0000
  C   C21       1.0  0.6065074974161818  0.5089415568143137  0.9545190728415918  1.0000
  C   C22       1.0  0.39253591257114107  0.4910544431909826  0.0423343462300423  1.0000
  C   C23       1.0  0.5002969518910659  0.5001783141563437  0.8230385336278943  1.0000
  C   C24       1.0  0.4990747235308247  0.4998455756519888  0.1737091262077541  1.0000
  C   C25       1.0  0.5010698137494173  0.5000014014963414  0.24898488507196254  1.0000
  C   C26       1.0  0.49881902402868394  0.5000037286887817  0.7477371429233062  1.0000
  N   N1        1.0  0.46575772575156565  0.741083349186745  0.4992610096741927  1.0000
  N   N2        1.0  0.5337803723117317  0.25882375687714193  0.49908953198661277  1.0000
  Cl  Cl1       1.0  0.8392268869191  0.5640073176733297  0.3517785750612603  1.0000
  Cl  Cl2       1.0  0.16894170328320254  0.43646217046067903  0.3517410446703266  1.0000
  Cl  Cl3       1.0  0.9815255502455215  0.3835264879180613  0.5637245570231713  1.0000
  Cl  Cl4       1.0  0.014563104152074352  0.6161922419397498  0.5646217483850576  1.0000
  Cl  Cl5       1.0  0.2615013852932647  0.48040157647935905  0.09399785975288921  1.0000
  Cl  Cl6       1.0  0.7377216105671276  0.5195170356444194  0.9030403700655186  1.0000
  Cl  Cl7       1.0  0.2451218171667903  0.18089626583816462  0.49854042404716387  1.0000
  Cl  Cl8       1.0  0.7542948356996604  0.8190711101226357  0.49840387965789995  1.0000
  O   O1        1.0  0.5074368160154776  0.4211387428941151  0.3734157280048437  1.0000
  O   O2        1.0  0.45526157332417927  0.5823570286975582  0.6235404901552288  1.0000
  O   O3        1.0  0.49632217375180665  0.5784594340439569  0.3732017892657353  1.0000
  O   O4        1.0  0.5411671359796982  0.41750171256175866  0.6231941432785747  1.0000
  O   O5        1.0  0.33062712996051136  0.452395794033663  0.51071815471051  1.0000
  O   O6        1.0  0.6686594063535904  0.547706851155411  0.5097092889744916  1.0000
  O   O7        1.0  0.28038887039021887  0.6128688355751564  0.48491271727723273  1.0000
  O   O8        1.0  0.7200506406257717  0.3871843207354503  0.4835524326858547  1.0000
  F   F1        1.0  0.29567681251578637  0.48345953395583763  0.9142787412084064  1.0000
  F   F2        1.0  0.7029236764536292  0.5172953423817078  0.0825371651849949  1.0000
  F   F3        1.0  0.26519125974944285  0.9763051837944802  0.4981978746142204  1.0000
  F   F4        1.0  0.7342147420934354  0.02364255772000939  0.49784349809011275  1.0000
