data_image0
_chemical_formula_structural       Cu4H16C32O16
_chemical_formula_sum              "Cu4 H16 C32 O16"
_cell_length_a       5.183213347018475
_cell_length_b       11.703076202325144
_cell_length_c       13.134280938052706
_cell_angle_alpha    111.14035542683484
_cell_angle_beta     89.9997813031153
_cell_angle_gamma    89.9998782715842

_space_group_name_H-M_alt    "P 1"
_space_group_IT_number       1

loop_
  _space_group_symop_operation_xyz
  'x, y, z'

loop_
  _atom_site_type_symbol
  _atom_site_label
  _atom_site_symmetry_multiplicity
  _atom_site_fract_x
  _atom_site_fract_y
  _atom_site_fract_z
  _atom_site_occupancy
  Cu  Cu1       1.0  0.2075757761303336  0.5593381604754414  0.5370080330555141  1.0000
  Cu  Cu2       1.0  0.7075739303303197  0.9406626751145878  0.4629903587493019  1.0000
  Cu  Cu3       1.0  0.7924317595578716  0.44066045405799764  0.4629894827878829  1.0000
  Cu  Cu4       1.0  0.29242010018180054  0.0593405405488312  0.5370131896743828  1.0000
  H   H1        1.0  0.19345015121783152  0.9357116083912086  0.9921063212642451  1.0000
  H   H2        1.0  0.6934236595081702  0.5642965847544303  0.007895194824776325  1.0000
  H   H3        1.0  0.8065805360987995  0.064291600409895  0.007895702204464802  1.0000
  H   H4        1.0  0.3065510779606059  0.4357102749399573  0.9921049451203601  1.0000
  H   H5        1.0  0.20879692475661935  0.0049965317013729  0.832955355751743  1.0000
  H   H6        1.0  0.7087687474070138  0.49501377628009646  0.16705116826952351  1.0000
  H   H7        1.0  0.7912376211409509  0.9950103552587778  0.16705088379920602  1.0000
  H   H8        1.0  0.2912156365544121  0.5049976776939431  0.8329534793149377  1.0000
  H   H9        1.0  0.7145048974778379  0.6408007483454768  0.8234110901163731  1.0000
  H   H10       1.0  0.21450686621005133  0.8591964172491658  0.17658764597862137  1.0000
  H   H11       1.0  0.28549299168446407  0.35919421535299995  0.17658830931861053  1.0000
  H   H12       1.0  0.7854910229343377  0.14080495249984887  0.8234122694809827  1.0000
  H   H13       1.0  0.44738961524230814  0.7526150730558497  0.9866629811130637  1.0000
  H   H14       1.0  0.9473872710180519  0.7473853532634891  0.0133387256281452  1.0000
  H   H15       1.0  0.5526179204272881  0.24738264584104291  0.01333881791812532  1.0000
  H   H16       1.0  0.05260868881028813  0.25261785215361243  0.9866625354180982  1.0000
  C   C1        1.0  0.6137760001157134  0.7611956314529419  0.7384219686800436  1.0000
  C   C2        1.0  0.11376421874366831  0.7388090490673845  0.2615808337552536  1.0000
  C   C3        1.0  0.3862296062381888  0.23880757395559024  0.2615792923561955  1.0000
  C   C4        1.0  0.8862220945336292  0.2611987438167986  0.7384234100333629  1.0000
  C   C5        1.0  0.4713197087472168  0.8640164362604354  0.7411687518883029  1.0000
  C   C6        1.0  0.9713251666430553  0.635977531213463  0.2588301018154837  1.0000
  C   C7        1.0  0.5286723925287833  0.1359721111480354  0.2588278441526271  1.0000
  C   C8        1.0  0.028686227651668603  0.36402108673141936  0.7411681764823896  1.0000
  C   C9        1.0  0.3101542822452714  0.8862131174267135  0.9207698333213659  1.0000
  C   C10       1.0  0.8101500124452131  0.6137866401629565  0.07923262893336867  1.0000
  C   C11       1.0  0.6898513241262734  0.11378094379860929  0.07923232437644859  1.0000
  C   C12       1.0  0.1898498059970564  0.3862165618358516  0.9207678696503975  1.0000
  C   C13       1.0  0.31917218507458506  0.9258036225966464  0.8329060128842017  1.0000
  C   C14       1.0  0.8191691830994543  0.5741979409666129  0.16709472641747417  1.0000
  C   C15       1.0  0.6808295626871725  0.07419500218654208  0.16709379034063693  1.0000
  C   C16       1.0  0.18083256465886421  0.4258034253641084  0.8329044265796526  1.0000
  C   C17       1.0  0.6045709502502207  0.7217388360655262  0.8271353972561785  1.0000
  C   C18       1.0  0.10455983924268962  0.7782612972646776  0.17286977874601217  1.0000
  C   C19       1.0  0.39544044402571643  0.2782570608210335  0.17286810602027466  1.0000
  C   C20       1.0  0.8954303326444805  0.22174284477252829  0.8271363486201864  1.0000
  C   C21       1.0  0.4534999821332521  0.7839793718050031  0.9179662459762384  1.0000
  C   C22       1.0  0.9534874761873768  0.7160210300007748  0.08203239826913489  1.0000
  C   C23       1.0  0.5465114121613016  0.21601742071810287  0.08203297411242969  1.0000
  C   C24       1.0  0.0464988371374702  0.28398032951393054  0.9179652298270328  1.0000
  C   C25       1.0  0.7640097236386867  0.6810355770937377  0.6412531312647759  1.0000
  C   C26       1.0  0.2640081904025493  0.8189624234489089  0.3587473186444613  1.0000
  C   C27       1.0  0.2359881655346427  0.31895846364924557  0.3587444516901642  1.0000
  C   C28       1.0  0.7359742642679736  0.1810426278911734  0.6412575753758605  1.0000
  C   C29       1.0  0.4759175836101548  0.9093300208375014  0.6483942943212428  1.0000
  C   C30       1.0  0.9759069255005743  0.5906657604834393  0.3516028456143305  1.0000
  C   C31       1.0  0.5240803055487079  0.0906676844084942  0.3516044548860365  1.0000
  C   C32       1.0  0.024081317172957004  0.4093264309422792  0.6483903419320641  1.0000
  O   O1        1.0  0.29666180934727754  0.9836374311888748  0.6482100368999968  1.0000
  O   O2        1.0  0.7966476482202154  0.5163660148997735  0.35179361959973215  1.0000
  O   O3        1.0  0.7033553728152314  0.0163676201203415  0.3517948570843146  1.0000
  O   O4        1.0  0.20334638232136373  0.4836353480229362  0.6482047709469185  1.0000
  O   O5        1.0  0.6599582789032113  0.8726197998787414  0.5795227356445382  1.0000
  O   O6        1.0  0.15996092733462322  0.6273728684010463  0.42047160592616  1.0000
  O   O7        1.0  0.34003575166359923  0.1273742374528055  0.42047408485593263  1.0000
  O   O8        1.0  0.8400408204745988  0.37261841030178294  0.5795220525016235  1.0000
  O   O9        1.0  0.6341834727080525  0.5960054986606308  0.5702804942151403  1.0000
  O   O10       1.0  0.13419048881094406  0.9039955015483939  0.4297256743755895  1.0000
  O   O11       1.0  0.3658066992083136  0.40399405250320813  0.42972188796021277  1.0000
  O   O12       1.0  0.8658131881933928  0.09600774484025719  0.5702847361643961  1.0000
  O   O13       1.0  0.006188284552955303  0.6934744218990757  0.6429504121148639  1.0000
  O   O14       1.0  0.5061823233130768  0.8065239823693486  0.3570383731662901  1.0000
  O   O15       1.0  0.9938173218888908  0.30651866173288767  0.35703772976725656  1.0000
  O   O16       1.0  0.4938097779532101  0.19347917865790978  0.6429529759237342  1.0000
