data_image0
_chemical_formula_structural       Mn2H20C22N4O12
_chemical_formula_sum              "Mn2 H20 C22 N4 O12"
_cell_length_a       7.614662075454089
_cell_length_b       8.299852941682232
_cell_length_c       8.808849898225631
_cell_angle_alpha    83.57960239829836
_cell_angle_beta     84.5317389943862
_cell_angle_gamma    88.27998747089748

_space_group_name_H-M_alt    "P 1"
_space_group_IT_number       1

loop_
  _space_group_symop_operation_xyz
  'x, y, z'

loop_
  _atom_site_type_symbol
  _atom_site_label
  _atom_site_symmetry_multiplicity
  _atom_site_fract_x
  _atom_site_fract_y
  _atom_site_fract_z
  _atom_site_occupancy
  Mn  Mn1       1.0  0.25709281329764627  0.8969265227322012  0.849858277406618  1.0000
  Mn  Mn2       1.0  0.7429102292179196  0.10307160485832158  0.15014270490893014  1.0000
  H   H1        1.0  0.5281851253450398  0.8169833056784198  0.02953318739035643  1.0000
  H   H2        1.0  0.47181300692987804  0.18300383160791964  0.9704726980405313  1.0000
  H   H3        1.0  0.3439056437878421  0.7974629824528846  0.1299489718367184  1.0000
  H   H4        1.0  0.6560882878969281  0.20253142045167036  0.8700519962505666  1.0000
  H   H5        1.0  0.9678992554244913  0.04594463034913329  0.6991084016811798  1.0000
  H   H6        1.0  0.0321077032320787  0.9540547503749791  0.3008921333734449  1.0000
  H   H7        1.0  0.08483350451031407  0.9367911719961414  0.5933805425878447  1.0000
  H   H8        1.0  0.9151623967693469  0.0631837510590287  0.4066358231368667  1.0000
  H   H9        1.0  0.6038701100875414  0.8028310627406083  0.4969880135310306  1.0000
  H   H10       1.0  0.3961496310577814  0.19718062500957248  0.5030034331417568  1.0000
  H   H11       1.0  0.9005378036135242  0.3778058327552288  0.6650310952223677  1.0000
  H   H12       1.0  0.09945728503462449  0.6221934263005054  0.33497042991483283  1.0000
  H   H13       1.0  0.9630093155916768  0.5124661998420449  0.8864098526128857  1.0000
  H   H14       1.0  0.036984617030370294  0.48752816467556676  0.11359679543782869  1.0000
  H   H15       1.0  0.768120890981301  0.2565561946309955  0.5052923875991058  1.0000
  H   H16       1.0  0.23189113984236798  0.743449333764829  0.49470257728108896  1.0000
  H   H17       1.0  0.6384798789360318  0.7179470338878958  0.2815595218003253  1.0000
  H   H18       1.0  0.3615216814510802  0.28205597655810516  0.718434285634693  1.0000
  H   H19       1.0  0.6240999201981411  0.48401573660306235  0.08116095242712623  1.0000
  H   H20       1.0  0.37589656783441683  0.5159811338486121  0.9188372891896394  1.0000
  C   C1        1.0  0.7476780871615956  0.5813259099646257  0.565199700092414  1.0000
  C   C2        1.0  0.2523273083095603  0.4186807787698967  0.4347934256148918  1.0000
  C   C3        1.0  0.8207643192467061  0.7342176999763197  0.8200383843654606  1.0000
  C   C4        1.0  0.17923328503329833  0.2657852468813928  0.1799591610751392  1.0000
  C   C5        1.0  0.6814952837459459  0.737493003047959  0.5824653477524819  1.0000
  C   C6        1.0  0.3185193034255036  0.26251499289499247  0.41752689065720017  1.0000
  C   C7        1.0  0.7169737303565141  0.8136233603232556  0.709221033543777  1.0000
  C   C8        1.0  0.2830327819244615  0.18638938178513334  0.29077480396540534  1.0000
  C   C9        1.0  0.847856508603094  0.49962571503016306  0.6762033805760979  1.0000
  C   C10       1.0  0.15213973607115608  0.5003784385636935  0.3237930216475888  1.0000
  C   C11       1.0  0.8834890260451261  0.5765956780671002  0.8018093790117363  1.0000
  C   C12       1.0  0.1165099378406325  0.4234060620544682  0.1981893096457767  1.0000
  C   C13       1.0  0.8645336134582067  0.8157749265458917  0.9550949246099094  1.0000
  C   C14       1.0  0.13546802967295693  0.1842255896486833  0.04490934122607371  1.0000
  C   C15       1.0  0.7380490206738484  0.34766397605208965  0.4124548528034637  1.0000
  C   C16       1.0  0.261959134724748  0.6523390789552935  0.5875418125637353  1.0000
  C   C17       1.0  0.6495455046917229  0.9850029839879463  0.7161388539753164  1.0000
  C   C18       1.0  0.35046252949636886  0.015003693397048302  0.2838597316770617  1.0000
  C   C19       1.0  0.6642525349375107  0.5883684320292345  0.29632132647198967  1.0000
  C   C20       1.0  0.3357478694234999  0.4116296838786439  0.7036776038765424  1.0000
  C   C21       1.0  0.659327751423966  0.4720336686079918  0.19812046205085215  1.0000
  C   C22       1.0  0.34067389058245817  0.5279668936509195  0.8018769878290187  1.0000
  N   N1        1.0  0.7154742107429258  0.5082851860059209  0.4325869776739779  1.0000
  N   N2        1.0  0.28453126634754966  0.49171905454151227  0.5674097904781732  1.0000
  N   N3        1.0  0.7057505936601698  0.3225770421898489  0.2714511247766255  1.0000
  N   N4        1.0  0.2942576024543655  0.6774247925626824  0.728546793816662  1.0000
  O   O1        1.0  0.4853186367320461  0.014523512472550196  0.7161493192300625  1.0000
  O   O2        1.0  0.5146895197912897  0.9854794964705036  0.2838541620932489  1.0000
  O   O3        1.0  0.7364153404839301  0.8865770062799285  0.028776996295896116  1.0000
  O   O4        1.0  0.26357875425202343  0.1134125079278263  0.9712301206884106  1.0000
  O   O5        1.0  0.0222015012766121  0.8112517415002357  0.9901661007736209  1.0000
  O   O6        1.0  0.9778015412389536  0.1887463860902869  0.00983488154192709  1.0000
  O   O7        1.0  0.4063091516477754  0.7747852509932399  0.03023173079996162  1.0000
  O   O8        1.0  0.5936861398302042  0.22520793749777815  0.9697715164969198  1.0000
  O   O9        1.0  0.7629622621921541  0.09585803358691439  0.7173547219463077  1.0000
  O   O10       1.0  0.2370457309050878  0.9041498794077113  0.28264033849460907  1.0000
  O   O11       1.0  0.09510736488608978  0.013174154349329097  0.6681069643546139  1.0000
  O   O12       1.0  0.9048972800311789  0.9868155063950397  0.3318935925928698  1.0000
