data_image0
_chemical_formula_structural       Zn8H104C152N32O26
_chemical_formula_sum              "Zn8 H104 C152 N32 O26"
_cell_length_a       14.82858924218371
_cell_length_b       18.720730789527163
_cell_length_c       22.29030480142657
_cell_angle_alpha    86.48098817947358
_cell_angle_beta     79.53052325878356
_cell_angle_gamma    75.78366529162503

_space_group_name_H-M_alt    "P 1"
_space_group_IT_number       1

loop_
  _space_group_symop_operation_xyz
  'x, y, z'

loop_
  _atom_site_type_symbol
  _atom_site_label
  _atom_site_symmetry_multiplicity
  _atom_site_fract_x
  _atom_site_fract_y
  _atom_site_fract_z
  _atom_site_occupancy
  Zn  Zn1       1.0  0.39824034887027443  0.8027293398457545  0.8713109527448353  1.0000
  Zn  Zn2       1.0  0.6017586106976153  0.19727113516946562  0.1286887473839755  1.0000
  Zn  Zn3       1.0  0.36052740698178815  0.06427030402386438  0.6957195030634935  1.0000
  Zn  Zn4       1.0  0.6394724073678119  0.9357296186509035  0.304280569886977  1.0000
  Zn  Zn5       1.0  0.3106227931760089  0.7033755910564351  0.13224039331336004  1.0000
  Zn  Zn6       1.0  0.6893773691349097  0.2966254357943969  0.8677586850095624  1.0000
  Zn  Zn7       1.0  0.2382346660085305  0.955788598381581  0.9491954052548409  1.0000
  Zn  Zn8       1.0  0.7617634383104956  0.04421243001948481  0.050803473430157516  1.0000
  H   H1        1.0  0.43196856661346317  0.6409581442325064  0.0137032111721922  1.0000
  H   H2        1.0  0.5680271322195055  0.3590417804973428  0.9862969111245831  1.0000
  H   H3        1.0  0.4822198479606357  0.6868016777078979  0.9487910916812154  1.0000
  H   H4        1.0  0.5177758504051793  0.31319824806734436  0.05120858199341432  1.0000
  H   H5        1.0  0.14536134677163642  0.9229473924247463  0.0779687644796141  1.0000
  H   H6        1.0  0.8546367594160104  0.0770536317947332  0.9220319086939457  1.0000
  H   H7        1.0  0.15797653372960238  0.8444582687194498  0.12810015845962403  1.0000
  H   H8        1.0  0.8420227752010732  0.15554330733564115  0.871899892908054  1.0000
  H   H9        1.0  0.4585026150380145  0.8279314295105139  0.7386870234145064  1.0000
  H   H10       1.0  0.5414970303714526  0.17206904533642842  0.26131259371955917  1.0000
  H   H11       1.0  0.4445094322435565  0.9032515930240168  0.6869913897572674  1.0000
  H   H12       1.0  0.555490213633064  0.0967488807775254  0.31300867599894383  1.0000
  H   H13       1.0  0.6436699475525105  0.8739331473697902  0.5616102871068236  1.0000
  H   H14       1.0  0.35633140788753087  0.12606622175085394  0.43839052429270714  1.0000
  H   H15       1.0  0.6805439107473532  0.6270298159697918  0.7266807925366551  1.0000
  H   H16       1.0  0.3194548836176453  0.37297120285442287  0.2733220407528734  1.0000
  H   H17       1.0  0.1795681010831842  0.0246912029572286  0.7299681007621004  1.0000
  H   H18       1.0  0.8204339397312805  0.975308167040531  0.27003217902056065  1.0000
  H   H19       1.0  0.12795579079982386  0.7282975426574723  0.09253646341581862  1.0000
  H   H20       1.0  0.8720450472716055  0.27170127550466827  0.9074644381727239  1.0000
  H   H21       1.0  0.9540426538868373  0.8763130688812882  0.39601903058691335  1.0000
  H   H22       1.0  0.04595921798749459  0.12368685328863906  0.6039807933793355  1.0000
  H   H23       1.0  0.22907742014908183  0.12236350731335931  0.8152877109905816  1.0000
  H   H24       1.0  0.770923598345007  0.8776369640608338  0.18471308602042316  1.0000
  H   H25       1.0  0.23385810145422434  0.0975806240904404  0.891377947068321  1.0000
  H   H26       1.0  0.7661430855128445  0.9024192961569782  0.1086228571369503  1.0000
  H   H27       1.0  0.8559835229526841  0.5772820926948725  0.7127017749532386  1.0000
  H   H28       1.0  0.1440142352736444  0.4227178273485421  0.28729989284787655  1.0000
  H   H29       1.0  0.12108886936213278  0.8801071501858078  0.9600090866061353  1.0000
  H   H30       1.0  0.8789109412502257  0.11989278085214043  0.039987397367205794  1.0000
  H   H31       1.0  0.04593076611848804  0.946873381719463  0.9393711640457882  1.0000
  H   H32       1.0  0.9540688769552048  0.05312709835446581  0.060626209977570504  1.0000
  H   H33       1.0  0.0035313828299762665  0.8398084351151881  0.2861829324995355  1.0000
  H   H34       1.0  0.9964691173612011  0.16019148739130173  0.7138170574561971  1.0000
  H   H35       1.0  0.8201308553260631  0.8453826986111325  0.5294070335252883  1.0000
  H   H36       1.0  0.1798706786680171  0.1546183279031368  0.4705918788081505  1.0000
  H   H37       1.0  0.20174186326570978  0.461894953911582  0.1363117511411431  1.0000
  H   H38       1.0  0.7982594931086382  0.5381044131182621  0.8636899575026791  1.0000
  H   H39       1.0  0.0746667799639339  0.9660186506084546  0.6847403336932132  1.0000
  H   H40       1.0  0.9253352608505309  0.03398071938930511  0.3152599460894407  1.0000
  H   H41       1.0  0.2962074656109905  0.5711343707412696  0.8263787540074433  1.0000
  H   H42       1.0  0.7037944057961881  0.4288655524740578  0.17362062133666717  1.0000
  H   H43       1.0  0.021328862312557848  0.6555229542748718  0.06657807358435969  1.0000
  H   H44       1.0  0.97867249266033  0.34447641589116534  0.9334222891930395  1.0000
  H   H45       1.0  0.24246300758427003  0.79934865232282  0.4231931015435322  1.0000
  H   H46       1.0  0.7575378295528593  0.20065016793012802  0.5768069028007332  1.0000
  H   H47       1.0  0.1521123461279998  0.4086884270933028  0.06165364293882191  1.0000
  H   H48       1.0  0.8478874691559072  0.5913114934906716  0.9383473272559328  1.0000
  H   H49       1.0  0.3047063193847066  0.542314782440428  0.15466103227411315  1.0000
  H   H50       1.0  0.6952943488122969  0.4576845899846873  0.8453385162537472  1.0000
  H   H51       1.0  0.9126591089015863  0.5921641491528788  0.1075925874707053  1.0000
  H   H52       1.0  0.08734087345383298  0.40783522344051454  0.8924070440518861  1.0000
  H   H53       1.0  0.36023324026965753  0.024732580035468698  0.5648826652550127  1.0000
  H   H54       1.0  0.6397677763558179  0.9752678955203111  0.4351163372674308  1.0000
  H   H55       1.0  0.6932949572467278  0.7582478055993108  0.8751641712009858  1.0000
  H   H56       1.0  0.3067058927743886  0.24175321690164958  0.12483661861575261  1.0000
  H   H57       1.0  0.20296726982093113  0.8841472933252987  0.4885154947808062  1.0000
  H   H58       1.0  0.7970340846847961  0.11585207788613872  0.5114844193744474  1.0000
  H   H59       1.0  0.86791548006034  0.7168371392996989  0.8563578756049  1.0000
  H   H60       1.0  0.13208485259217181  0.283163332242772  0.1436430044008432  1.0000
  H   H61       1.0  0.8274080568985767  0.03720978919524501  0.6242872929279386  1.0000
  H   H62       1.0  0.17259245570943435  0.9627923366046649  0.3757130338781351  1.0000
  H   H63       1.0  0.230931574328288  0.8409466429964283  0.8088386242622152  1.0000
  H   H64       1.0  0.7690678906585263  0.1590521786384685  0.19116109744938833  1.0000
  H   H65       1.0  0.26000795416939576  0.9720811694250032  0.5112071931589527  1.0000
  H   H66       1.0  0.7399901630336245  0.027922061224082004  0.4887924709985327  1.0000
  H   H67       1.0  0.9688992541410073  0.9781806157691337  0.6278829218429678  1.0000
  H   H68       1.0  0.031101245115863197  0.021819308828149503  0.37211617086848037  1.0000
  H   H69       1.0  0.00887993635298296  0.7151189828347954  0.798920530182123  1.0000
  H   H70       1.0  0.9911205647725083  0.2848809375809013  0.2010803570178936  1.0000
  H   H71       1.0  0.2427223619256936  0.5266324980706969  0.7558305126109773  1.0000
  H   H72       1.0  0.7572779587771309  0.47336576913296113  0.24417047916657  1.0000
  H   H73       1.0  0.5938834626647421  0.6409741762539769  0.16696079127197552  1.0000
  H   H74       1.0  0.4061156754571869  0.3590279561548756  0.8330370097907291  1.0000
  H   H75       1.0  0.5953296518443664  0.4885821943586208  0.029886104141688477  1.0000
  H   H76       1.0  0.4046705099994058  0.5114188335376042  0.9701125255590882  1.0000
  H   H77       1.0  0.6528986901847205  0.06652035971652742  0.6530974695835781  1.0000
  H   H78       1.0  0.34710164246779135  0.9334801118259365  0.346903410422172  1.0000
  H   H79       1.0  0.12426290594766697  0.7776165616061094  0.7698793205191166  1.0000
  H   H80       1.0  0.8757346713888482  0.22238170627066006  0.23012200323739762  1.0000
  H   H81       1.0  0.7710489951093821  0.4438632532183391  0.020740820785796563  1.0000
  H   H82       1.0  0.22895081877306467  0.5561366705018216  0.9792588035425285  1.0000
  H   H83       1.0  0.9637148635601849  0.15826134470050596  0.08897309018988149  1.0000
  H   H84       1.0  0.036285456208339874  0.8417369245939385  0.9110270043433888  1.0000
  H   H85       1.0  0.9133639615287381  0.2946502217615645  0.0955895294469613  1.0000
  H   H86       1.0  0.08663602222814146  0.7053491476956354  0.904411447942053  1.0000
  H   H87       1.0  0.1836571354908472  0.31164658528259537  0.9939110617790163  1.0000
  H   H88       1.0  0.8163406208668604  0.6883533389424131  0.0060888115335373996  1.0000
  H   H89       1.0  0.9990038885550876  0.4139203588687082  0.7753847031936303  1.0000
  H   H90       1.0  0.0009964312134301194  0.5860779104257431  0.2246153913396399  1.0000
  H   H91       1.0  0.3964121437512276  0.642743431059266  0.8609370992650085  1.0000
  H   H92       1.0  0.6035900760844372  0.3572575952867255  0.1390617300736849  1.0000
  H   H93       1.0  0.29063250083157044  0.7629657135614353  0.31465579117593734  1.0000
  H   H94       1.0  0.7093676628808155  0.23703531015320323  0.6853446330134076  1.0000
  H   H95       1.0  0.7685087402477393  0.5993594947197496  0.15649063622424106  1.0000
  H   H96       1.0  0.23149090562888117  0.4006409790817998  0.8435094295319702  1.0000
  H   H97       1.0  0.2284215506225493  0.17647396370450252  0.9797426049215547  1.0000
  H   H98       1.0  0.771578949568628  0.8235259588019872  0.02025738503417067  1.0000
  H   H99       1.0  0.2782182318160835  0.4357321540833751  0.6948300684971757  1.0000
  H   H100      1.0  0.7217810656320653  0.5642672165875027  0.3051705432644454  1.0000
  H   H101      1.0  0.05510578301430509  0.2763459349207978  0.7671030160107294  1.0000
  H   H102      1.0  0.9448943682812398  0.723652885500421  0.23289707132827434  1.0000
  H   H103      1.0  0.33213393654575185  0.29960542490645986  0.6855739541491915  1.0000
  H   H104      1.0  0.6678662147497931  0.7003933955147659  0.3144261331898123  1.0000
  C   C1        1.0  0.36742880988212784  0.7509458373641423  0.0003975034690668967  1.0000
  C   C2        1.0  0.6325672378464731  0.2490551894509707  0.9996025214444374  1.0000
  C   C3        1.0  0.53309667024903  0.9874308281306485  0.6282680403177991  1.0000
  C   C4        1.0  0.4669039993494338  0.012568541158273702  0.3717328540764768  1.0000
  C   C5        1.0  0.3832850914914659  0.9253776369717458  0.7766259456346348  1.0000
  C   C6        1.0  0.6167159260683165  0.07462283649323351  0.2233739541320858  1.0000
  C   C7        1.0  0.6853613751501798  0.90930108092288  0.5743694052296675  1.0000
  C   C8        1.0  0.3146387770796792  0.0906977374075453  0.42563157935362034  1.0000
  C   C9        1.0  0.7222789801656689  0.6447124094863456  0.7558853078219201  1.0000
  C   C10       1.0  0.27771981326501555  0.3552886114286622  0.24411662822332406  1.0000
  C   C11       1.0  0.5711742109372578  0.7257004116721363  0.8104210907074716  1.0000
  C   C12       1.0  0.4288278408925806  0.2743011647552365  0.189578180059101  1.0000
  C   C13       1.0  0.23175102034041123  0.1976872773716849  0.7253953467183153  1.0000
  C   C14       1.0  0.7682508524682348  0.8023126427074487  0.274605374492218  1.0000
  C   C15       1.0  0.19533594355849707  0.0102285024318647  0.6819538021374499  1.0000
  C   C16       1.0  0.8046650730669782  0.9897719731239079  0.3180452003849936  1.0000
  C   C17       1.0  0.14220646639657286  0.6688920385404984  0.1003892245424396  1.0000
  C   C18       1.0  0.8577950575164407  0.3311067794533713  0.8996115940513576  1.0000
  C   C19       1.0  0.027645567139849322  0.8516826791836112  0.3775749069375678  1.0000
  C   C20       1.0  0.9723551015243004  0.14831669219610427  0.6224250902124241  1.0000
  C   C21       1.0  0.819912174431309  0.6180984632095701  0.7473443764337875  1.0000
  C   C22       1.0  0.18008661666360842  0.3819025629324245  0.252655316500757  1.0000
  C   C23       1.0  0.15053786089796256  0.8006818213727698  0.2937009093491767  1.0000
  C   C24       1.0  0.8494631561946662  0.1993186531376097  0.7062985417954053  1.0000
  C   C25       1.0  0.2528215625987896  0.8353228498711618  0.04681052658339271  1.0000
  C   C26       1.0  0.747176892017329  0.16467927747898162  0.9531896005847643  1.0000
  C   C27       1.0  0.09462148020412538  0.8423992325548825  0.41651159072862504  1.0000
  C   C28       1.0  0.9053803806548402  0.15759848318543848  0.5834892422537054  1.0000
  C   C29       1.0  0.6759777790769804  0.6949313790099796  0.8023154294175755  1.0000
  C   C30       1.0  0.3240215307880021  0.30507019495431115  0.1976855191943798  1.0000
  C   C31       1.0  0.15830916905296283  0.9630034607828719  0.5934348057684319  1.0000
  C   C32       1.0  0.8416884312486063  0.0369992178623306  0.4065653972001898  1.0000
  C   C33       1.0  0.6381103944888623  0.9721043106760096  0.6086988637641896  1.0000
  C   C34       1.0  0.3618916367116968  0.027892849755943402  0.3913037709009687  1.0000
  C   C35       1.0  0.0551465405912239  0.8315384148316198  0.3167279433527241  1.0000
  C   C36       1.0  0.944853960067107  0.1684615066294697  0.6832724952251469  1.0000
  C   C37       1.0  0.7829925662048609  0.8930541625251038  0.5572646373914267  1.0000
  C   C38       1.0  0.21700793398631651  0.10694575998138592  0.44273535256430574  1.0000
  C   C39       1.0  0.18366346230513392  0.5203521111173685  0.12437531751289302  1.0000
  C   C40       1.0  0.8163365223860524  0.479647256249038  0.8756265571204054  1.0000
  C   C41       1.0  0.13688560174743722  0.9783471540149192  0.6560130562993366  1.0000
  C   C42       1.0  0.8631161016539223  0.021653319281782005  0.343986760472646  1.0000
  C   C43       1.0  0.2794296486665929  0.6307747253329125  0.8202310129507213  1.0000
  C   C44       1.0  0.7205722227405857  0.3692251978824146  0.1797683623933821  1.0000
  C   C45       1.0  0.08232536209707318  0.627987831981244  0.087086629871159  1.0000
  C   C46       1.0  0.9176753075013835  0.372011537307678  0.9129142645231171  1.0000
  C   C47       1.0  0.3083159318910803  0.021167135699109  0.8305651386673534  1.0000
  C   C48       1.0  0.6916857715102794  0.9788333375975993  0.16943467810462923  1.0000
  C   C49       1.0  0.013508466575544277  0.39209655804351945  0.058285590705459404  1.0000
  C   C50       1.0  0.9864901445638663  0.6079028138410294  0.9417146554287614  1.0000
  C   C51       1.0  0.04474188948930188  0.31227829420643627  0.04605196652909881  1.0000
  C   C52       1.0  0.955257239018714  0.6877216286366094  0.9539481894161173  1.0000
  C   C53       1.0  0.18951679113609293  0.8091628527585258  0.3935649945019294  1.0000
  C   C54       1.0  0.8104848998484329  0.19083541724476308  0.6064344854197189  1.0000
  C   C55       1.0  0.0766130722457987  0.43339954993170693  0.0673768949108862  1.0000
  C   C56       1.0  0.9233869096424671  0.5665998237070794  0.9326222879895739  1.0000
  C   C57       1.0  0.8740511895957609  0.644287706502439  0.7827358233634031  1.0000
  C   C58       1.0  0.1259479389122617  0.35571221634060635  0.21726433258180583  1.0000
  C   C59       1.0  0.2404865144567765  0.5650325786957849  0.13595638573399074  1.0000
  C   C60       1.0  0.7595134697672564  0.4349667897160217  0.8640450402771692  1.0000
  C   C61       1.0  0.977794828920786  0.6150892043475835  0.7736358812234841  1.0000
  C   C62       1.0  0.02220463793464234  0.38490961310572647  0.22636563497668058  1.0000
  C   C63       1.0  0.10281936294276758  0.551758826676455  0.09884720365716503  1.0000
  C   C64       1.0  0.8971807897542378  0.4482399906085704  0.9011542295482543  1.0000
  C   C65       1.0  0.1810588104346778  0.7817267179516991  0.22765196663781506  1.0000
  C   C66       1.0  0.8189420262352911  0.21827210334664224  0.7723475890843119  1.0000
  C   C67       1.0  0.06447138268934795  0.8732750155629249  0.478504086076356  1.0000
  C   C68       1.0  0.9355292859748019  0.1267243558167905  0.5214959110736431  1.0000
  C   C69       1.0  0.9430705380653848  0.5357690412005384  0.0925575743113427  1.0000
  C   C70       1.0  0.05693064656590959  0.46423088427386006  0.9074409867832289  1.0000
  C   C71       1.0  0.13521592195693447  0.627027704750951  0.7781632647234389  1.0000
  C   C72       1.0  0.8647852539947536  0.37297000906685446  0.2218385484979137  1.0000
  C   C73       1.0  0.2957574064863451  0.0115672901493298  0.5895347178986229  1.0000
  C   C74       1.0  0.7042417449867244  0.9884370434621489  0.41046431725870763  1.0000
  C   C75       1.0  0.7294603378075523  0.7196460054143473  0.838837683573985  1.0000
  C   C76       1.0  0.27053982637197993  0.2803550172548981  0.16116318923749873  1.0000
  C   C77       1.0  0.12854362549736462  0.8946916032726548  0.508684649635633  1.0000
  C   C78       1.0  0.871457561469697  0.1053083169747637  0.49131615456963823  1.0000
  C   C79       1.0  0.8275777071025843  0.6961504116709561  0.8280053927279099  1.0000
  C   C80       1.0  0.17242228720251523  0.30385116526124983  0.17199412702288447  1.0000
  C   C81       1.0  0.7882225628767262  0.0004792602694933991  0.610690140285641  1.0000
  C   C82       1.0  0.21177743142837366  0.999522316662713  0.3893093794651534  1.0000
  C   C83       1.0  0.2423670480002187  0.7810619681375784  0.811558606648724  1.0000
  C   C84       1.0  0.7576320795734901  0.21893795679626754  0.1884406520522006  1.0000
  C   C85       1.0  0.09513100714200096  0.9331249310176664  0.5632496807767637  1.0000
  C   C86       1.0  0.9048684702616472  0.06687609391065051  0.4367503777851739  1.0000
  C   C87       1.0  0.24010778494244522  0.9805487670019063  0.5601535485493302  1.0000
  C   C88       1.0  0.7598913545809438  0.019453362270752502  0.43984559837980447  1.0000
  C   C89       1.0  0.8357068829223591  0.9383922595647082  0.575340033400991  1.0000
  C   C90       1.0  0.16429362828419158  0.06160986937139512  0.42465894753866007  1.0000
  C   C91       1.0  0.9984386749199742  0.9467199602785499  0.5864720526563262  1.0000
  C   C92       1.0  0.0015614878581046985  0.0532810655268889  0.41352747428873476  1.0000
  C   C93       1.0  0.040531779216877326  0.5066232295964069  0.08565866936456962  1.0000
  C   C94       1.0  0.9594688899144259  0.49337614073791514  0.9143417764075679  1.0000
  C   C95       1.0  0.03811452536917411  0.6584863071398884  0.7841851877416703  1.0000
  C   C96       1.0  0.9618861432949756  0.34151306423982675  0.21581480940832173  1.0000
  C   C97       1.0  0.16802913787318366  0.5535984427294026  0.7601702031947042  1.0000
  C   C98       1.0  0.8319713517697735  0.446399272302074  0.23983124439924816  1.0000
  C   C99       1.0  0.7815739089279817  0.5190431017192907  0.08711266286893957  1.0000
  C   C100      1.0  0.21842812087110988  0.48095406184885564  0.9128886259298029  1.0000
  C   C101      1.0  0.9389280052154307  0.922446816811167  0.5543395726934506  1.0000
  C   C102      1.0  0.0610723361166876  0.0775558663878968  0.4456580551855113  1.0000
  C   C103      1.0  0.6335645596537631  0.598041707318302  0.1348885001499553  1.0000
  C   C104      1.0  0.3664357701958211  0.4019587704965488  0.8651096881229421  1.0000
  C   C105      1.0  0.5843715164794219  0.5665561743036703  0.09974272502859091  1.0000
  C   C106      1.0  0.41562984857452523  0.43344540438277335  0.9002557314884428  1.0000
  C   C107      1.0  0.634161545692514  0.5113591148926203  0.058033586962992025  1.0000
  C   C108      1.0  0.36583758141404127  0.48864081108661844  0.9419652231158013  1.0000
  C   C109      1.0  0.6902605261689561  0.017726452672846404  0.6266139705273731  1.0000
  C   C110      1.0  0.3097394575879235  0.9822729167843535  0.3733870068616484  1.0000
  C   C111      1.0  0.884866128872247  0.49125744957812856  0.0811760560616364  1.0000
  C   C112      1.0  0.11513402335760502  0.5087413687522967  0.9188249285216445  1.0000
  C   C113      1.0  0.18317760671239108  0.7451667473528117  0.7902070292535017  1.0000
  C   C114      1.0  0.8168225431816939  0.25483207620460036  0.2097917122190722  1.0000
  C   C115      1.0  0.2000591844397306  0.6679820365189358  0.7950807963620933  1.0000
  C   C116      1.0  0.7999419905776577  0.332015679389663  0.20492011961497522  1.0000
  C   C117      1.0  0.1973802888524361  0.2799966567119583  0.7267715065219137  1.0000
  C   C118      1.0  0.8026210656532982  0.7200027144994792  0.27322840763334  1.0000
  C   C119      1.0  0.4798497137584621  0.5947178424052167  0.10302514613123041  1.0000
  C   C120      1.0  0.5201516503611785  0.4052837383720204  0.8969724131415263  1.0000
  C   C121      1.0  0.13514462919395953  0.4339018921265634  0.7377566463207972  1.0000
  C   C122      1.0  0.864855522568746  0.5660969272492623  0.26224388964034523  1.0000
  C   C123      1.0  0.10350237602077068  0.5136960421865027  0.7502630256176701  1.0000
  C   C124      1.0  0.8964964049930797  0.4863027754350926  0.24973857357723978  1.0000
  C   C125      1.0  0.7317555541651116  0.4874183050555133  0.052282821092738616  1.0000
  C   C126      1.0  0.2682447651362523  0.5125799652843314  0.9477168248183859  1.0000
  C   C127      1.0  0.010267098988265378  0.19195143126179912  0.065838591951227  1.0000
  C   C128      1.0  0.9897315130854594  0.8080479385319563  0.9341625514272708  1.0000
  C   C129      1.0  0.9828031966265058  0.2679742475709829  0.07109484864073319  1.0000
  C   C130      1.0  0.017196786196066734  0.73202512397701  0.928905231504004  1.0000
  C   C131      1.0  0.1342022092666184  0.27847738888851137  0.0138121430916485  1.0000
  C   C132      1.0  0.8657969187742511  0.7215225349999342  0.9861875642314218  1.0000
  C   C133      1.0  0.09804992467788762  0.15822694352364414  0.031688070844794  1.0000
  C   C134      1.0  0.9019502266176574  0.8417718768975815  0.9683120164942027  1.0000
  C   C135      1.0  0.0720758807661497  0.3883562284686022  0.7562480768934138  1.0000
  C   C136      1.0  0.9279244390023749  0.6116420408258492  0.24375201763984933  1.0000
  C   C137      1.0  0.33533435976485043  0.6705557055094644  0.8404518752397507  1.0000
  C   C138      1.0  0.6646661394920129  0.3294442190878187  0.15954721747169742  1.0000
  C   C139      1.0  0.21711677963005369  0.7883717886342866  0.33288960669408146  1.0000
  C   C140      1.0  0.7828847424143461  0.2116270335411699  0.6671094174111616  1.0000
  C   C141      1.0  0.7314610900517734  0.5749993437644962  0.12823875809852583  1.0000
  C   C142      1.0  0.2685385438751666  0.4249989256982262  0.8717614194294824  1.0000
  C   C143      1.0  0.15973909035017897  0.20244225541343042  0.005783798191686193  1.0000
  C   C144      1.0  0.8402595203220855  0.7975571175165187  0.9942159993203958  1.0000
  C   C145      1.0  0.2288750610611388  0.4013742889580031  0.71145574797022  1.0000
  C   C146      1.0  0.7711244043928291  0.5986245316314937  0.2885444223635218  1.0000
  C   C147      1.0  0.1030079324981656  0.31217694851611827  0.7513976447354054  1.0000
  C   C148      1.0  0.896993074046243  0.687821318519255  0.24860326404740357  1.0000
  C   C149      1.0  0.2595494546680612  0.32528536154718785  0.7057239567549588  1.0000
  C   C150      1.0  0.7404503610829993  0.6747145579913933  0.29427746206193456  1.0000
  C   C151      1.0  0.12401314347151529  0.07677629617204221  0.021231378830080406  1.0000
  C   C152      1.0  0.8759873562525088  0.9232236273798478  0.9787681625035062  1.0000
  N   N1        1.0  0.3495616669460306  0.0004369470434041994  0.772364849420015  1.0000
  N   N2        1.0  0.6504403738684346  0.9995624229543553  0.2276354303626462  1.0000
  N   N3        1.0  0.2739340300958375  0.0263763137558186  0.6494420727614383  1.0000
  N   N4        1.0  0.7260671559369245  0.9736236085823932  0.3505578341995559  1.0000
  N   N5        1.0  0.43210653641486363  0.6873582248490565  0.9866169072530938  1.0000
  N   N6        1.0  0.5678862487101954  0.31264225586227207  0.01338174533981368  1.0000
  N   N7        1.0  0.30668408542304365  0.7656633143230565  0.05495581506134778  1.0000
  N   N8        1.0  0.6933126476799814  0.23433771336917184  0.9450436782352725  1.0000
  N   N9        1.0  0.36590104702727894  0.9014271606040727  0.8346335826826133  1.0000
  N   N10       1.0  0.6340987677894673  0.0985727610252951  0.16536693888999576  1.0000
  N   N11       1.0  0.2205399786381648  0.6380075617207126  0.12393934822353708  1.0000
  N   N12       1.0  0.7794608594332714  0.36199125644143504  0.8760615533650055  1.0000
  N   N13       1.0  0.2800451761571381  0.8626221515443787  0.9912019674971476  1.0000
  N   N14       1.0  0.7199515569458868  0.13737887614784944  0.008797525799479872  1.0000
  N   N15       1.0  0.3168334077193933  0.7446643305713395  0.8370132740662939  1.0000
  N   N16       1.0  0.6831665732345654  0.25533504515824035  0.1629850115898748  1.0000
  N   N17       1.0  0.316332790359496  0.9634789595824887  0.8694179264136039  1.0000
  N   N18       1.0  0.6836675413587089  0.03652151405076861  0.13058205634786188  1.0000
  N   N19       1.0  0.3539497852614275  0.8077296947502931  0.9611125848826206  1.0000
  N   N20       1.0  0.646045058789838  0.1922707823200014  0.038887164592487984  1.0000
  N   N21       1.0  0.1812110568093813  0.8712424496968938  0.08824780759022842  1.0000
  N   N22       1.0  0.8187880841154751  0.1287596764395715  0.9117526852053219  1.0000
  N   N23       1.0  0.4241891032412751  0.8809051075060099  0.7293572940532727  1.0000
  N   N24       1.0  0.5758105426353455  0.1190953662955323  0.2706427717029385  1.0000
  N   N25       1.0  0.9717381497652866  0.8863901239413465  0.5015319842797226  1.0000
  N   N26       1.0  0.028261843605506  0.1136114550816529  0.4984666382267876  1.0000
  N   N27       1.0  0.9199050045691592  0.4206606177188021  0.06473012961126298  1.0000
  N   N28       1.0  0.0800944613519619  0.5793382018253013  0.9352704893446175  1.0000
  N   N29       1.0  0.01019588094948181  0.5443086264964592  0.7569312622591299  1.0000
  N   N30       1.0  0.9898027311242362  0.4556907432973034  0.24306988111936786  1.0000
  N   N31       1.0  0.2662268054754762  0.09172369592875641  0.8469713193250926  1.0000
  N   N32       1.0  0.7337747299200715  0.9082773274493265  0.15302893887476904  1.0000
  O   O1        1.0  0.12155366529135846  0.7964898027944686  0.19210614943562385  1.0000
  O   O2        1.0  0.8784485425946188  0.20350901921270287  0.8078927916748742  1.0000
  O   O3        1.0  0.0735057255737388  0.03498859114330341  0.0477622595759541  1.0000
  O   O4        1.0  0.9264940864400869  0.9650113367584507  0.9522355702638098  1.0000
  O   O5        1.0  0.5299859954852408  0.7346219065578127  0.7653816324216507  1.0000
  O   O6        1.0  0.4700143352986572  0.2653785691662449  0.23461745309553814  1.0000
  O   O7        1.0  0.4394066824899029  0.6482429594227385  0.1400789012528563  1.0000
  O   O8        1.0  0.5605951989983424  0.3517591723129954  0.8599185678308887  1.0000
  O   O9        1.0  0.1772723891997501  0.1581696210620933  0.7505278797806199  1.0000
  O   O10       1.0  0.8227282794643996  0.8418297503176222  0.24947211736937192  1.0000
  O   O11       1.0  0.3184450976376141  0.17227859486164485  0.6996215703316581  1.0000
  O   O12       1.0  0.6815567756381852  0.827721324172089  0.3003795995010208  1.0000
  O   O13       1.0  0.5291105753601997  0.7435553497454067  0.8662142337745778  1.0000
  O   O14       1.0  0.47088734806902005  0.25644402648901393  0.1337843008658197  1.0000
  O   O15       1.0  0.26983604330278865  0.7508640774022697  0.2113193018055952  1.0000
  O   O16       1.0  0.7301651427299732  0.2491358449359424  0.7886806051553918  1.0000
  O   O17       1.0  0.4936809386045625  0.04852343800091321  0.6567381526873037  1.0000
  O   O18       1.0  0.5063193931136426  0.9514770356323511  0.3432618300741622  1.0000
  O   O19       1.0  0.4382824495169544  0.5681883548425616  0.06844954247486612  1.0000
  O   O20       1.0  0.561716341577956  0.4318126712994328  0.9315501504596712  1.0000
  O   O21       1.0  0.20083803193637811  0.05410198527808059  0.9822410232713994  1.0000
  O   O22       1.0  0.7991622988475202  0.9458984904459766  0.01775806224578958  1.0000
  O   O23       1.0  0.48995295762867386  0.9407052716343572  0.6177187865975712  1.0000
  O   O24       1.0  0.5100475425625035  0.05929465087213261  0.38228120335816135  1.0000
  O   O25       1.0  0.11583556624867694  0.9238614080493409  0.9335809032802304  1.0000
  O   O26       1.0  0.8841644257206482  0.0761401741098524  0.06641637335986422  1.0000
