data_image0
_chemical_formula_structural       Zn8H120C152N16O56
_chemical_formula_sum              "Zn8 H120 C152 N16 O56"
_cell_length_a       15.84987440665542
_cell_length_b       17.42330671053717
_cell_length_c       18.420517164285656
_cell_angle_alpha    91.40873314058301
_cell_angle_beta     89.99923929303954
_cell_angle_gamma    90.00480184029263

_space_group_name_H-M_alt    "P 1"
_space_group_IT_number       1

loop_
  _space_group_symop_operation_xyz
  'x, y, z'

loop_
  _atom_site_type_symbol
  _atom_site_label
  _atom_site_symmetry_multiplicity
  _atom_site_fract_x
  _atom_site_fract_y
  _atom_site_fract_z
  _atom_site_occupancy
  Zn  Zn1       1.0  0.4397342885691912  0.6755500279077327  0.16189151914031893  1.0000
  Zn  Zn2       1.0  0.9397784577506414  0.8245875145006355  0.838212183634212  1.0000
  Zn  Zn3       1.0  0.5603364109083699  0.32463613099796623  0.8381165062639011  1.0000
  Zn  Zn4       1.0  0.060319355652914894  0.17527034118746349  0.16186564072360443  1.0000
  Zn  Zn5       1.0  0.4693306806083584  0.16845660262534787  0.39156148812306657  1.0000
  Zn  Zn6       1.0  0.9694224237779705  0.3313649520863466  0.6082793143514704  1.0000
  Zn  Zn7       1.0  0.5306851313501184  0.8315507337900104  0.6082129303434838  1.0000
  Zn  Zn8       1.0  0.030602847363041998  0.6687178108213915  0.3916813559485062  1.0000
  H   H1        1.0  0.1265101214422515  0.19954156504839915  0.7679901353366386  1.0000
  H   H2        1.0  0.6262570891345332  0.3002142621176916  0.23217027920071584  1.0000
  H   H3        1.0  0.8738009504136526  0.8004747124456842  0.23205375229867536  1.0000
  H   H4        1.0  0.37361106998471166  0.6997154117279866  0.767963422829929  1.0000
  H   H5        1.0  0.35425233016876223  0.8740055038868424  0.5366016254975817  1.0000
  H   H6        1.0  0.8542420397298329  0.6262234602731883  0.46325336699402436  1.0000
  H   H7        1.0  0.645732565379504  0.12608176027735857  0.4632825988645377  1.0000
  H   H8        1.0  0.14581414340990054  0.37373927020149744  0.536667723333693  1.0000
  H   H9        1.0  0.28485342880897957  0.2501575885111365  0.25427115561525676  1.0000
  H   H10       1.0  0.7848488007539913  0.2496550195295272  0.7455723360765132  1.0000
  H   H11       1.0  0.7152374556229477  0.7499068540187327  0.7457303674955609  1.0000
  H   H12       1.0  0.21529318343744563  0.7502980612308863  0.2544392014261304  1.0000
  H   H13       1.0  0.9237946261155373  0.09491409283054254  0.07754334534884318  1.0000
  H   H14       1.0  0.4236990755859793  0.40488340837041664  0.9223815376478864  1.0000
  H   H15       1.0  0.0763120289225796  0.9049314396934  0.9223067416585448  1.0000
  H   H16       1.0  0.5760738170769885  0.5950622836032199  0.07770745978747579  1.0000
  H   H17       1.0  0.9026295239911377  0.05420565866418062  0.9471547988171591  1.0000
  H   H18       1.0  0.4023414416796741  0.44555378485294045  0.05277170322634109  1.0000
  H   H19       1.0  0.09763928107852847  0.9457041477596566  0.05266740317893688  1.0000
  H   H20       1.0  0.5972907523160343  0.5543184355533416  0.9473341179327829  1.0000
  H   H21       1.0  0.005336522674326701  0.10039116147176233  0.8536504035066128  1.0000
  H   H22       1.0  0.5048527429646654  0.3992871128407601  0.14636641736315428  1.0000
  H   H23       1.0  0.9950420586790542  0.8995400247608463  0.14628519288625338  1.0000
  H   H24       1.0  0.4947895467902724  0.6006431276213251  0.8537694645284117  1.0000
  H   H25       1.0  0.13417175453011512  0.2573229686481471  0.8765189386260698  1.0000
  H   H26       1.0  0.6336656043235891  0.242395674343591  0.12367241803430316  1.0000
  H   H27       1.0  0.8661235436475677  0.7426962016781432  0.12354455638397606  1.0000
  H   H28       1.0  0.3660340987164972  0.7575397535756923  0.8764787805602975  1.0000
  H   H29       1.0  0.20828518901799947  0.1880534557302768  0.9054238976928057  1.0000
  H   H30       1.0  0.7079053933215391  0.31153220733997256  0.09470701459708407  1.0000
  H   H31       1.0  0.7919564791337166  0.8119364532772908  0.09465686142408457  1.0000
  H   H32       1.0  0.2917955715931554  0.6883486183199143  0.9053908558146373  1.0000
  H   H33       1.0  0.14609648485868829  0.11137601655303095  0.6810960327316662  1.0000
  H   H34       1.0  0.6460199354252012  0.3884602468059272  0.3190935025536134  1.0000
  H   H35       1.0  0.8540076420494669  0.8885943657176514  0.31898374738010915  1.0000
  H   H36       1.0  0.3539050055589285  0.6114516389504207  0.6810457771801521  1.0000
  H   H37       1.0  0.22060258806236993  0.4504245846249548  0.1321158725682565  1.0000
  H   H38       1.0  0.7208576087110713  0.04951125965142473  0.8680178576671691  1.0000
  H   H39       1.0  0.7792422328617548  0.5496491813588521  0.868012342437346  1.0000
  H   H40       1.0  0.2793140268870857  0.9505326859128692  0.13212598750777718  1.0000
  H   H41       1.0  0.4427427402051621  0.4511317470833733  0.26733341684974476  1.0000
  H   H42       1.0  0.9429348596916326  0.048819206863782924  0.7327546474730935  1.0000
  H   H43       1.0  0.5571544516806597  0.5490470667992826  0.7327819311363013  1.0000
  H   H44       1.0  0.0572828282981348  0.9511524600128712  0.26743699517114544  1.0000
  H   H45       1.0  0.37471679104940137  0.03384423168503761  0.44617293698191646  1.0000
  H   H46       1.0  0.8749155801428472  0.4661882095870739  0.5536597914733574  1.0000
  H   H47       1.0  0.6252289822145797  0.9661426016925111  0.553744343474534  1.0000
  H   H48       1.0  0.12522136544016146  0.5338738199548633  0.44624070449328457  1.0000
  H   H49       1.0  0.4317579884811735  0.8443591074642358  0.2982054105131836  1.0000
  H   H50       1.0  0.9319887050575771  0.6556328155823865  0.7016901016686672  1.0000
  H   H51       1.0  0.5680054525994223  0.15564657887879468  0.7016400830050029  1.0000
  H   H52       1.0  0.06808956324577049  0.3444212151456086  0.2982455023617802  1.0000
  H   H53       1.0  0.141049353802039  0.21452939341832444  0.027973271844686596  1.0000
  H   H54       1.0  0.6408966424482402  0.28531665906053416  0.9721375744656624  1.0000
  H   H55       1.0  0.8590194451218807  0.7855046823979142  0.9720807781792682  1.0000
  H   H56       1.0  0.35884470122928036  0.7146406132952737  0.02803636773712979  1.0000
  H   H57       1.0  0.71058790701926  0.2645528573448673  0.4578711024376857  1.0000
  H   H58       1.0  0.21073395084358276  0.23487829377098288  0.5419986100263329  1.0000
  H   H59       1.0  0.28933956948423395  0.7355161670253101  0.5421272621194858  1.0000
  H   H60       1.0  0.7892635570576515  0.7650022359113609  0.45783596581473746  1.0000
  H   H61       1.0  0.9632804974613977  0.2669035862634247  0.37330872744409754  1.0000
  H   H62       1.0  0.4633557700813284  0.23265941639007087  0.6268154596443053  1.0000
  H   H63       1.0  0.03669744831066169  0.7331931535128438  0.626822714514759  1.0000
  H   H64       1.0  0.5366676048756956  0.7672096384772475  0.37302429062818726  1.0000
  H   H65       1.0  0.7585123265166444  0.1896037766036259  0.23648261059709338  1.0000
  H   H66       1.0  0.2584336331037846  0.3098666901628634  0.7634234166252722  1.0000
  H   H67       1.0  0.24156341568246378  0.8104733143138818  0.7635349363971  1.0000
  H   H68       1.0  0.7416200220646302  0.6899231646745466  0.23643737635308773  1.0000
  H   H69       1.0  0.2792139858735537  0.8720091346731568  0.39209406773957056  1.0000
  H   H70       1.0  0.7795460712571939  0.6282402643628233  0.6078557598234082  1.0000
  H   H71       1.0  0.7205620745013305  0.12810630356833033  0.6078347510305944  1.0000
  H   H72       1.0  0.2205347181405344  0.3717695856018183  0.392101121080067  1.0000
  H   H73       1.0  0.36911748967317237  0.8207841749983092  0.42182613316716544  1.0000
  H   H74       1.0  0.8695178082276344  0.6792749969313124  0.5779860217706767  1.0000
  H   H75       1.0  0.6306289167256477  0.17922323038796156  0.5780172267094059  1.0000
  H   H76       1.0  0.13051503472836856  0.3207772820130828  0.4219261989662327  1.0000
  H   H77       1.0  0.2554704033333266  0.08877870634137965  0.5771464002939339  1.0000
  H   H78       1.0  0.7556218923645588  0.41112284097774693  0.4229216367210923  1.0000
  H   H79       1.0  0.7444759962999185  0.9111979134391606  0.42287325644008417  1.0000
  H   H80       1.0  0.24440084593913977  0.5888084530900318  0.5771192728407185  1.0000
  H   H81       1.0  0.3536661366615376  0.04639300448830142  0.5985783754937086  1.0000
  H   H82       1.0  0.8537942822959792  0.453490688928618  0.4013376661721963  1.0000
  H   H83       1.0  0.6462922539739464  0.9535570751233711  0.4013288602821417  1.0000
  H   H84       1.0  0.14621016096638328  0.5464152679540605  0.5986386214239728  1.0000
  H   H85       1.0  0.28163685076617645  0.9240914592429876  0.6255237439925876  1.0000
  H   H86       1.0  0.7818096665150093  0.5758280240184707  0.37441287402081247  1.0000
  H   H87       1.0  0.7183032407065254  0.07586846241510872  0.374454283495595  1.0000
  H   H88       1.0  0.2181897306185547  0.42408594350444445  0.6255407906704489  1.0000
  H   H89       1.0  0.12701433364841816  0.9084743275408447  0.6065872067080489  1.0000
  H   H90       1.0  0.6272246889724259  0.5915617635464445  0.393382062466486  1.0000
  H   H91       1.0  0.8728468935741984  0.09156775882842544  0.3934518168570022  1.0000
  H   H92       1.0  0.37275577455751824  0.40836961979839975  0.6067364791649863  1.0000
  H   H93       1.0  0.11862297185459168  0.005477293660462102  0.5820307601832438  1.0000
  H   H94       1.0  0.6187264649248404  0.49459815185681344  0.41809140500662767  1.0000
  H   H95       1.0  0.8813284745661106  0.994589003984345  0.41808914788740725  1.0000
  H   H96       1.0  0.38131835238445416  0.5053292123449894  0.5820243342189783  1.0000
  H   H97       1.0  0.30187091405492333  0.125995110174955  0.7027106829243974  1.0000
  H   H98       1.0  0.8018101228087531  0.3737675987385532  0.2973532840386141  1.0000
  H   H99       1.0  0.69821113350703  0.873931507537208  0.2972568360213258  1.0000
  H   H100      1.0  0.19808327678265406  0.6261372553290487  0.7026658639870644  1.0000
  H   H101      1.0  0.3078605062906377  0.02838542448642301  0.7266931578653482  1.0000
  H   H102      1.0  0.8078256759791813  0.4713501456205976  0.2732721703855105  1.0000
  H   H103      1.0  0.6922543494979793  0.9715423327201624  0.27326570102123066  1.0000
  H   H104      1.0  0.1920816038730138  0.5285437880915468  0.7267358779613173  1.0000
  H   H105      1.0  0.5301481310281062  0.07270915201859654  0.27008381503943457  1.0000
  H   H106      1.0  0.030133656974832897  0.42721240583357933  0.7298758258287774  1.0000
  H   H107      1.0  0.4697629414515062  0.927260442916918  0.7298216816736766  1.0000
  H   H108      1.0  0.96999634877546  0.5728519141304746  0.27001983500500154  1.0000
  H   H109      1.0  0.5166849943515501  0.9347960369731684  0.22586256716956393  1.0000
  H   H110      1.0  0.016774357458061197  0.5651239846374027  0.7740712343764782  1.0000
  H   H111      1.0  0.4831036828454742  0.06518782958312395  0.7739786422259624  1.0000
  H   H112      1.0  0.9833600642912612  0.4349397735180391  0.22583472865732548  1.0000
  H   H113      1.0  0.0746165916583266  0.9883054695526288  0.710716445261063  1.0000
  H   H114      1.0  0.574568587550445  0.5115665687165464  0.2894399417822696  1.0000
  H   H115      1.0  0.9254301212052455  0.011708601067809403  0.28941370529044247  1.0000
  H   H116      1.0  0.4252831640569781  0.488317228583604  0.7107383426657561  1.0000
  H   H117      1.0  0.1726943807487373  0.9473842817068321  0.7326244633811141  1.0000
  H   H118      1.0  0.6726463004901292  0.5524446403366244  0.26738642078174013  1.0000
  H   H119      1.0  0.8273321432444333  0.05256999760988632  0.26743432855375454  1.0000
  H   H120      1.0  0.32714867406704684  0.4474665762737972  0.7326768394141039  1.0000
  C   C1        1.0  0.16804768300098522  0.305932050190819  0.16226835277559096  1.0000
  C   C2        1.0  0.6681542737171358  0.19401843468276786  0.8376970770788359  1.0000
  C   C3        1.0  0.8319826349241736  0.6941616498513101  0.837716989760281  1.0000
  C   C4        1.0  0.33212715013990385  0.8061908060133761  0.16240321033839675  1.0000
  C   C5        1.0  0.24406384734875528  0.3467667623658672  0.19115234108510035  1.0000
  C   C6        1.0  0.7441714887739934  0.1531681390497895  0.8088514082499072  1.0000
  C   C7        1.0  0.7559267193920718  0.6533350761785927  0.8089205840089446  1.0000
  C   C8        1.0  0.25607522685044165  0.8468970591978509  0.19129888182009575  1.0000
  C   C9        1.0  0.2978734763556331  0.3088972594285695  0.23897728818948136  1.0000
  C   C10       1.0  0.7979299056617248  0.19095849006365748  0.7609268214493949  1.0000
  C   C11       1.0  0.7021398045115743  0.6912011022759617  0.7610673307200171  1.0000
  C   C12       1.0  0.20226318203884827  0.8090245088911634  0.23913804000792982  1.0000
  C   C13       1.0  0.9268411206921243  0.20841332334825322  0.2386237577944  1.0000
  C   C14       1.0  0.426654502127178  0.29109705133629415  0.7614984393484928  1.0000
  C   C15       1.0  0.0732787787013223  0.7915760411847617  0.7614868449909975  1.0000
  C   C16       1.0  0.5733455302310091  0.7088432299781009  0.23837437863011243  1.0000
  C   C17       1.0  0.8697936623616299  0.3033476236243971  0.4932453706054573  1.0000
  C   C18       1.0  0.3699698312488522  0.19610071631333892  0.5067571528288681  1.0000
  C   C19       1.0  0.1300480145969445  0.6968695216732076  0.5067584526808913  1.0000
  C   C20       1.0  0.6300869837785966  0.8037688765482901  0.4930505804906245  1.0000
  C   C21       1.0  0.8396215266113031  0.2705050731887513  0.4221184910493604  1.0000
  C   C22       1.0  0.3397408582964445  0.22894974710261107  0.5778678491686902  1.0000
  C   C23       1.0  0.1603040572564964  0.7295984325427516  0.5779099542431607  1.0000
  C   C24       1.0  0.6602831485499722  0.7709118079355765  0.4219407908157179  1.0000
  C   C25       1.0  0.9668232462872768  0.11244382572937184  0.03492966820142839  1.0000
  C   C26       1.0  0.46667807583099113  0.3873552430601493  0.965028340538147  1.0000
  C   C27       1.0  0.03334713041471099  0.8874310578081085  0.9649791591350546  1.0000
  C   C28       1.0  0.5330904008056406  0.6126134267853092  0.035072567347647486  1.0000
  C   C29       1.0  0.955657887382145  0.09094030678116383  0.9623890620147928  1.0000
  C   C30       1.0  0.45539215185117143  0.40883249801857624  0.03756468754629339  1.0000
  C   C31       1.0  0.04459514161468551  0.9089603921143523  0.037500253749989595  1.0000
  C   C32       1.0  0.544306291064487  0.5911046043855138  0.9625458327102404  1.0000
  C   C33       1.0  0.0128598154102662  0.11655125212895008  0.9107955294952031  1.0000
  C   C34       1.0  0.5125005504519821  0.38317821572680816  0.08921945380675567  1.0000
  C   C35       1.0  0.9874399005472084  0.8833782184427864  0.08914871330466667  1.0000
  C   C36       1.0  0.4871922140706104  0.6167784312651607  0.9109126723636077  1.0000
  C   C37       1.0  0.0804789275597457  0.16288437632183428  0.9328651547919972  1.0000
  C   C38       1.0  0.5801556952709886  0.33686609397656053  0.06720059094010368  1.0000
  C   C39       1.0  0.919741923119048  0.8371054482508814  0.06714448566500407  1.0000
  C   C40       1.0  0.41955284213553773  0.6630980287131867  0.9329414732314729  1.0000
  C   C41       1.0  0.14512694879981322  0.19533901162512288  0.8815851451032938  1.0000
  C   C42       1.0  0.644725728295427  0.3043575691675502  0.11854044467830954  1.0000
  C   C43       1.0  0.8551336489208339  0.8046738310327233  0.11846897991627256  1.0000
  C   C44       1.0  0.35498407027599654  0.6955766861055612  0.8815895560104178  1.0000
  C   C45       1.0  0.17272039507281528  0.09150658741223344  0.7932358673845027  1.0000
  C   C46       1.0  0.6724954987530438  0.40822688732698975  0.20687745955746806  1.0000
  C   C47       1.0  0.8274102309320311  0.9084551613331303  0.20682417808782813  1.0000
  C   C48       1.0  0.32724963255484596  0.5917308987547687  0.7932449211630794  1.0000
  C   C49       1.0  0.18020168046147234  0.06839212390132593  0.7127982642715265  1.0000
  C   C50       1.0  0.6801190671335108  0.4314103549982422  0.2873271911604788  1.0000
  C   C51       1.0  0.8198929826093744  0.9315610165880065  0.2872659323806984  1.0000
  C   C52       1.0  0.31976107988281643  0.5685089616878332  0.7127861948156917  1.0000
  C   C53       1.0  0.35500794930860735  0.5372843582851774  0.17188091337136055  1.0000
  C   C54       1.0  0.8553255335895359  0.9628400386475992  0.8283246592606585  1.0000
  C   C55       1.0  0.6447876651417702  0.46300018614514477  0.8283198399406329  1.0000
  C   C56       1.0  0.1448177068167738  0.037087916162697424  0.17180140950643616  1.0000
  C   C57       1.0  0.26190750651726796  0.42157472535396345  0.17008412901644474  1.0000
  C   C58       1.0  0.7620782688873718  0.07840262669242294  0.830004289336969  1.0000
  C   C59       1.0  0.7380048258026833  0.5785708012512745  0.830039708995805  1.0000
  C   C60       1.0  0.2381129246788234  0.9216275415707361  0.17013979316861588  1.0000
  C   C61       1.0  0.3871054384343822  0.42182072901921  0.24577063019744108  1.0000
  C   C62       1.0  0.887285478363495  0.07815506142784304  0.7542599938284339  1.0000
  C   C63       1.0  0.6127822911212988  0.5783850551937137  0.7543344589887864  1.0000
  C   C64       1.0  0.1129164396384823  0.92183950759398  0.2458794983285698  1.0000
  C   C65       1.0  0.33374944044972205  0.4588718170243526  0.19716749713187195  1.0000
  C   C66       1.0  0.8339611350260084  0.04117683170979092  0.8029474429549522  1.0000
  C   C67       1.0  0.6661042185936026  0.5413587043401481  0.8029821134096975  1.0000
  C   C68       1.0  0.16622122380419307  0.958806260475676  0.19719722274126633  1.0000
  C   C69       1.0  0.3958707558164035  0.9313443101014234  0.3788788171080169  1.0000
  C   C70       1.0  0.896086096619868  0.5686725126347344  0.6209838793320868  1.0000
  C   C71       1.0  0.6039614548422918  0.06866657185376826  0.6209885079851885  1.0000
  C   C72       1.0  0.10403696890099208  0.4313975577529094  0.3789200521519404  1.0000
  C   C73       1.0  0.4060826475227656  0.008567894277860005  0.39873193008037316  1.0000
  C   C74       1.0  0.9062637829916298  0.49143234831774424  0.6011283969033767  1.0000
  C   C75       1.0  0.5938151773714182  0.99142981267886  0.6011579043795121  1.0000
  C   C76       1.0  0.09387631802291453  0.5086440260034026  0.3987653602773164  1.0000
  C   C77       1.0  0.4369836248934575  0.9044312896743211  0.3159818795285644  1.0000
  C   C78       1.0  0.9371852334496822  0.5955570687463594  0.6839056048095455  1.0000
  C   C79       1.0  0.5627993747020597  0.09557324802999292  0.6838625031038601  1.0000
  C   C80       1.0  0.06294414126985971  0.40451127765850736  0.3159966598935496  1.0000
  C   C81       1.0  0.42818984465024096  0.30512362863520087  0.3161310516113644  1.0000
  C   C82       1.0  0.9281045673626309  0.19474065584469719  0.683620130318985  1.0000
  C   C83       1.0  0.5719691874850811  0.6950170164003783  0.6837375321821566  1.0000
  C   C84       1.0  0.0719326899641999  0.8053134074817979  0.3163447888262424  1.0000
  C   C85       1.0  0.08820115571397479  0.180672639735498  0.006797648006241298  1.0000
  C   C86       1.0  0.5880045711897922  0.3191399424791756  0.9932599955687348  1.0000
  C   C87       1.0  0.9119307340196628  0.8192993998248074  0.9932257106025443  1.0000
  C   C88       1.0  0.4117424534863545  0.680847713071991  0.006876077358853594  1.0000
  C   C89       1.0  0.36948956497106883  0.3467229912827748  0.2659773870540717  1.0000
  C   C90       1.0  0.8695565948596168  0.15317700596252595  0.7339151764851619  1.0000
  C   C91       1.0  0.6304959585104726  0.6534367780355483  0.7340501371247539  1.0000
  C   C92       1.0  0.1306276603804619  0.8468094290143856  0.26614270374754767  1.0000
  C   C93       1.0  0.7539391861432138  0.25385406044559033  0.4128592573148423  1.0000
  C   C94       1.0  0.2540350906445141  0.24555229350350782  0.5870565793549998  1.0000
  C   C95       1.0  0.2460065856544844  0.74619431373705  0.5871533066504495  1.0000
  C   C96       1.0  0.7459851305922313  0.7543207590062269  0.41276534480370936  1.0000
  C   C97       1.0  0.8963221437392122  0.2561319393964895  0.36528459100387056  1.0000
  C   C98       1.0  0.396374892935242  0.24336989505327727  0.6347564800778966  1.0000
  C   C99       1.0  0.10366715991450799  0.7439434967202634  0.6347937194401749  1.0000
  C   C100      1.0  0.6036472206675254  0.7564928234340089  0.3650652146623016  1.0000
  C   C101      1.0  0.724495097936213  0.22471391954208297  0.346126640916978  1.0000
  C   C102      1.0  0.22450079342162607  0.27466509496294134  0.6537636021767665  1.0000
  C   C103      1.0  0.2755125026941272  0.7752954123335204  0.6538807143308245  1.0000
  C   C104      1.0  0.7755301531217073  0.7252102666041157  0.3460686880435801  1.0000
  C   C105      1.0  0.2580181880243302  0.9487797929345735  0.5136668539700722  1.0000
  C   C106      1.0  0.7582765360201335  0.5511715008156914  0.48629999174167415  1.0000
  C   C107      1.0  0.7417837299955963  0.05112557954435461  0.4863083311259614  1.0000
  C   C108      1.0  0.24177270558820396  0.448814835082935  0.513678624277041  1.0000
  C   C109      1.0  0.7808526026653696  0.21241593877557122  0.2886243893937248  1.0000
  C   C110      1.0  0.28079149964565175  0.28699914028261037  0.7113110997922332  1.0000
  C   C111      1.0  0.21920421014253583  0.7876307415833286  0.7114082253441507  1.0000
  C   C112      1.0  0.7192438613675376  0.7128314480016799  0.28852671085583376  1.0000
  C   C113      1.0  0.8668099174664476  0.22699233324230775  0.29852104143274955  1.0000
  C   C114      1.0  0.36676299149514335  0.27248559806810146  0.7014928810334096  1.0000
  C   C115      1.0  0.13325131048211603  0.7730561091872876  0.7015452706540157  1.0000
  C   C116      1.0  0.6332780488036391  0.7273645027985015  0.2983388484935289  1.0000
  C   C117      1.0  0.6336718995147167  0.20391712442077656  0.33592131983799317  1.0000
  C   C118      1.0  0.13368154516292213  0.29547385063398235  0.6639223708138855  1.0000
  C   C119      1.0  0.36635651919905843  0.796022154628283  0.6640747086456853  1.0000
  C   C120      1.0  0.8663752709815425  0.7045083609624572  0.33596603681038306  1.0000
  C   C121      1.0  0.33981352030019724  0.8778827344612882  0.4210570697655525  1.0000
  C   C122      1.0  0.8400913427429088  0.6222255775428922  0.5788256542984198  1.0000
  C   C123      1.0  0.6599991321233813  0.12215515179830316  0.5788293122498087  1.0000
  C   C124      1.0  0.1599749378230513  0.37781466619318144  0.4211031289067292  1.0000
  C   C125      1.0  0.28588020524651364  0.04639460493022801  0.6117982819582861  1.0000
  C   C126      1.0  0.7859829210809366  0.45348085268759086  0.3881953928079297  1.0000
  C   C127      1.0  0.7140933248266208  0.9535503790609143  0.3881690998898505  1.0000
  C   C128      1.0  0.21400890287911523  0.546441797650502  0.6118192663378392  1.0000
  C   C129      1.0  0.2468041700353609  0.9674073776718333  0.5949927913581232  1.0000
  C   C130      1.0  0.7469660845780125  0.5325182191242989  0.4049665491607539  1.0000
  C   C131      1.0  0.7531182551772488  0.03254853458043532  0.40499383274891426  1.0000
  C   C132      1.0  0.2530490846662374  0.4674176152704492  0.5950299454648799  1.0000
  C   C133      1.0  0.15359996812880888  0.9660016291043413  0.6168066885063863  1.0000
  C   C134      1.0  0.6537158112567382  0.5339835060779097  0.38322649833462197  1.0000
  C   C135      1.0  0.8463432762164944  0.03400432277717162  0.3832581350578933  1.0000
  C   C136      1.0  0.3462678085204871  0.4659541518967247  0.616857438787356  1.0000
  C   C137      1.0  0.27414398194695616  0.06900639538348231  0.6921128125983028  1.0000
  C   C138      1.0  0.7741170595448353  0.43077792153483346  0.3079174851331174  1.0000
  C   C139      1.0  0.7259273391198491  0.9309213962217135  0.3078769900157282  1.0000
  C   C140      1.0  0.22579337479270117  0.5691321086312017  0.6921088354913321  1.0000
  C   C141      1.0  0.493041541672511  0.03065154539683591  0.29932598310772807  1.0000
  C   C142      1.0  0.9931075236052391  0.46928184859467603  0.700581159983457  1.0000
  C   C143      1.0  0.5068291534323277  0.9693243266936311  0.7005487084527429  1.0000
  C   C144      1.0  0.007046457842790199  0.5307973943794126  0.2993104896578983  1.0000
  C   C145      1.0  0.4855876033576579  0.9545929724744161  0.275591730331051  1.0000
  C   C146      1.0  0.9857012649245575  0.5453492094226822  0.7243171694653154  1.0000
  C   C147      1.0  0.5142193705128546  0.04539721719559251  0.7242555914082869  1.0000
  C   C148      1.0  0.0144514545523862  0.4547277383020474  0.2755755149359301  1.0000
  C   C149      1.0  0.14218805637752754  0.9890042954955692  0.6970343584046785  1.0000
  C   C150      1.0  0.6421679131998275  0.5108604546098194  0.3030407856534793  1.0000
  C   C151      1.0  0.8578454078382619  0.010972971122861006  0.30304394462743994  1.0000
  C   C152      1.0  0.357704662625565  0.48905484292010487  0.6970725109412185  1.0000
  N   N1        1.0  0.032526479255544395  0.1566377398387503  0.05623225709615548  1.0000
  N   N2        1.0  0.532412122956302  0.3431899121068512  0.9437612152089084  1.0000
  N   N3        1.0  0.9676028849047144  0.8432521651746684  0.9437588768700561  1.0000
  N   N4        1.0  0.46739673460646  0.6568223809557382  0.05633089030943237  1.0000
  N   N5        1.0  0.14377280486029778  0.1629190755895921  0.8084530411651157  1.0000
  N   N6        1.0  0.6434464146675937  0.3368267646370527  0.19167576473101625  1.0000
  N   N7        1.0  0.8565243869114597  0.8371052433876688  0.19159482487499693  1.0000
  N   N8        1.0  0.356341618597547  0.6631189707207671  0.808449606458346  1.0000
  N   N9        1.0  0.4539375785150881  0.056814097771280124  0.3600918036310573  1.0000
  N   N10       1.0  0.9540594497735313  0.44312725512978823  0.6397749715444758  1.0000
  N   N11       1.0  0.5459722334844842  0.9431727002202029  0.6397967030862259  1.0000
  N   N12       1.0  0.046085067919570094  0.5569583084478186  0.3601217041206296  1.0000
  N   N13       1.0  0.3229324222043957  0.9017702781801449  0.49578326418624374  1.0000
  N   N14       1.0  0.8230636556126781  0.5983727083815044  0.5041115404981864  1.0000
  N   N15       1.0  0.6769742365905032  0.09827223006005432  0.5041243942648632  1.0000
  N   N16       1.0  0.17697549369230353  0.40163712188112305  0.49583013873989745  1.0000
  O   O1        1.0  0.16914438583689415  0.23194319243284428  0.16490012891242856  1.0000
  O   O2        1.0  0.6691913413208114  0.26800107719954996  0.8350695457274495  1.0000
  O   O3        1.0  0.8308726859632499  0.7681417932691733  0.8349981601642253  1.0000
  O   O4        1.0  0.33105096634275805  0.73220813753219  0.16501011119983383  1.0000
  O   O5        1.0  0.004635547724177501  0.2289616095059018  0.24668311647786814  1.0000
  O   O6        1.0  0.5045808504021991  0.27101345277408484  0.7533511335091416  1.0000
  O   O7        1.0  0.995481200229534  0.7710609988525976  0.7533815372853423  1.0000
  O   O8        1.0  0.4955220338652496  0.729246622043377  0.24653367285472422  1.0000
  O   O9        1.0  0.950602331992009  0.30891521402946875  0.502852866372585  1.0000
  O   O10       1.0  0.4507832775303983  0.19083186579639036  0.4970713594463445  1.0000
  O   O11       1.0  0.04923997507476229  0.6912927588104626  0.49716215360119503  1.0000
  O   O12       1.0  0.5492741715678235  0.8091066058385369  0.5027248742922195  1.0000
  O   O13       1.0  0.41689938654788244  0.5728390046631449  0.20370269177511346  1.0000
  O   O14       1.0  0.9171688369735094  0.9273309587963968  0.7963976259579792  1.0000
  O   O15       1.0  0.5829927614168896  0.42740580568052183  0.7963913208073732  1.0000
  O   O16       1.0  0.0829882828991657  0.07259701894293613  0.20374744414115034  1.0000
  O   O17       1.0  0.5950973705230853  0.18034813440267788  0.39328657079361296  1.0000
  O   O18       1.0  0.09516398521207493  0.3191967540495356  0.6065895002242312  1.0000
  O   O19       1.0  0.4049133843331489  0.8196583346777406  0.6067272354273994  1.0000
  O   O20       1.0  0.9048518202211825  0.6807797349507186  0.3933161515163731  1.0000
  O   O21       1.0  0.408761926550035  0.23433951339435322  0.32598541443485357  1.0000
  O   O22       1.0  0.9087858031292199  0.2655616415836732  0.6738755238199089  1.0000
  O   O23       1.0  0.5914387483667695  0.7657786581463103  0.6738104689967555  1.0000
  O   O24       1.0  0.09121233723457318  0.7344912685808186  0.32608665462489467  1.0000
  O   O25       1.0  0.10676697729387999  0.34302744371530747  0.13800740678979645  1.0000
  O   O26       1.0  0.6068737555310905  0.15687505826455353  0.8619166704209318  1.0000
  O   O27       1.0  0.8933043525879042  0.6571070026121647  0.8619636407792084  1.0000
  O   O28       1.0  0.39337170824669704  0.843345032957828  0.13813608440093358  1.0000
  O   O29       1.0  0.31469283363725953  0.5649202469029081  0.11991379166762775  1.0000
  O   O30       1.0  0.815208462359223  0.9352282644354308  0.8804064481082318  1.0000
  O   O31       1.0  0.6849475725153341  0.4354430899981809  0.8804124833386239  1.0000
  O   O32       1.0  0.18490133849987703  0.06462614389651124  0.11966858556273505  1.0000
  O   O33       1.0  0.4895337964898943  0.34034735776512565  0.3438625224320972  1.0000
  O   O34       1.0  0.9892555986932975  0.15943714223115538  0.6556627947177486  1.0000
  O   O35       1.0  0.510687699879064  0.6597788293916268  0.6559139959271432  1.0000
  O   O36       1.0  0.010740655256867602  0.8406609892266206  0.3441863843888696  1.0000
  O   O37       1.0  0.8171877287756004  0.32441016613510953  0.5406103341874553  1.0000
  O   O38       1.0  0.31740709380339643  0.17474307885981238  0.4594585918532913  1.0000
  O   O39       1.0  0.18261609900026343  0.6758901422149963  0.4593253042722551  1.0000
  O   O40       1.0  0.6826850511419664  0.8250708109220924  0.5403348763510677  1.0000
  O   O41       1.0  0.2118265202008871  0.9781979021117736  0.4674773649285979  1.0000
  O   O42       1.0  0.7122857619665338  0.5215845609148747  0.5325203851546476  1.0000
  O   O43       1.0  0.7877854826114756  0.021536427949655507  0.5325390773263621  1.0000
  O   O44       1.0  0.2877666346529892  0.4784264774559761  0.46747180836805297  1.0000
  O   O45       1.0  0.6000130870920086  0.20814074134547417  0.2745699051851743  1.0000
  O   O46       1.0  0.09999092480288141  0.29114961783943744  0.7252540089626007  1.0000
  O   O47       1.0  0.40001217287081664  0.7916837077810617  0.7254181448548207  1.0000
  O   O48       1.0  0.9001516990064004  0.7089468985004718  0.2746809109873921  1.0000
  O   O49       1.0  0.1948405370948834  0.04728235805574602  0.841780121770199  1.0000
  O   O50       1.0  0.6946009431236105  0.4524324151023652  0.15833252911385637  1.0000
  O   O51       1.0  0.8051424514172822  0.9526271471195147  0.15828527542542756  1.0000
  O   O52       1.0  0.30498835347625436  0.5476017337229637  0.8418018588292993  1.0000
  O   O53       1.0  0.9023275733730356  0.17178654835909415  0.18265738386361355  1.0000
  O   O54       1.0  0.40186984401688614  0.32728893396014075  0.8176122136141044  1.0000
  O   O55       1.0  0.09782134173931208  0.8280874836877036  0.8175049459778589  1.0000
  O   O56       1.0  0.597916297482186  0.6724561845796803  0.18229589678182376  1.0000
