data_image0
_chemical_formula_structural       Ca2H40C32N20O16
_chemical_formula_sum              "Ca2 H40 C32 N20 O16"
_cell_length_a       7.785776576689352
_cell_length_b       11.810980387604165
_cell_length_c       11.810982258545007
_cell_angle_alpha    85.36267504390045
_cell_angle_beta     90.5200051173655
_cell_angle_gamma    90.51968044183351

_space_group_name_H-M_alt    "P 1"
_space_group_IT_number       1

loop_
  _space_group_symop_operation_xyz
  'x, y, z'

loop_
  _atom_site_type_symbol
  _atom_site_label
  _atom_site_symmetry_multiplicity
  _atom_site_fract_x
  _atom_site_fract_y
  _atom_site_fract_z
  _atom_site_occupancy
  Ca  Ca1       1.0  0.2500007702441565  0.013533466661520806  0.9864666271432441  1.0000
  Ca  Ca2       1.0  0.7500022238496554  0.9864661302188723  0.013532498715868289  1.0000
  H   H1        1.0  0.5415446483463313  0.14701447393245812  0.8606497848592339  1.0000
  H   H2        1.0  0.9584537549119219  0.13934981740934665  0.8529856711083781  1.0000
  H   H3        1.0  0.4584557995329064  0.8529867784249351  0.13935092864021925  1.0000
  H   H4        1.0  0.04154668197797661  0.8606489012051814  0.14701435787070233  1.0000
  H   H5        1.0  0.5424769977350152  0.18135581953865915  0.992486932109088  1.0000
  H   H6        1.0  0.957524209831867  0.007514307361105907  0.8186431695043338  1.0000
  H   H7        1.0  0.4575234619912366  0.8186437199165015  0.007514737936787682  1.0000
  H   H8        1.0  0.04247751149772941  0.9924844185997447  0.18135685898536733  1.0000
  H   H9        1.0  0.24117729249964986  0.2233718184111454  0.08105475738029358  1.0000
  H   H10       1.0  0.2588224212044423  0.9189442919128159  0.7766265995945644  1.0000
  H   H11       1.0  0.7588244173260037  0.7766269217938986  0.9189444233734105  1.0000
  H   H12       1.0  0.7411792771172685  0.08105446253642161  0.22337173342313582  1.0000
  H   H13       1.0  0.0495695943344998  0.20605886881143226  0.03803435314902259  1.0000
  H   H14       1.0  0.4504308407096431  0.9619653474875142  0.7939411183329524  1.0000
  H   H15       1.0  0.9504308538878095  0.7939406848879217  0.961966469160849  1.0000
  H   H16       1.0  0.5495708807914924  0.03803252914431712  0.20605896456196146  1.0000
  H   H17       1.0  0.4477771337556078  0.5167751741189266  0.5703218844098854  1.0000
  H   H18       1.0  0.0522150709565778  0.42967748822395896  0.483222853015171  1.0000
  H   H19       1.0  0.5522155618127514  0.483224392479258  0.4296755498922593  1.0000
  H   H20       1.0  0.9477879342981126  0.5703237930702728  0.5167770117695197  1.0000
  H   H21       1.0  0.2706056511880348  0.6561452358080332  0.6555247365267788  1.0000
  H   H22       1.0  0.229390987719654  0.34447400129680983  0.3438560129103934  1.0000
  H   H23       1.0  0.7293896129166486  0.34385604414083565  0.34447258798618197  1.0000
  H   H24       1.0  0.7706120177065685  0.6555264306684025  0.6561439062795031  1.0000
  H   H25       1.0  0.2219547729870186  0.4493371744275406  0.9571654871410187  1.0000
  H   H26       1.0  0.2780416307766487  0.04283216948908121  0.5506659490166115  1.0000
  H   H27       1.0  0.7780430828334063  0.5506649410546134  0.042833477459979  1.0000
  H   H28       1.0  0.7219588177887316  0.9571656855522338  0.4493349821036857  1.0000
  H   H29       1.0  0.3890906982673173  0.2966309173962714  0.8808305475312325  1.0000
  H   H30       1.0  0.1109041644725224  0.11916994529103427  0.7033706522888251  1.0000
  H   H31       1.0  0.6109045890167837  0.7033694847351839  0.11916852685894239  1.0000
  H   H32       1.0  0.8890975678464131  0.8808313144126815  0.29663006072124176  1.0000
  H   H33       1.0  0.05563780442846421  0.6039034327694709  0.9232874093256882  1.0000
  H   H34       1.0  0.44436045593934637  0.07671112988477802  0.3961006351759123  1.0000
  H   H35       1.0  0.9443613356601264  0.3960995393880254  0.0767115003807177  1.0000
  H   H36       1.0  0.5556400039584375  0.9232875602413634  0.603901089275169  1.0000
  H   H37       1.0  0.0533779557994905  0.6823344191782257  0.7885020712303045  1.0000
  H   H38       1.0  0.44662336940709224  0.2114963449928737  0.31766980040237053  1.0000
  H   H39       1.0  0.9466237645008988  0.3176694027567424  0.2114976308281271  1.0000
  H   H40       1.0  0.5533770559788638  0.7885023878658476  0.6823293808407058  1.0000
  C   C1        1.0  0.5284807296045743  0.3028821982917408  0.6665889888442179  1.0000
  C   C2        1.0  0.9715111242455166  0.33341136641188746  0.6971161466107602  1.0000
  C   C3        1.0  0.47151712690198616  0.6971165198743353  0.3334101933776238  1.0000
  C   C4        1.0  0.028486731917979603  0.6665890504122206  0.3028829268006561  1.0000
  C   C5        1.0  0.43700591725338  0.3915969073855694  0.7178742355525785  1.0000
  C   C6        1.0  0.0629900969465638  0.2821276497416322  0.6084020290707812  1.0000
  C   C7        1.0  0.5629906433095472  0.6084018176783774  0.28212409942263855  1.0000
  C   C8        1.0  0.9370116350293005  0.7178753086201228  0.39159857512886725  1.0000
  C   C9        1.0  0.4025194037038133  0.4960796894647219  0.656140069166085  1.0000
  C   C10       1.0  0.09747650443998168  0.34385893150013674  0.5039207768744943  1.0000
  C   C11       1.0  0.5974784407842081  0.503921590932599  0.34385810210412154  1.0000
  C   C12       1.0  0.9025252165465433  0.6561414931187529  0.4960791428047883  1.0000
  C   C13       1.0  0.30380525160238386  0.5760443164161374  0.7026373845015285  1.0000
  C   C14       1.0  0.19619005681866505  0.29736063076920527  0.4239565561054589  1.0000
  C   C15       1.0  0.6961913199498824  0.4239569423906675  0.2973616349940542  1.0000
  C   C16       1.0  0.8038103800712337  0.7026380878453226  0.5760434728736213  1.0000
  C   C17       1.0  0.27580171843618473  0.45890590594239483  0.8722843280431575  1.0000
  C   C18       1.0  0.22419394803849713  0.12771387420941246  0.5410969954812614  1.0000
  C   C19       1.0  0.7241961143763548  0.5410962380281393  0.12771294108583217  1.0000
  C   C20       1.0  0.7758039314759556  0.8722848154682769  0.4589038822125744  1.0000
  C   C21       1.0  0.371566547631943  0.37543002300149214  0.8285897067826155  1.0000
  C   C22       1.0  0.1284277360959081  0.1714115934751562  0.6245702800372399  1.0000
  C   C23       1.0  0.6284325927997186  0.6245712504979651  0.1714093117342088  1.0000
  C   C24       1.0  0.8715714158396964  0.8285896657801006  0.37542958621558836  1.0000
  C   C25       1.0  0.1369711774729794  0.6438789474337414  0.8559689086197579  1.0000
  C   C26       1.0  0.36302875561370485  0.14403062327941293  0.3561255794534546  1.0000
  C   C27       1.0  0.8630292697201228  0.35612570223972284  0.1440315872588442  1.0000
  C   C28       1.0  0.6369729657158916  0.8559681026814379  0.6438744490362466  1.0000
  C   C29       1.0  0.24480737252196152  0.7367215973159279  0.9069842756345992  1.0000
  C   C30       1.0  0.2551957021327951  0.09301830893111433  0.2632794975361179  1.0000
  C   C31       1.0  0.7551969631881903  0.26327963434785334  0.09301897960471449  1.0000
  C   C32       1.0  0.7448060193683332  0.9069795677007166  0.7367205853587959  1.0000
  N   N1        1.0  0.5790778926405977  0.3099613925662511  0.5568521757683342  1.0000
  N   N2        1.0  0.9209185486377862  0.44315015176034234  0.6900374201272681  1.0000
  N   N3        1.0  0.4209199751983732  0.6900381606846512  0.4431477997842918  1.0000
  N   N4        1.0  0.0790818877375088  0.556851114841244  0.30996244563618086  1.0000
  N   N5        1.0  0.6493554606765173  0.20939439804005394  0.5422690440929685  1.0000
  N   N6        1.0  0.8506428427083182  0.4577342553388491  0.7906036849269494  1.0000
  N   N7        1.0  0.35064372628551144  0.7906042704955638  0.45773352858348904  1.0000
  N   N8        1.0  0.1493562977233438  0.5422670181606081  0.20939533358988166  1.0000
  N   N9        1.0  0.6419620618240104  0.1428640321703868  0.6399143550732376  1.0000
  N   N10       1.0  0.8580357017016453  0.36008722719586944  0.8571345894989546  1.0000
  N   N11       1.0  0.358038409234645  0.8571363423695931  0.36008810830342236  1.0000
  N   N12       1.0  0.1419621546333829  0.6399123402992261  0.1428645383176743  1.0000
  N   N13       1.0  0.5668621055124279  0.19976883222007308  0.7188305535797427  1.0000
  N   N14       1.0  0.9331347668207217  0.28117211263227665  0.8002306736954523  1.0000
  N   N15       1.0  0.4331357851628966  0.8002315418714546  0.2811710630396789  1.0000
  N   N16       1.0  0.06686438528641502  0.7188282972939676  0.19976924696258172  1.0000
  N   N17       1.0  0.24038057742575353  0.5567925841000944  0.8091105345880294  1.0000
  N   N18       1.0  0.25961605026877527  0.1908883782359254  0.4432106485572476  1.0000
  N   N19       1.0  0.7596172783946712  0.4432095313820525  0.1908884300129685  1.0000
  N   N20       1.0  0.740385705401117  0.8091111543213644  0.5567918687352459  1.0000
  O   O1        1.0  0.1562771471287476  0.8207578671740307  0.9340527707234896  1.0000
  O   O2        1.0  0.3437211504422422  0.065949804372849  0.1792449664741724  1.0000
  O   O3        1.0  0.8437220393186848  0.17924334934865274  0.0659496387373437  1.0000
  O   O4        1.0  0.6562780250158441  0.9340488784069696  0.8207567584662883  1.0000
  O   O5        1.0  0.40487188932046786  0.725989191895913  0.9160233316417958  1.0000
  O   O6        1.0  0.09513086202991872  0.08397650589249395  0.2740093637934464  1.0000
  O   O7        1.0  0.5951311509606542  0.2740094986786801  0.0839792395665242  1.0000
  O   O8        1.0  0.9048708599858131  0.9160188227522854  0.7259908823170987  1.0000
  O   O9        1.0  0.5200724213480186  0.11740171010864495  0.9423829960900676  1.0000
  O   O10       1.0  0.9799278201516943  0.05761760742618801  0.8825975203674473  1.0000
  O   O11       1.0  0.47992931131398114  0.882597850937032  0.057617825730424975  1.0000
  O   O12       1.0  0.02007390100637  0.9423819678636821  0.11740245371704817  1.0000
  O   O13       1.0  0.17281148164601493  0.21259005908857637  0.013293405371989295  1.0000
  O   O14       1.0  0.3271910094882031  0.986706785722973  0.7874100760473652  1.0000
  O   O15       1.0  0.8271915354556825  0.78740950930343  0.9867074159591239  1.0000
  O   O16       1.0  0.6728119847771481  0.013291961828393505  0.21258910421695276  1.0000
