data_image0
_chemical_formula_structural       Zn2H26C56I4N2O8F4
_chemical_formula_sum              "Zn2 H26 C56 I4 N2 O8 F4"
_cell_length_a       15.499115641633804
_cell_length_b       18.38485609567304
_cell_length_c       19.664487853339885
_cell_angle_alpha    88.56173024674409
_cell_angle_beta     88.13383900263254
_cell_angle_gamma    68.14577368161945

_space_group_name_H-M_alt    "P 1"
_space_group_IT_number       1

loop_
  _space_group_symop_operation_xyz
  'x, y, z'

loop_
  _atom_site_type_symbol
  _atom_site_label
  _atom_site_symmetry_multiplicity
  _atom_site_fract_x
  _atom_site_fract_y
  _atom_site_fract_z
  _atom_site_occupancy
  Zn  Zn1       1.0  0.4982201705649986  0.5774831836638156  0.4960693985582695  1.0000
  Zn  Zn2       1.0  0.5020688632725478  0.42221661938246063  0.5046368135337219  1.0000
  H   H1        1.0  0.8838290239485785  0.7018654372307792  0.570395544515698  1.0000
  H   H2        1.0  0.11978471271439872  0.2858992330914418  0.516818902815551  1.0000
  H   H3        1.0  0.5970776745926539  0.5596708685945729  0.06065369403954431  1.0000
  H   H4        1.0  0.4091789438482324  0.4387313525462559  0.9393743083995005  1.0000
  H   H5        1.0  0.5996039155519597  0.5598323272783857  0.9351283689567041  1.0000
  H   H6        1.0  0.4064113586755838  0.43869629553784506  0.06487540299923471  1.0000
  H   H7        1.0  0.40134956602356914  0.8563450672111798  0.5680814360473435  1.0000
  H   H8        1.0  0.591650668857767  0.14600804348273042  0.42666802056934466  1.0000
  H   H9        1.0  0.4105639622326435  0.7169757932115958  0.5610521653098886  1.0000
  H   H10       1.0  0.5837165957490811  0.28482079013810596  0.435253832734972  1.0000
  H   H11       1.0  0.3732402965807395  0.10560841590887551  0.43819678720589655  1.0000
  H   H12       1.0  0.6246156784309135  0.8945699216474666  0.5594100082750586  1.0000
  H   H13       1.0  0.7677931844852492  0.5225463683140036  0.5278655216449978  1.0000
  H   H14       1.0  0.2299324890285277  0.47346906585273973  0.5075315805315199  1.0000
  H   H15       1.0  0.8137897024924142  0.28093758653459844  0.5023786286656815  1.0000
  H   H16       1.0  0.18719131840379788  0.7134536147732575  0.5382066250865095  1.0000
  H   H17       1.0  0.017593708700808047  0.7445225897324759  0.5609339436275533  1.0000
  H   H18       1.0  0.9857207273259188  0.24582225835089844  0.5087472253878857  1.0000
  H   H19       1.0  0.8192957163032305  0.599685056540615  0.5601280876946576  1.0000
  H   H20       1.0  0.18324673567703795  0.3890543851311464  0.5221876414344493  1.0000
  H   H21       1.0  0.5090686084472865  0.37248258829941966  0.28247770036057324  1.0000
  H   H22       1.0  0.49139352868248665  0.6295613390836435  0.7188591425492064  1.0000
  H   H23       1.0  0.5114104055117751  0.3769045375918764  0.1554930709132663  1.0000
  H   H24       1.0  0.49041146925867446  0.6234798342829109  0.8459822524612122  1.0000
  H   H25       1.0  0.4876602302445717  0.612450719786615  0.2846100066289665  1.0000
  H   H26       1.0  0.5202419887623292  0.3879114325405197  0.7145754452637618  1.0000
  C   C1        1.0  0.5041840638033577  0.5119585493508012  0.6324883230352328  1.0000
  C   C2        1.0  0.49833535757422687  0.4904995024686088  0.36821663326278303  1.0000
  C   C3        1.0  0.893775311365438  0.5846920661701488  0.552148247744313  1.0000
  C   C4        1.0  0.10815353055908625  0.4050735740498793  0.5239631266821192  1.0000
  C   C5        1.0  0.9295961001591524  0.6420375348743973  0.5580186338286809  1.0000
  C   C6        1.0  0.07292066381790355  0.34713865628042145  0.5209652254270551  1.0000
  C   C7        1.0  0.5045428543903014  0.425830696857993  0.25488345439526233  1.0000
  C   C8        1.0  0.49774728955679837  0.5755778114382863  0.7461026398961793  1.0000
  C   C9        1.0  0.505327632186642  0.4287402787109471  0.1840945413137476  1.0000
  C   C10       1.0  0.4976682065176021  0.571734884342945  0.8168429892872808  1.0000
  C   C11       1.0  0.5010505190017229  0.49667609182393574  0.1472770382792348  1.0000
  C   C12       1.0  0.5042809207883392  0.5027951425788546  0.8529551220866978  1.0000
  C   C13       1.0  0.4951972408327024  0.5613315310338293  0.1863015467767823  1.0000
  C   C14       1.0  0.5117671748705278  0.43806951941585476  0.8134847679471164  1.0000
  C   C15       1.0  0.49341015722296067  0.5603921961345791  0.2567079303805357  1.0000
  C   C16       1.0  0.5130598617698966  0.4398932968979068  0.7431117020312499  1.0000
  C   C17       1.0  0.4986046622254322  0.49178099242253376  0.29185666958443335  1.0000
  C   C18       1.0  0.5053592216849907  0.5095320333890925  0.7086968425176821  1.0000
  C   C19       1.0  0.5551063037476849  0.5336895681745945  0.034313136675940804  1.0000
  C   C20       1.0  0.45109045344707255  0.4647528637480747  0.9657968561545547  1.0000
  C   C21       1.0  0.5562096438413421  0.5340197550855804  0.9635570290393929  1.0000
  C   C22       1.0  0.4498964182085247  0.4644983750855189  0.03655310765736889  1.0000
  C   C23       1.0  0.31983760171011255  0.5682227906569253  0.5086894724800645  1.0000
  C   C24       1.0  0.6797751981101641  0.4283152862717047  0.505642161524719  1.0000
  C   C25       1.0  0.5041091330066295  0.4998116961169927  0.9279970064416787  1.0000
  C   C26       1.0  0.5018784984564562  0.4988551673926267  0.07217299579928492  1.0000
  C   C27       1.0  0.5738469001559281  0.7077780077150209  0.44675613648250595  1.0000
  C   C28       1.0  0.4309625545316465  0.2897386600889717  0.5568435361649762  1.0000
  C   C29       1.0  0.5724160940792372  0.7851165924451068  0.44679137867623103  1.0000
  C   C30       1.0  0.4295968412141136  0.21338368292897766  0.5544519697548368  1.0000
  C   C31       1.0  0.5098446133790661  0.8396332583889716  0.49128936837436044  1.0000
  C   C32       1.0  0.4883005967549252  0.1604312740700991  0.507043569881681  1.0000
  C   C33       1.0  0.45059226559238397  0.8153365299094658  0.5331602781164051  1.0000
  C   C34       1.0  0.5451018787937514  0.18586140063335682  0.463663532560581  1.0000
  C   C35       1.0  0.4552988230071263  0.738788493125  0.5297247854154962  1.0000
  C   C36       1.0  0.5414941635862077  0.2620174291271411  0.4682680916909803  1.0000
  C   C37       1.0  0.4357237148088019  0.9827125658168966  0.4620963956949637  1.0000
  C   C38       1.0  0.5619699031071901  0.0174800360606113  0.5356879012181254  1.0000
  C   C39       1.0  0.4287373015213163  0.06005546665761591  0.4648190601567992  1.0000
  C   C40       1.0  0.5690517014041417  0.9401601643473466  0.532869953161523  1.0000
  C   C41       1.0  0.4926764114555197  0.07863882369336751  0.5024449913154855  1.0000
  C   C42       1.0  0.5050479167163646  0.9215621312951825  0.49528297757153444  1.0000
  C   C43       1.0  0.21752787781517216  0.5904465711775797  0.5218111851452039  1.0000
  C   C44       1.0  0.7822298409690518  0.40472415050217597  0.514168655768792  1.0000
  C   C45       1.0  0.06434922378500824  0.684751181018683  0.54948332801969  1.0000
  C   C46       1.0  0.9377282637343141  0.3066101485460635  0.5134054024994797  1.0000
  C   C47       1.0  0.157950107048201  0.6680154925667807  0.5369474086322725  1.0000
  C   C48       1.0  0.843103707762424  0.32552955151366797  0.5096979164873403  1.0000
  C   C49       1.0  0.18152694433847927  0.5318213808300598  0.5202326055361441  1.0000
  C   C50       1.0  0.8175431222431797  0.4625675589878285  0.5249048390861546  1.0000
  C   C51       1.0  0.08672260607451679  0.5467142631947866  0.5332503752353333  1.0000
  C   C52       1.0  0.9137069795573252  0.4452111308408817  0.529236655310072  1.0000
  C   C53       1.0  0.0264429833326716  0.6254955705032968  0.5473921027000587  1.0000
  C   C54       1.0  0.9751918402434399  0.3653132957552501  0.5217131438404721  1.0000
  C   C55       1.0  0.04914946243320635  0.48553369861034656  0.5313080412841132  1.0000
  C   C56       1.0  0.9517273881270254  0.5054223751597179  0.5376007745007884  1.0000
  I   I1        1.0  0.667770647166513  0.6226366390448844  0.3837790311156084  1.0000
  I   I2        1.0  0.34876826931561317  0.3701445608601688  0.6286402340138012  1.0000
  I   I3        1.0  0.6587334632857632  0.8215155181878159  0.3814157689076154  1.0000
  I   I4        1.0  0.3435888592305857  0.17641773595018148  0.6197175918141015  1.0000
  N   N1        1.0  0.5157513828856891  0.6862822963496454  0.48733696031635537  1.0000
  N   N2        1.0  0.48559672234888035  0.3127239369462558  0.5140596201953543  1.0000
  O   O1        1.0  0.4958344531732876  0.5762615550085144  0.6023600807294616  1.0000
  O   O2        1.0  0.5076702102203258  0.4261914726406033  0.39879597476192435  1.0000
  O   O3        1.0  0.5110580071069749  0.4484915651816053  0.6039099639830499  1.0000
  O   O4        1.0  0.4891335417464121  0.5547763299958318  0.39643357786019356  1.0000
  O   O5        1.0  0.35368584216443105  0.6217066545604127  0.5070292730420436  1.0000
  O   O6        1.0  0.646265506164916  0.37493640851034377  0.5014664323157305  1.0000
  O   O7        1.0  0.3666046472153468  0.4952048276454518  0.5007015808251866  1.0000
  O   O8        1.0  0.6328880729099069  0.501880027831021  0.5027881974380932  1.0000
  F   F1        1.0  0.3731573427834645  0.9656352294406717  0.4250495508084242  1.0000
  F   F2        1.0  0.6244534179672739  0.03459703907230249  0.5728157693839293  1.0000
  F   F3        1.0  0.48845383219510563  0.6300024474423153  0.15395798682994413  1.0000
  F   F4        1.0  0.5206533191280726  0.3686414308191104  0.8453174054934536  1.0000
