data_image0
_chemical_formula_structural       Na2Dy2H24C24O24
_chemical_formula_sum              "Na2 Dy2 H24 C24 O24"
_cell_length_a       6.839573318050693
_cell_length_b       7.473973669014738
_cell_length_c       15.624719046225852
_cell_angle_alpha    90.00016770972307
_cell_angle_beta     102.6353801532817
_cell_angle_gamma    90.00011347182735

_space_group_name_H-M_alt    "P 1"
_space_group_IT_number       1

loop_
  _space_group_symop_operation_xyz
  'x, y, z'

loop_
  _atom_site_type_symbol
  _atom_site_label
  _atom_site_symmetry_multiplicity
  _atom_site_fract_x
  _atom_site_fract_y
  _atom_site_fract_z
  _atom_site_occupancy
  Na  Na1       1.0  0.1405578847359479  0.7498564520652452  0.2813480081448177  1.0000
  Na  Na2       1.0  0.8594408137099663  0.24985400423012993  0.718651309292213  1.0000
  Dy  Dy1       1.0  0.30445110798118696  0.2501368148692222  0.6088144820938766  1.0000
  Dy  Dy2       1.0  0.6955460762338104  0.7501355915005592  0.39118788936573173  1.0000
  H   H1        1.0  0.5135372005568681  0.7685224827512441  0.5829935990230127  1.0000
  H   H2        1.0  0.48645855717238357  0.2685255415277509  0.41700546015800916  1.0000
  H   H3        1.0  0.0693217499507028  0.7317758965120119  0.583091864476373  1.0000
  H   H4        1.0  0.9306768875650702  0.23177307301054384  0.41690870178673833  1.0000
  H   H5        1.0  0.45771229142020786  0.6159118686057995  0.6998597545974904  1.0000
  H   H6        1.0  0.5422890052326323  0.11590896315154708  0.3001389866066263  1.0000
  H   H7        1.0  0.2422530566093215  0.884307052230817  0.6998688273094446  1.0000
  H   H8        1.0  0.7577490319165534  0.38430453873333187  0.3001329262018048  1.0000
  H   H9        1.0  0.989886062323265  0.09789189762729932  0.20742244422271486  1.0000
  H   H10       1.0  0.010109183472472699  0.5978905411721415  0.7925763266147288  1.0000
  H   H11       1.0  0.2175002184022787  0.40162922011101887  0.20750949645605496  1.0000
  H   H12       1.0  0.7824974370335057  0.9016292683918294  0.7924899325543608  1.0000
  H   H13       1.0  0.21281571473004848  0.08640730452075468  0.19589378468864285  1.0000
  H   H14       1.0  0.7871809949792165  0.5864101082311493  0.8041051116468056  1.0000
  H   H15       1.0  0.9830323238851546  0.41317260328310823  0.19598972230846812  1.0000
  H   H16       1.0  0.016965362845098798  0.9131753430714584  0.8040103659006805  1.0000
  H   H17       1.0  0.7839524616664307  0.7381892177765864  0.9394738544037866  1.0000
  H   H18       1.0  0.21605368690656948  0.23818559303377637  0.060527447204755405  1.0000
  H   H19       1.0  0.1551615750764412  0.7616540748758212  0.93944125174194  1.0000
  H   H20       1.0  0.8448386771907436  0.26165828420097625  0.06055439239924001  1.0000
  H   H21       1.0  0.8655934109917566  0.743388789175512  0.10298571783072674  1.0000
  H   H22       1.0  0.13440826143826706  0.24338878773874478  0.8970145181723269  1.0000
  H   H23       1.0  0.23675155105151893  0.7564375003464077  0.10295073846932472  1.0000
  H   H24       1.0  0.7632456754670469  0.256439981190951  0.897047165811337  1.0000
  C   C1        1.0  0.6047473829397276  0.7500974916566322  0.20983647920196802  1.0000
  C   C2        1.0  0.3952513162267337  0.2500932981479309  0.7901628386409032  1.0000
  C   C3        1.0  0.5559692122962118  0.7499687043298735  0.1125241301239299  1.0000
  C   C4        1.0  0.44403698499022676  0.24996786997355971  0.8874746326329305  1.0000
  C   C5        1.0  0.37662694928145857  0.6868749976527297  0.5732286806367954  1.0000
  C   C6        1.0  0.6233685634789481  0.1868716752892681  0.4267702405669454  1.0000
  C   C7        1.0  0.19647772040533334  0.8133885254666282  0.573250056959097  1.0000
  C   C8        1.0  0.8035256637353284  0.3133828547898646  0.42674980253993067  1.0000
  C   C9        1.0  0.3521898660506436  0.5872075144229498  0.4865295760859639  1.0000
  C   C10       1.0  0.6478113344511627  0.0872007522168943  0.5134710356785775  1.0000
  C   C11       1.0  0.13418361428828257  0.9130259647219746  0.48655734092075437  1.0000
  C   C12       1.0  0.8658170720733694  0.4130303027902329  0.5134423971554797  1.0000
  C   C13       1.0  0.4643745494536517  0.7499497075701244  0.9291296127215035  1.0000
  C   C14       1.0  0.5356271493381966  0.24994538946302916  0.0708693549850636  1.0000
  C   C15       1.0  0.41545890504453803  0.7499707714563542  0.8311581959023402  1.0000
  C   C16       1.0  0.5845472888957984  0.24996312689633274  0.16884120654215456  1.0000
  C   C17       1.0  0.6646291937966993  0.7435585183241147  0.9754906775178614  1.0000
  C   C18       1.0  0.3353739808406217  0.24355355267717732  0.024509063979635915  1.0000
  C   C19       1.0  0.3104560541436499  0.7563626297642896  0.9754811278711774  1.0000
  C   C20       1.0  0.689541162115809  0.2563596465224762  0.02451869534803562  1.0000
  C   C21       1.0  0.7105315870920064  0.7456952082152739  0.0666022514220472  1.0000
  C   C22       1.0  0.28947159730411437  0.2456943731708989  0.9333968539997175  1.0000
  C   C23       1.0  0.35548292549043475  0.7541856831277725  0.0665982718049136  1.0000
  C   C24       1.0  0.6445217727089483  0.25418014217855506  0.9334029119319  1.0000
  O   O1        1.0  0.46454021844833443  0.7436578138944157  0.25238233725310993  1.0000
  O   O2        1.0  0.5354569663784332  0.2436549535500063  0.7476161851171954  1.0000
  O   O3        1.0  0.7875443381858103  0.7566565476025034  0.2522666724494584  1.0000
  O   O4        1.0  0.21245288230287673  0.2566571142284459  0.7477325115795355  1.0000
  O   O5        1.0  0.2894627222539937  0.4281300890056414  0.4837952407262876  1.0000
  O   O6        1.0  0.7105319959257695  0.9281403604177284  0.5162077814111755  1.0000
  O   O7        1.0  0.19420515325715826  0.07207576424354302  0.48377993896794197  1.0000
  O   O8        1.0  0.8057945068106206  0.5720594495265272  0.5162198626265493  1.0000
  O   O9        1.0  0.0943468643409915  0.0142635229815014  0.19947987591099553  1.0000
  O   O10       1.0  0.9056466355315747  0.5142625063903807  0.8005179690158359  1.0000
  O   O11       1.0  0.10513003146136407  0.4852793751032252  0.19961675102167936  1.0000
  O   O12       1.0  0.8948678682623167  0.9852823519995226  0.8003840987270936  1.0000
  O   O13       1.0  0.3949299639379048  0.5564479501756381  0.6414338925064699  1.0000
  O   O14       1.0  0.6050696492640313  0.05644551585194082  0.3585658826911101  1.0000
  O   O15       1.0  0.24666738860339166  0.9437986582194497  0.6414612799680202  1.0000
  O   O16       1.0  0.7533303866618865  0.443796493475844  0.35853949968027626  1.0000
  O   O17       1.0  0.3950527955943243  0.6690540437017702  0.4214035860081396  1.0000
  O   O18       1.0  0.6049426436704124  0.16906633301470464  0.5785991432334614  1.0000
  O   O19       1.0  0.0261567759406418  0.8311963720516716  0.42144045049681733  1.0000
  O   O20       1.0  0.9738511266204666  0.3311785588670945  0.5785656309987389  1.0000
  O   O21       1.0  0.23722503891430338  0.7901285064126923  0.7902208579562642  1.0000
  O   O22       1.0  0.7627782754414267  0.2901227741753303  0.20977896223680403  1.0000
  O   O23       1.0  0.5528285715370058  0.7097766239997512  0.7902560195365641  1.0000
  O   O24       1.0  0.4471775118408914  0.2097703173399381  0.20974139591734803  1.0000
