data_image0
_chemical_formula_structural       Zn2Co8H24C72N36Cl8O12
_chemical_formula_sum              "Zn2 Co8 H24 C72 N36 Cl8 O12"
_cell_length_a       22.074666762322025
_cell_length_b       22.074852128405663
_cell_length_c       22.075188248034518
_cell_angle_alpha    60.000373589666246
_cell_angle_beta     60.00031360489994
_cell_angle_gamma    60.00015286331323

_space_group_name_H-M_alt    "P 1"
_space_group_IT_number       1

loop_
  _space_group_symop_operation_xyz
  'x, y, z'

loop_
  _atom_site_type_symbol
  _atom_site_label
  _atom_site_symmetry_multiplicity
  _atom_site_fract_x
  _atom_site_fract_y
  _atom_site_fract_z
  _atom_site_occupancy
  Zn  Zn1       1.0  0.2500037589695551  0.24999964345473566  0.24999420475616319  1.0000
  Zn  Zn2       1.0  0.7499938147116655  0.7500004944319089  0.7500068343217521  1.0000
  Co  Co1       1.0  0.44277680054322127  0.1857431098059409  0.18573959363337877  1.0000
  Co  Co2       1.0  0.18574609037900577  0.44276709681594173  0.18574225197446026  1.0000
  Co  Co3       1.0  0.18574933943541092  0.1857465744625699  0.4427572355270256  1.0000
  Co  Co4       1.0  0.18574497345897362  0.18574486662511455  0.18574192789207442  1.0000
  Co  Co5       1.0  0.8142548010232172  0.5572309227271435  0.8142570329431321  1.0000
  Co  Co6       1.0  0.5572226674194382  0.8142589223318453  0.8142609858165244  1.0000
  Co  Co7       1.0  0.8142485788448895  0.8142511899979044  0.5572474967922858  1.0000
  Co  Co8       1.0  0.8142542394844057  0.8142560044923994  0.8142595127732691  1.0000
  H   H1        1.0  0.5400273692583325  0.07494616444184042  0.07494671047923163  1.0000
  H   H2        1.0  0.0749457193268555  0.5400243888239586  0.3100841380821108  1.0000
  H   H3        1.0  0.07495186047566446  0.3100800124746073  0.5400192151788304  1.0000
  H   H4        1.0  0.31007783010059603  0.07495024753525574  0.07494842340834394  1.0000
  H   H5        1.0  0.3100811086141562  0.07495290105988059  0.5400143755246133  1.0000
  H   H6        1.0  0.07494867146961343  0.5400244909573501  0.07494419150564378  1.0000
  H   H7        1.0  0.0749472165468887  0.3100832416085026  0.07494375256067798  1.0000
  H   H8        1.0  0.5400288323147323  0.07494232341557704  0.3100854259673937  1.0000
  H   H9        1.0  0.07494571326684962  0.07494252786145952  0.31008609394470443  1.0000
  H   H10       1.0  0.3100830946842947  0.5400210588884776  0.07494671050396558  1.0000
  H   H11       1.0  0.5400292511610729  0.3100828587490625  0.07494323779348382  1.0000
  H   H12       1.0  0.07494999081502844  0.07494786043464073  0.540018688206068  1.0000
  H   H13       1.0  0.9250569724696189  0.4599764690615516  0.9250479553017498  1.0000
  H   H14       1.0  0.4599631325238247  0.9250657957578313  0.6899160147104837  1.0000
  H   H15       1.0  0.6899153619323712  0.9250452277106974  0.4599858920992759  1.0000
  H   H16       1.0  0.9250493297326443  0.6899194929086223  0.925055717297269  1.0000
  H   H17       1.0  0.9250508942648991  0.6899135283498481  0.45998268510511764  1.0000
  H   H18       1.0  0.4599676321297181  0.9250604612101726  0.9250570708710697  1.0000
  H   H19       1.0  0.6899177017583611  0.9250514725661746  0.9250547396933515  1.0000
  H   H20       1.0  0.9250585215418282  0.4599715441152201  0.6899149936214498  1.0000
  H   H21       1.0  0.9250540161739805  0.9250579537318514  0.6899185486124182  1.0000
  H   H22       1.0  0.45996943217707537  0.6899183887722131  0.925058910879521  1.0000
  H   H23       1.0  0.6899199656486628  0.4599791295650207  0.9250476818118115  1.0000
  H   H24       1.0  0.9250512899761815  0.9250460184590568  0.4599865671813462  1.0000
  C   C1        1.0  0.41848164409775274  0.11363975613524965  0.11363793101219948  1.0000
  C   C2        1.0  0.49020337421737287  0.07541157586667414  0.07541361817622058  1.0000
  C   C3        1.0  0.49441481951375715  0.037946961677768315  0.03794707277756261  1.0000
  C   C4        1.0  0.11363838291122638  0.4184806662665181  0.3542421886651468  1.0000
  C   C5        1.0  0.07541640327910669  0.4902018026902723  0.35896567869796314  1.0000
  C   C6        1.0  0.037944278819679864  0.49441434081103347  0.4296983270808353  1.0000
  C   C7        1.0  0.11364087107406112  0.35424465216411244  0.4184751423622615  1.0000
  C   C8        1.0  0.0754140833639809  0.358977281886105  0.4901952339803515  1.0000
  C   C9        1.0  0.037949375913434794  0.4296907866993677  0.4944106594469844  1.0000
  C   C10       1.0  0.3542447262895151  0.11363858389731975  0.11363587034458081  1.0000
  C   C11       1.0  0.3589721325320525  0.07541789704518465  0.0754168816356255  1.0000
  C   C12       1.0  0.42969042577954036  0.037949375011869804  0.03794787524641658  1.0000
  C   C13       1.0  0.35424974349132304  0.11364078554060347  0.4184685708004706  1.0000
  C   C14       1.0  0.3589758571963059  0.07541572624558061  0.49019311085938  1.0000
  C   C15       1.0  0.4296907730691615  0.037950031687664434  0.4944097652314312  1.0000
  C   C16       1.0  0.1136405198655837  0.41847906521876144  0.11363544130728809  1.0000
  C   C17       1.0  0.07541718266631395  0.4901998914811401  0.07541052086710923  1.0000
  C   C18       1.0  0.03794803781026713  0.49441395332784305  0.03794401583483879  1.0000
  C   C19       1.0  0.11364031964452437  0.35424419823672804  0.11363456406533602  1.0000
  C   C20       1.0  0.07541598071350823  0.3589732966026844  0.075410107075605  1.0000
  C   C21       1.0  0.037948754101194054  0.42969347953090414  0.037944030072623015  1.0000
  C   C22       1.0  0.41848528794776035  0.11363717188152826  0.35423919923889  1.0000
  C   C23       1.0  0.49020822157149263  0.07541367772167018  0.3589646231306105  1.0000
  C   C24       1.0  0.49441413626934855  0.03794227083425744  0.42970116736081104  1.0000
  C   C25       1.0  0.11363976188783911  0.11363578129837752  0.35424194998819303  1.0000
  C   C26       1.0  0.07541718870869835  0.0754120224724346  0.35896653736647005  1.0000
  C   C27       1.0  0.037945055232320626  0.037942097470619336  0.4296978400874494  1.0000
  C   C28       1.0  0.35424702354310966  0.4184726489860395  0.11363881414381885  1.0000
  C   C29       1.0  0.3589747235868331  0.49019927566985905  0.0754127258948358  1.0000
  C   C30       1.0  0.4296946846801077  0.49441125154568505  0.03794648117814601  1.0000
  C   C31       1.0  0.41848139956218217  0.3542429547429792  0.11363611939869865  1.0000
  C   C32       1.0  0.4902065100599698  0.3589717303299552  0.07541025341168955  1.0000
  C   C33       1.0  0.49441469024459644  0.4296950380765594  0.03794412373415672  1.0000
  C   C34       1.0  0.11364306219554277  0.11363977612266757  0.4184700271131376  1.0000
  C   C35       1.0  0.0754143744522011  0.07541058827182923  0.49019782728302624  1.0000
  C   C36       1.0  0.0379497023675199  0.03794743750692926  0.4944097937643974  1.0000
  C   C37       1.0  0.8863597906192736  0.5815219974327448  0.8863619362484838  1.0000
  C   C38       1.0  0.9245886592601877  0.5097994545139954  0.924582487154943  1.0000
  C   C39       1.0  0.9620542631213951  0.5055863817302325  0.9620532085092465  1.0000
  C   C40       1.0  0.5815045528766306  0.8863706353248517  0.6457602389060642  1.0000
  C   C41       1.0  0.5097978745719444  0.9245931705238561  0.6410228477353569  1.0000
  C   C42       1.0  0.5055850382796908  0.9620558438584368  0.570307506580349  1.0000
  C   C43       1.0  0.6457505351214222  0.886356621204648  0.5815363781721812  1.0000
  C   C44       1.0  0.6410281156719791  0.924582656719494  0.5098016195958905  1.0000
  C   C45       1.0  0.5703036744194349  0.9620533220835128  0.5055889648988056  1.0000
  C   C46       1.0  0.8863584150690824  0.6457561946631998  0.8863656137955758  1.0000
  C   C47       1.0  0.9245850956315349  0.6410249078795046  0.9245893627745048  1.0000
  C   C48       1.0  0.962052609071918  0.5703077297945072  0.9620515933267484  1.0000
  C   C49       1.0  0.8863555349258829  0.6457525060240742  0.5815355921547505  1.0000
  C   C50       1.0  0.9245883960516179  0.6410259496758074  0.5097972509735981  1.0000
  C   C51       1.0  0.962054156929419  0.5703044382230332  0.5055893334727912  1.0000
  C   C52       1.0  0.581518308616907  0.8863618547386879  0.886364249383206  1.0000
  C   C53       1.0  0.5097929487883235  0.9245900293698315  0.9245883138434436  1.0000
  C   C54       1.0  0.5055852032773627  0.962055625277337  0.9620540614698925  1.0000
  C   C55       1.0  0.6457526372256623  0.88636043782914  0.8863637209956039  1.0000
  C   C56       1.0  0.6410256952394346  0.9245861189252481  0.9245877926493761  1.0000
  C   C57       1.0  0.570305252754565  0.962053397770454  0.9620535337004412  1.0000
  C   C58       1.0  0.8863656608358639  0.5815123515496053  0.6457561715828177  1.0000
  C   C59       1.0  0.9245880600610621  0.5098016007596513  0.641026314903236  1.0000
  C   C60       1.0  0.9620568414495876  0.5055866255947594  0.5703033302386302  1.0000
  C   C61       1.0  0.8863647069822063  0.8863676276503086  0.6457594643581785  1.0000
  C   C62       1.0  0.9245844817248356  0.9245849641050797  0.6410263437644377  1.0000
  C   C63       1.0  0.9620521680665987  0.962053160010207  0.5703084297302183  1.0000
  C   C64       1.0  0.5815141070735519  0.6457578341373704  0.8863657808977833  1.0000
  C   C65       1.0  0.5098005180588033  0.641026989816247  0.9245877423801546  1.0000
  C   C66       1.0  0.5055864235657807  0.5703086398939663  0.9620526092626562  1.0000
  C   C67       1.0  0.6457550419359493  0.5815238266074658  0.8863602858389044  1.0000
  C   C68       1.0  0.6410274624784691  0.5098018505302734  0.9245832673687886  1.0000
  C   C69       1.0  0.5703082672453806  0.5055870164851299  0.962051604379809  1.0000
  C   C70       1.0  0.8863546907086145  0.8863551049543973  0.5815355346968687  1.0000
  C   C71       1.0  0.9245896562504329  0.9245842285071648  0.5097998566828039  1.0000
  C   C72       1.0  0.9620526368318139  0.9620520298093567  0.5055893696670354  1.0000
  N   N1        1.0  0.39443570195103217  0.15550032128861355  0.15549595891322096  1.0000
  N   N2        1.0  0.15549843095954696  0.3944348724919066  0.2945689820099062  1.0000
  N   N3        1.0  0.15550127374292083  0.2945741739222711  0.3944242837485418  1.0000
  N   N4        1.0  0.2945730424344788  0.15550255145576133  0.15549803494752007  1.0000
  N   N5        1.0  0.2945784705151765  0.15549994492478453  0.39442034995784075  1.0000
  N   N6        1.0  0.15550197781136876  0.3944316290800033  0.15549440136233267  1.0000
  N   N7        1.0  0.1555010398926839  0.2945720085948055  0.15549433386323136  1.0000
  N   N8        1.0  0.3944418149752665  0.1554969163913641  0.2945641992079188  1.0000
  N   N9        1.0  0.15549966245878005  0.1554960813174944  0.2945670706698423  1.0000
  N   N10       1.0  0.294574186972504  0.3944274105949361  0.15549652231866418  1.0000
  N   N11       1.0  0.39443782807503425  0.29456838541481284  0.15549518196246473  1.0000
  N   N12       1.0  0.1555006802682968  0.1554976763939351  0.39442474886544693  1.0000
  N   N13       1.0  0.8444992704320526  0.6055685593041603  0.84450457713816  1.0000
  N   N14       1.0  0.6055563387576373  0.8445047075336801  0.7054386574727545  1.0000
  N   N15       1.0  0.7054176423244768  0.8445005441515293  0.605580134324093  1.0000
  N   N16       1.0  0.844495965915627  0.7054293734373973  0.8445054741349979  1.0000
  N   N17       1.0  0.8445003135063586  0.7054218234536408  0.6055735534297567  1.0000
  N   N18       1.0  0.6055608059974916  0.844501468886989  0.8445061580389605  1.0000
  N   N19       1.0  0.7054262022543513  0.8444983514013984  0.8445050066641001  1.0000
  N   N20       1.0  0.8445005400090014  0.6055630386424725  0.7054339961530118  1.0000
  N   N21       1.0  0.844498147477388  0.8445015748035943  0.7054367687100723  1.0000
  N   N22       1.0  0.6055642430605702  0.7054317198440714  0.844504166402274  1.0000
  N   N23       1.0  0.7054251409005657  0.605574481463826  0.8445015632455579  1.0000
  N   N24       1.0  0.8444998216182782  0.8445008596319356  0.6055777379454952  1.0000
  N   N25       1.0  0.32025737658209863  0.1797503605848902  0.17974348195445342  1.0000
  N   N26       1.0  0.17974821919198547  0.3202578762095101  0.3202484412850737  1.0000
  N   N27       1.0  0.32026262080928086  0.17974608218924007  0.32024432007573717  1.0000
  N   N28       1.0  0.17974972620218915  0.3202544097124759  0.17974082950109255  1.0000
  N   N29       1.0  0.17974868121632426  0.17974460829751854  0.3202482048480277  1.0000
  N   N30       1.0  0.3202594306846009  0.3202498365406683  0.17974278830826046  1.0000
  N   N31       1.0  0.8202481856192207  0.6797460663127384  0.8202589784955661  1.0000
  N   N32       1.0  0.6797340468588402  0.8202549617043927  0.679756719003741  1.0000
  N   N33       1.0  0.8202517727193663  0.6797401498591285  0.6797511817751599  1.0000
  N   N34       1.0  0.6797394246533771  0.8202517228691948  0.8202597128696424  1.0000
  N   N35       1.0  0.8202509211793724  0.8202539342539056  0.6797546201055481  1.0000
  N   N36       1.0  0.6797412814313546  0.6797516277286918  0.8202565600588301  1.0000
  Cl  Cl1       1.0  0.5626598225498254  0.14578458214006682  0.1457760644484765  1.0000
  Cl  Cl2       1.0  0.14579278776731286  0.5626470166292208  0.14577746174621356  1.0000
  Cl  Cl3       1.0  0.1457920235569929  0.14578591099272134  0.5626361725870126  1.0000
  Cl  Cl4       1.0  0.1457907839628803  0.14578241965363503  0.1457775888082864  1.0000
  Cl  Cl5       1.0  0.8542010729573662  0.4373503143350844  0.8542328711849407  1.0000
  Cl  Cl6       1.0  0.4373397564173372  0.8542057829799532  0.854221091036429  1.0000
  Cl  Cl7       1.0  0.8542046349918733  0.854229619822796  0.43736425907421494  1.0000
  Cl  Cl8       1.0  0.8542255080574178  0.8542128802309322  0.854212344201379  1.0000
  O   O1        1.0  0.5642416149956306  0.9999988053015727  0.9999987670607312  1.0000
  O   O2        1.0  0.9999993662460013  0.5642419837920231  0.43576025353693376  1.0000
  O   O3        1.0  2.238838604309056e-06  0.4357603734332188  0.5642384185464522  1.0000
  O   O4        1.0  0.4357585422918646  2.1041504680568444e-06  2.6508814681539077e-08  1.0000
  O   O5        1.0  0.43575747229408535  3.706788348360882e-06  0.5642370466140534  1.0000
  O   O6        1.0  0.999999885000598  0.5642406451353069  0.9999997358007561  1.0000
  O   O7        1.0  1.9306475994661944e-06  0.43575953678791995  0.9999974948027556  1.0000
  O   O8        1.0  0.5642414156168911  0.9999968393110378  0.4357617152330917  1.0000
  O   O9        1.0  0.9999999392077542  0.9999971127589974  0.4357608170777568  1.0000
  O   O10       1.0  0.43575878637188475  0.5642380158026654  2.0118084407405576e-06  1.0000
  O   O11       1.0  0.5642424814382067  0.4357594741371999  0.9999979811152571  1.0000
  O   O12       1.0  1.4752774859703491e-06  1.429861761419224e-06  0.5642374216911037  1.0000
