data_image0
_chemical_formula_structural       Cd2H28C36S2N4O18
_chemical_formula_sum              "Cd2 H28 C36 S2 N4 O18"
_cell_length_a       7.563748620233381
_cell_length_b       9.448272003677468
_cell_length_c       12.760471704034728
_cell_angle_alpha    90.00004312069164
_cell_angle_beta     89.99973121106191
_cell_angle_gamma    100.64443610567643

_space_group_name_H-M_alt    "P 1"
_space_group_IT_number       1

loop_
  _space_group_symop_operation_xyz
  'x, y, z'

loop_
  _atom_site_type_symbol
  _atom_site_label
  _atom_site_symmetry_multiplicity
  _atom_site_fract_x
  _atom_site_fract_y
  _atom_site_fract_z
  _atom_site_occupancy
  Cd  Cd1       1.0  0.23037462205991227  0.3858783327855873  0.6386070516776599  1.0000
  Cd  Cd2       1.0  0.7696263448712202  0.614124564484541  0.1386068176876734  1.0000
  H   H1        1.0  0.341068906447326  0.46965674602438423  0.9183191497255336  1.0000
  H   H2        1.0  0.6589318491531273  0.5303429370560263  0.41832074757848403  1.0000
  H   H3        1.0  0.325184033864211  0.6732922513265363  0.0369936564817337  1.0000
  H   H4        1.0  0.6748150941952887  0.3267041736996815  0.5369941833022267  1.0000
  H   H5        1.0  0.2046163610722402  0.8886857588418022  0.9705925990319386  1.0000
  H   H6        1.0  0.7953782345311923  0.11131166905612835  0.4705920228753229  1.0000
  H   H7        1.0  0.9546812824519151  0.9645845417250383  0.5307559494809837  1.0000
  H   H8        1.0  0.04531456999551859  0.0354150421026631  0.0307535114762132  1.0000
  H   H9        1.0  0.9429563131668672  0.7847483699346043  0.3846986209951808  1.0000
  H   H10       1.0  0.05705376675432921  0.21525684409180462  0.8846968969432751  1.0000
  H   H11       1.0  0.060757870225771185  0.5570843537729855  0.41465714971227635  1.0000
  H   H12       1.0  0.9392506458002786  0.4429208328464254  0.9146585669276206  1.0000
  H   H13       1.0  0.6365030511735341  0.042547976957394  0.9647212952779114  1.0000
  H   H14       1.0  0.36350197689090186  0.9574550026620797  0.4647223813381132  1.0000
  H   H15       1.0  0.5606323380528196  0.8421091241533031  0.6025853168624522  1.0000
  H   H16       1.0  0.4393627281313782  0.15788937476125395  0.1025873285392223  1.0000
  H   H17       1.0  0.486079661806926  0.0833742489530209  0.6415140289508017  1.0000
  H   H18       1.0  0.5139208441543418  0.9166264946644914  0.1415154561474168  1.0000
  H   H19       1.0  0.7227365071000876  0.6409130064591793  0.8130843078612955  1.0000
  H   H20       1.0  0.2772526958637229  0.3590843197153788  0.3130853135703902  1.0000
  H   H21       1.0  0.5740063357287897  0.5728355723163218  0.6440021900468835  1.0000
  H   H22       1.0  0.4259937125766627  0.4271630176967846  0.1440036001185589  1.0000
  H   H23       1.0  0.4827019757479363  0.5901578588141589  0.5330604988157006  1.0000
  H   H24       1.0  0.5172991676774075  0.40984182060610397  0.0330616442798402  1.0000
  H   H25       1.0  0.9689476035201708  0.1560514126743229  0.70464348477811  1.0000
  H   H26       1.0  0.031052184909633213  0.8439482470301198  0.2046423047405881  1.0000
  H   H27       1.0  0.8556237765272102  0.2834304413737883  0.7124741089642869  1.0000
  H   H28       1.0  0.1443788236578243  0.7165703420188335  0.21247411095586702  1.0000
  C   C1        1.0  0.2885256062320493  0.5622694171899167  0.8903187157729846  1.0000
  C   C2        1.0  0.7114720588852349  0.4377269912014014  0.3903201169518908  1.0000
  C   C3        1.0  0.27884235432590293  0.6782900072046374  0.9565913889220995  1.0000
  C   C4        1.0  0.7211561147319756  0.3217064175359923  0.4565919170180948  1.0000
  C   C5        1.0  0.21198584222175756  0.7978276737485572  0.9193585648913256  1.0000
  C   C6        1.0  0.7880100472718611  0.202167630682375  0.4193580581550123  1.0000
  C   C7        1.0  0.15810771947150934  0.7940551411588287  0.8152762799605782  1.0000
  C   C8        1.0  0.8418863373732891  0.20594012730303032  0.3152756246032311  1.0000
  C   C9        1.0  0.08302568096021898  0.8959409654602691  0.74515204536889  1.0000
  C   C10       1.0  0.9169682726399913  0.10405108108138707  0.2451542600100325  1.0000
  C   C11       1.0  0.05943896671519874  0.8246071503723087  0.639679469200452  1.0000
  C   C12       1.0  0.9405546982475884  0.17539239697488537  0.1396793052086451  1.0000
  C   C13       1.0  0.9962308561205122  0.8615869703794414  0.5432365935648562  1.0000
  C   C14       1.0  0.003770425957100099  0.13841378453091827  0.0432351107400777  1.0000
  C   C15       1.0  0.9924496027961285  0.7615221984742887  0.4616047934459004  1.0000
  C   C16       1.0  0.007557215188377604  0.23848295878624268  0.9616047876076904  1.0000
  C   C17       1.0  0.05253232428913891  0.6320123293579556  0.4783695596024203  1.0000
  C   C18       1.0  0.9474743612972817  0.36799282597611677  0.9783709135629621  1.0000
  C   C19       1.0  0.1107388538773364  0.6898447529580665  0.6489078602486983  1.0000
  C   C20       1.0  0.8892567357959679  0.3101516112798065  0.1489071284303662  1.0000
  C   C21       1.0  0.17191953567710527  0.6715527187650209  0.755849741198425  1.0000
  C   C22       1.0  0.8280794103666909  0.3284447817370263  0.2558484066030786  1.0000
  C   C23       1.0  0.5626423241280635  0.0785842464816753  0.8049984726370029  1.0000
  C   C24       1.0  0.43736263797112684  0.9214187275263722  0.3050024674913772  1.0000
  C   C25       1.0  0.6207995048411803  0.9992740450692278  0.8855277933735125  1.0000
  C   C26       1.0  0.3792032750239827  0.0007278190620638981  0.38552832149350985  1.0000
  C   C27       1.0  0.6602934336329511  0.8628953920809933  0.8654375351115604  1.0000
  C   C28       1.0  0.3397070692935813  0.13710750308924696  0.365438246939462  1.0000
  C   C29       1.0  0.6418840639599708  0.8079515905338112  0.761803446137428  1.0000
  C   C30       1.0  0.35811638136318896  0.1920470099076894  0.2618033523395269  1.0000
  C   C31       1.0  0.5783252247713194  0.8874188968676501  0.6813974378411416  1.0000
  C   C32       1.0  0.4216718736289097  0.11257964091977606  0.1813979073023759  1.0000
  C   C33       1.0  0.5385259666865565  0.022057072073046396  0.70299677601232  1.0000
  C   C34       1.0  0.4614751620342474  0.977942611784847  0.20299838279947122  1.0000
  C   C35       1.0  0.7177943611084174  0.7736118012944218  0.9506372591765029  1.0000
  C   C36       1.0  0.2822021573825212  0.22638780617930368  0.4506381797601051  1.0000
  S   S1        1.0  0.5318074074124297  0.2577142137371381  0.8271215704895667  1.0000
  S   S2        1.0  0.46819848828025823  0.7422877050340799  0.3271238155398848  1.0000
  N   N1        1.0  0.2331165074225083  0.5569320563737816  0.7893209580338123  1.0000
  N   N2        1.0  0.7668848288787159  0.4430654882108057  0.28932299081434826  1.0000
  N   N3        1.0  0.1083337835466338  0.5935485690767377  0.5730861892603443  1.0000
  N   N4        1.0  0.891669028104559  0.40645435968652066  0.0730862861172881  1.0000
  O   O1        1.0  0.04410217033539961  0.011629525547732597  0.771277071990859  1.0000
  O   O2        1.0  0.9558862545137716  0.9883688581259444  0.2712718162317316  1.0000
  O   O3        1.0  0.7206171974072363  0.8164089821415741  0.045244404457101  1.0000
  O   O4        1.0  0.2793891457188593  0.18359722772740378  0.5452443927200576  1.0000
  O   O5        1.0  0.7601633346354503  0.6522514392957959  0.9247972134842685  1.0000
  O   O6        1.0  0.23983073333243252  0.34774812321849413  0.4247951830652994  1.0000
  O   O7        1.0  0.6853565234373348  0.6789616917214045  0.7398347270940562  1.0000
  O   O8        1.0  0.314633038981505  0.3210345662107414  0.2398356078399289  1.0000
  O   O9        1.0  0.6841613955415866  0.3506955603488676  0.7742361901596553  1.0000
  O   O10       1.0  0.31584491779284474  0.6493063644992318  0.2742380275841967  1.0000
  O   O11       1.0  0.5323676248898012  0.27622313014855837  0.9417019784376494  1.0000
  O   O12       1.0  0.4676347113534333  0.7237787275278362  0.4417049987849139  1.0000
  O   O13       1.0  0.35708430043722933  0.269367205092415  0.7800788861031335  1.0000
  O   O14       1.0  0.6429232940551162  0.7306347430487179  0.2800806363407418  1.0000
  O   O15       1.0  0.5028745287279364  0.5186529766966429  0.5865498533502205  1.0000
  O   O16       1.0  0.4971270815784267  0.481344567223246  0.08655109363675  1.0000
  O   O17       1.0  0.9496555650754602  0.24658481863012574  0.6714684301797078  1.0000
  O   O18       1.0  0.05034713993956791  0.7534148928151723  0.1714663638827219  1.0000
