data_image0
_chemical_formula_structural       K2In2H16C8O24
_chemical_formula_sum              "K2 In2 H16 C8 O24"
_cell_length_a       8.80833894039228
_cell_length_b       9.075965398145938
_cell_length_c       9.075855981460082
_cell_angle_alpha    76.38096103795671
_cell_angle_beta     60.970520289171446
_cell_angle_gamma    60.9708044721867

_space_group_name_H-M_alt    "P 1"
_space_group_IT_number       1

loop_
  _space_group_symop_operation_xyz
  'x, y, z'

loop_
  _atom_site_type_symbol
  _atom_site_label
  _atom_site_symmetry_multiplicity
  _atom_site_fract_x
  _atom_site_fract_y
  _atom_site_fract_z
  _atom_site_occupancy
  K   K1        1.0  0.8750051597801015  0.2499924635476703  0.24999660554041722  1.0000
  K   K2        1.0  0.12500798416211703  0.7500067705475572  0.7500071742534189  1.0000
  In  In1       1.0  0.37498202717915735  0.25000261133412494  0.24999957300857292  1.0000
  In  In2       1.0  0.6250158113227325  0.7500012787038913  0.7499991662503123  1.0000
  H   H1        1.0  0.49371236510963007  0.6746652283754601  0.32623859004588235  1.0000
  H   H2        1.0  0.8199530278343228  0.6737611961631913  0.17466112905054132  1.0000
  H   H3        1.0  0.9946145846434146  0.8253375744489659  0.17376152702651382  1.0000
  H   H4        1.0  0.168377953427658  0.8262416339942507  0.3253343946436972  1.0000
  H   H5        1.0  0.5062867952440866  0.32533350113445186  0.6737601491773191  1.0000
  H   H6        1.0  0.1800474127615102  0.3262439484380621  0.8253350899496824  1.0000
  H   H7        1.0  0.0053857074076830505  0.1746664772810149  0.826237212237551  1.0000
  H   H8        1.0  0.8316277738734285  0.17375507141107968  0.6746605641671977  1.0000
  H   H9        1.0  0.6331709501545216  0.6022157390312873  0.4148182890130983  1.0000
  H   H10       1.0  0.047989081350472286  0.5851834151397456  0.1022077023922776  1.0000
  H   H11       1.0  0.1502015339058357  0.8977876185233813  0.085180681840157  1.0000
  H   H12       1.0  0.235386968481819  0.9148102760273534  0.3977942358272841  1.0000
  H   H13       1.0  0.36682629918535503  0.3977887783114866  0.5851829705215295  1.0000
  H   H14       1.0  0.9520083165341401  0.414822195074308  0.8977910368785089  1.0000
  H   H15       1.0  0.8498008995191383  0.10221299283910681  0.9148155371300675  1.0000
  H   H16       1.0  0.7646163461777032  0.08518689498306027  0.6022019831191585  1.0000
  C   C1        1.0  0.39513157263730386  0.019600902260862182  0.026205315287143108  1.0000
  C   C2        1.0  0.42133922142779995  0.9738056789327916  0.5195921602872957  1.0000
  C   C3        1.0  0.9409400714628687  0.48039717069063653  0.47379982420549277  1.0000
  C   C4        1.0  0.41474182825157146  0.5261918328478501  0.980402978839848  1.0000
  C   C5        1.0  0.6048640282916219  0.9803915543171228  0.9737871232040478  1.0000
  C   C6        1.0  0.5786526593915226  0.026206023011809517  0.48040783915522683  1.0000
  C   C7        1.0  0.05905868416428444  0.5195989075025125  0.5262077359499527  1.0000
  C   C8        1.0  0.5852660153036664  0.4737900182933572  0.0195970204097833  1.0000
  O   O1        1.0  0.2659824345349263  0.1259047870915992  0.1416671101918325  1.0000
  O   O2        1.0  0.4076409618392487  0.8583286559701622  0.6259127502003067  1.0000
  O   O3        1.0  0.033545006172985704  0.3740977883802615  0.3583451649134304  1.0000
  O   O4        1.0  0.3918845590946557  0.6416692164754354  0.8740873700360795  1.0000
  O   O5        1.0  0.7340031305019252  0.8741054986132184  0.8583379297742297  1.0000
  O   O6        1.0  0.5923457714877498  0.14167037754543815  0.37410237077354935  1.0000
  O   O7        1.0  0.9664565151787127  0.6259020535643248  0.6416649155462012  1.0000
  O   O8        1.0  0.6081191861132282  0.3583298168318621  0.1258937272921301  1.0000
  O   O9        1.0  0.36734146826928765  0.9408719639247494  0.9492742808636763  1.0000
  O   O10       1.0  0.3166234619803064  0.05072620770619095  0.44086956422817986  1.0000
  O   O11       1.0  0.7574866956817344  0.5591287751022663  0.5507402298172437  1.0000
  O   O12       1.0  0.3082244337469219  0.44926233627612083  0.059121817417342  1.0000
  O   O13       1.0  0.6326504283379604  0.05912895142027712  0.0507345394521295  1.0000
  O   O14       1.0  0.68337187704779  0.9492718945529576  0.5591354756644547  1.0000
  O   O15       1.0  0.24251856518028345  0.44087043949898697  0.4492610296915345  1.0000
  O   O16       1.0  0.6917732619292348  0.5507332567639693  0.940873141372343  1.0000
  O   O17       1.0  0.6315256910242862  0.6114815399108411  0.3054347648841542  1.0000
  O   O18       1.0  0.9369592924957005  0.6945653279778272  0.11147825036702838  1.0000
  O   O19       1.0  0.04843808353267293  0.8885236965555309  0.1945627777090735  1.0000
  O   O20       1.0  0.24300936913080995  0.8054303490420552  0.3885175848687297  1.0000
  O   O21       1.0  0.3684764044035657  0.3885162584120535  0.6945652344730462  1.0000
  O   O22       1.0  0.06303766477163447  0.30544200241226355  0.8885204889156527  1.0000
  O   O23       1.0  0.951566214279495  0.11147770380369344  0.8054359615420664  1.0000
  O   O24       1.0  0.7570000718588115  0.1945665180398208  0.6114748536772936  1.0000
