data_image0
_chemical_formula_structural       Sm2CuH18C14S2N2O22
_chemical_formula_sum              "Sm2 Cu1 H18 C14 S2 N2 O22"
_cell_length_a       6.418109688337002
_cell_length_b       9.851045540612509
_cell_length_c       9.875558116696215
_cell_angle_alpha    96.04705025303802
_cell_angle_beta     92.09782126362182
_cell_angle_gamma    96.81567733535014

_space_group_name_H-M_alt    "P 1"
_space_group_IT_number       1

loop_
  _space_group_symop_operation_xyz
  'x, y, z'

loop_
  _atom_site_type_symbol
  _atom_site_label
  _atom_site_symmetry_multiplicity
  _atom_site_fract_x
  _atom_site_fract_y
  _atom_site_fract_z
  _atom_site_occupancy
  Sm  Sm1       1.0  0.4346993080065148  0.0350400936551623  0.25498507298721756  1.0000
  Sm  Sm2       1.0  0.5652930798714737  0.9649638336526043  0.7450180355698919  1.0000
  Cu  Cu1       1.0  0.9999927389046092  0.5000015990736415  1.3196591909833666e-07  1.0000
  H   H1        1.0  0.895389725481259  0.0337692984068454  0.35650342516090916  1.0000
  H   H2        1.0  0.10459870572155691  0.9662139150535509  0.643476280907869  1.0000
  H   H3        1.0  0.7896816836560633  0.8769954789108708  0.35654010328046576  1.0000
  H   H4        1.0  0.210304262558985  0.12299303990919701  0.6434541834525617  1.0000
  H   H5        1.0  0.09157230923859325  0.9164217514369569  0.0402440558427202  1.0000
  H   H6        1.0  0.9084930257690191  0.08352287717143983  0.9597656153942181  1.0000
  H   H7        1.0  0.95899214796421  0.9491354089950832  0.17481252284980536  1.0000
  H   H8        1.0  0.041017950910983814  0.050858665841893504  0.8251600054085415  1.0000
  H   H9        1.0  0.22560928383010997  0.29254176860308684  0.008226172230109786  1.0000
  H   H10       1.0  0.7744090499255734  0.7074864258555636  0.9917813387601269  1.0000
  H   H11       1.0  0.23908192830364075  0.35254874977332673  0.8660516073501652  1.0000
  H   H12       1.0  0.7610319334142587  0.6475469064502375  0.1339997388364793  1.0000
  H   H13       1.0  0.6893931236384105  0.48307230583961314  0.4310231115914361  1.0000
  H   H14       1.0  0.3105934953004875  0.5169203759193551  0.5689786890354254  1.0000
  H   H15       1.0  0.9783203675909249  0.7136253968759192  0.7987871425942925  1.0000
  H   H16       1.0  0.021662140449052514  0.28637668018606643  0.20121740165303237  1.0000
  H   H17       1.0  0.8201977892526102  0.2906323614110775  0.7908774376090051  1.0000
  H   H18       1.0  0.17981723263338983  0.7093679880905414  0.20912425669730786  1.0000
  C   C1        1.0  0.7428815032130346  0.3696425535899905  0.6021310684696813  1.0000
  C   C2        1.0  0.2571175733679071  0.6303447505406014  0.3978778370869945  1.0000
  C   C3        1.0  0.7465032468085867  0.4886307992417471  0.5369177560412836  1.0000
  C   C4        1.0  0.25347029221954637  0.5113611818955803  0.4630935589734263  1.0000
  C   C5        1.0  0.8256855014212263  0.6151200187259462  0.6085994519524787  1.0000
  C   C6        1.0  0.17432559980195347  0.3848690028691236  0.3913939130935943  1.0000
  C   C7        1.0  0.905939697040985  0.6176850950178618  0.7423834070562731  1.0000
  C   C8        1.0  0.0940333323590608  0.382312087511295  0.25763243151110515  1.0000
  C   C9        1.0  0.8206545942281949  0.3811487415912681  0.7370034644364764  1.0000
  C   C10       1.0  0.17932848445440902  0.6188502623702092  0.26300689073188716  1.0000
  C   C11       1.0  0.6621507306883743  0.23086890620216136  0.5301279645112514  1.0000
  C   C12       1.0  0.3378373539821098  0.7691288729807937  0.4698683025566978  1.0000
  C   C13       1.0  0.8216706891578838  0.745837260178078  0.5430056808511878  1.0000
  C   C14       1.0  0.1782755830305902  0.25416136682138557  0.4569868840312522  1.0000
  S   S1        1.0  0.4192965974997378  0.7729265037244986  0.9640024369954003  1.0000
  S   S2        1.0  0.5806985626290171  0.2270629092461576  0.0360004257185551  1.0000
  N   N1        1.0  0.9019089015741031  0.5023086035915298  0.8049191687831794  1.0000
  N   N2        1.0  0.09809413803080959  0.4976900212422421  0.1950970541065331  1.0000
  O   O1        1.0  0.6090771682387555  0.22480724136120503  0.40424972019038546  1.0000
  O   O2        1.0  0.39091503154128304  0.7751945792653387  0.5957460896746125  1.0000
  O   O3        1.0  0.6536658012019387  0.1273732982393483  0.5971277281431497  1.0000
  O   O4        1.0  0.3463248468297877  0.8726285543213878  0.4028680195614384  1.0000
  O   O5        1.0  0.7976462060938302  0.7355418414745785  0.41490647989565577  1.0000
  O   O6        1.0  0.20234774752449164  0.2644381526591744  0.5850721400849963  1.0000
  O   O7        1.0  0.841368722804333  0.8596591592385895  0.6220301979157057  1.0000
  O   O8        1.0  0.1586295263782489  0.1403414911156062  0.3779637291356792  1.0000
  O   O9        1.0  0.7849542821303431  0.9645051451952542  0.3096669149991413  1.0000
  O   O10       1.0  0.21503393726678868  0.035478104281971  0.6903178507056325  1.0000
  O   O11       1.0  0.09727954196596762  0.9629789574611892  0.13308725316625916  1.0000
  O   O12       1.0  0.9027136553115013  0.03706705133024001  0.8668783428879366  1.0000
  O   O13       1.0  0.46786767221227177  0.8241347258524954  0.11043038469951938  1.0000
  O   O14       1.0  0.5320718262237136  0.175851757129891  0.889578979341401  1.0000
  O   O15       1.0  0.6242976669872605  0.7818290903623577  0.8917715529083166  1.0000
  O   O16       1.0  0.3757165584584073  0.21819826949641194  0.10825394084983489  1.0000
  O   O17       1.0  0.3155865168687626  0.6317414940511483  0.9481933370344109  1.0000
  O   O18       1.0  0.6844627727015505  0.3682353013973128  0.05178831744653679  1.0000
  O   O19       1.0  0.29456242968799984  0.8703247416137146  0.8979977672975322  1.0000
  O   O20       1.0  0.7054116266114717  0.129647530036145  0.10200055858292247  1.0000
  O   O21       1.0  0.1417714100954157  0.3322991554530431  0.9370844508856063  1.0000
  O   O22       1.0  0.8582769325706749  0.6677355962616859  0.06291582485323491  1.0000
