data_image0
_chemical_formula_structural       Zn6H132C144N24O24
_chemical_formula_sum              "Zn6 H132 C144 N24 O24"
_cell_length_a       10.729280501003704
_cell_length_b       21.502070015352686
_cell_length_c       21.496159397921755
_cell_angle_alpha    117.29523366244639
_cell_angle_beta     99.55695641413226
_cell_angle_gamma    99.59867663581086

_space_group_name_H-M_alt    "P 1"
_space_group_IT_number       1

loop_
  _space_group_symop_operation_xyz
  'x, y, z'

loop_
  _atom_site_type_symbol
  _atom_site_label
  _atom_site_symmetry_multiplicity
  _atom_site_fract_x
  _atom_site_fract_y
  _atom_site_fract_z
  _atom_site_occupancy
  Zn  Zn1       1.0  0.9224911178771933  0.371641299386205  0.21977065995761785  1.0000
  Zn  Zn2       1.0  0.7027710034954425  0.7802582845314064  0.15211805109498747  1.0000
  Zn  Zn3       1.0  0.5508108305137114  0.8479018401263474  0.6282773833030645  1.0000
  Zn  Zn4       1.0  0.07751111242293257  0.628356938009489  0.7802260905419374  1.0000
  Zn  Zn5       1.0  0.2972316612322246  0.21974648878332909  0.8478817195124931  1.0000
  Zn  Zn6       1.0  0.4491837930620831  0.15209639678643327  0.37172102654297123  1.0000
  H   H1        1.0  0.5187568105286785  0.7426406893450945  0.3608884245460898  1.0000
  H   H2        1.0  0.15803877044781695  0.6391140795600735  0.38180203398589196  1.0000
  H   H3        1.0  0.7760496098383881  0.6180175935987365  0.25725545435307134  1.0000
  H   H4        1.0  0.48123074000305627  0.25736626185628353  0.6391179936676892  1.0000
  H   H5        1.0  0.8419542169806179  0.36088633530777514  0.6181916435410457  1.0000
  H   H6        1.0  0.2239494749968357  0.3819839117074578  0.7427453028501816  1.0000
  H   H7        1.0  0.5003230556308437  0.5949198831579352  0.13927494937430396  1.0000
  H   H8        1.0  0.3610226944891295  0.8607602276858018  0.4558244521850979  1.0000
  H   H9        1.0  0.9062251449182597  0.5444917325793527  0.40509202256876625  1.0000
  H   H10       1.0  0.4996963836165306  0.4050903388736343  0.8607352901952225  1.0000
  H   H11       1.0  0.6389857698870786  0.13923909950987218  0.5441724113586801  1.0000
  H   H12       1.0  0.09376529899818553  0.4555037805791287  0.5949038478680677  1.0000
  H   H13       1.0  0.40400211235834854  0.6390248705755114  0.3721324084702218  1.0000
  H   H14       1.0  0.032057479417232956  0.6279005908740062  0.26697193890971965  1.0000
  H   H15       1.0  0.7648142457047127  0.73287588608094  0.36086358518267747  1.0000
  H   H16       1.0  0.5959776329435655  0.3609777224380224  0.6278690112633498  1.0000
  H   H17       1.0  0.9679379797259102  0.3721009133608603  0.7330205913450526  1.0000
  H   H18       1.0  0.23519480823410527  0.26712670958585955  0.6391399387076148  1.0000
  H   H19       1.0  0.38702249726650007  0.49023120448045193  0.1499400622061842  1.0000
  H   H20       1.0  0.23682233246751844  0.8501895206962687  0.34061884580112417  1.0000
  H   H21       1.0  0.8972631113277103  0.6597277421292276  0.5097243940703179  1.0000
  H   H22       1.0  0.6129805756478464  0.5097762921981758  0.8500614519362416  1.0000
  H   H23       1.0  0.7631884759437921  0.1498125298244375  0.6593776047829606  1.0000
  H   H24       1.0  0.10274220976960886  0.34026722761132083  0.49027113637836806  1.0000
  H   H25       1.0  0.16590116288352152  0.4990578707169746  0.14208670241539778  1.0000
  H   H26       1.0  0.023318345532729105  0.8579674195268298  0.35722131384905237  1.0000
  H   H27       1.0  0.6671608472149373  0.6428964463224746  0.5010792314240007  1.0000
  H   H28       1.0  0.8340873542958034  0.5009376424378119  0.857910860073936  1.0000
  H   H29       1.0  0.9766844650971223  0.1420357197447686  0.6427767935616799  1.0000
  H   H30       1.0  0.3328442003005776  0.35710179141922543  0.49891869653392007  1.0000
  H   H31       1.0  0.08618172018115894  0.4047204711000916  0.09896239715691016  1.0000
  H   H32       1.0  0.9866045524233582  0.9009915480717083  0.3059474067229074  1.0000
  H   H33       1.0  0.6814389554494866  0.6942348672731171  0.5953475454021058  1.0000
  H   H34       1.0  0.9138137858546215  0.5952739535147417  0.9010366767427341  1.0000
  H   H35       1.0  0.013401629510752891  0.0990126808666503  0.6940519584843727  1.0000
  H   H36       1.0  0.31856499299957614  0.305761191784498  0.4046497574372836  1.0000
  H   H37       1.0  0.010464161497679817  0.4699924360031957  0.15350603875909027  1.0000
  H   H38       1.0  0.8564521891037344  0.8462917205512782  0.31658148779443707  1.0000
  H   H39       1.0  0.5405522714229035  0.6832300610434386  0.5298896034248414  1.0000
  H   H40       1.0  0.9895337615850863  0.530003078233996  0.8464946745212245  1.0000
  H   H41       1.0  0.1435521207609725  0.15371250812804496  0.6834167828125075  1.0000
  H   H42       1.0  0.4594537394611746  0.31676817670010843  0.4701074785068257  1.0000
  H   H43       1.0  0.6508881440374666  0.31709939457387293  0.9120124980938512  1.0000
  H   H44       1.0  0.738033293518555  0.08793760861015441  0.4053155541315121  1.0000
  H   H45       1.0  0.3332305753062882  0.5948149913823215  0.6830472669644293  1.0000
  H   H46       1.0  0.3491173674254639  0.6828977535935651  0.08798171684678373  1.0000
  H   H47       1.0  0.26196910795319867  0.9120649866181406  0.5946892475211454  1.0000
  H   H48       1.0  0.6667632216918447  0.40518161152803595  0.31695079015324257  1.0000
  H   H49       1.0  0.5760566953465869  0.3616984802625964  0.9808228308115687  1.0000
  H   H50       1.0  0.5943570176415421  0.019106694349837  0.3810892388104818  1.0000
  H   H51       1.0  0.21364545726200385  0.6188365593469527  0.6383560698615156  1.0000
  H   H52       1.0  0.42394734312234306  0.6383013910522592  0.0191724975058206  1.0000
  H   H53       1.0  0.4056412497273029  0.980893176911373  0.6189107012222763  1.0000
  H   H54       1.0  0.7863464585554355  0.3811600433469309  0.3616413570979518  1.0000
  H   H55       1.0  0.7315765439643941  0.4083552306912638  0.9831642045422484  1.0000
  H   H56       1.0  0.7475470778386609  0.0167408914548943  0.42532400565611544  1.0000
  H   H57       1.0  0.3226777901750282  0.5746176661575007  0.5917696470164129  1.0000
  H   H58       1.0  0.26842315072043016  0.5916435509975314  0.016831176446970565  1.0000
  H   H59       1.0  0.25245179840837284  0.9832584355095122  0.574678995939486  1.0000
  H   H60       1.0  0.6773120551891196  0.42537294521019214  0.40822579539352677  1.0000
  H   H61       1.0  0.5385234428441876  0.15923435707225053  0.9044632024959186  1.0000
  H   H62       1.0  0.6337502657890967  0.09557020529297941  0.2549196475903344  1.0000
  H   H63       1.0  0.37913839394277443  0.745320685317587  0.8409942962776  1.0000
  H   H64       1.0  0.4614731327381705  0.8407698717199638  0.09554322964746836  1.0000
  H   H65       1.0  0.3662670484588516  0.90443239230553  0.7450971619599824  1.0000
  H   H66       1.0  0.6208660528344226  0.25468027599894333  0.1590085434522237  1.0000
  H   H67       1.0  0.8639829483917083  0.15750053846157638  0.013692860874208155  1.0000
  H   H68       1.0  0.8504301635042352  0.9862192241022782  0.14407250355056067  1.0000
  H   H69       1.0  0.7065027651558466  0.8561375740101981  0.8422468729028266  1.0000
  H   H70       1.0  0.1360135199196292  0.8424976988379171  0.9863080368985846  1.0000
  H   H71       1.0  0.14957767170679404  0.013786639478716707  0.8559333349909295  1.0000
  H   H72       1.0  0.2934870619857222  0.14385303744261077  0.15774949839139646  1.0000
  H   H73       1.0  0.9927867872687699  0.2275038479205449  0.09000884632784076  1.0000
  H   H74       1.0  0.9028805668655336  0.9099514889283499  0.13785173542697746  1.0000
  H   H75       1.0  0.7649468675968336  0.8622674102140024  0.7720653403115917  1.0000
  H   H76       1.0  0.0072145606929649095  0.7724965684108865  0.9099930079955881  1.0000
  H   H77       1.0  0.0971274769336858  0.0900565529944259  0.8621518587221786  1.0000
  H   H78       1.0  0.23505106459721498  0.13772810398062774  0.2279349085265778  1.0000
  H   H79       1.0  0.8433758443580216  0.1934409937584931  0.10331694177123298  1.0000
  H   H80       1.0  0.7402567757894615  0.8965828287516048  0.09037621644708342  1.0000
  H   H81       1.0  0.6498213881925282  0.9097148572448505  0.8062571913217481  1.0000
  H   H82       1.0  0.1566199684256872  0.8065616007333958  0.8966858865488092  1.0000
  H   H83       1.0  0.2597476790060185  0.1034219452051772  0.90962882873999  1.0000
  H   H84       1.0  0.3501699370908966  0.09028065629848922  0.1937420130680962  1.0000
  H   H85       1.0  0.5098188996844825  0.5378640285198343  0.38118778407513076  1.0000
  H   H86       1.0  0.12869001614027545  0.618859663039423  0.1566248340551581  1.0000
  H   H87       1.0  0.9722299735699664  0.8433178909217744  0.4621944671501978  1.0000
  H   H88       1.0  0.49017794133979464  0.462134752993194  0.6188082772242822  1.0000
  H   H89       1.0  0.8713074782256242  0.381142386646829  0.8433746364957884  1.0000
  H   H90       1.0  0.027774972628385765  0.15668415997086527  0.5378112395706509  1.0000
  H   H91       1.0  0.3988839492686651  0.5358602616346033  0.4335303348905626  1.0000
  H   H92       1.0  0.9653171068845339  0.5666448384758169  0.10242855483778603  1.0000
  H   H93       1.0  0.863225294396905  0.8976067191760393  0.46427367747196496  1.0000
  H   H94       1.0  0.601120034532535  0.46413960993559317  0.5664677800796625  1.0000
  H   H95       1.0  0.03467945144665647  0.4333572110809171  0.8975703684129925  1.0000
  H   H96       1.0  0.1367814508589547  0.10239696567830951  0.535731071508863  1.0000
  H   H97       1.0  0.4500539665285146  0.45683794843876063  0.3836543131540253  1.0000
  H   H98       1.0  0.06631368880977104  0.616446450999412  0.07317889211043385  1.0000
  H   H99       1.0  0.9935008147310285  0.9267874061834362  0.5432848728888543  1.0000
  H   H100      1.0  0.5499435916163904  0.5431641009495961  0.6163419063019475  1.0000
  H   H101      1.0  0.9336846241155072  0.38355342004901155  0.9268187257116267  1.0000
  H   H102      1.0  0.006509029340300287  0.0732168236560184  0.4567208614983542  1.0000
  H   H103      1.0  0.5046549721520677  0.045924238921500715  0.786499732673974  1.0000
  H   H104      1.0  0.7181499131906577  0.21336120500713923  0.259356664776611  1.0000
  H   H105      1.0  0.4588221749435278  0.7407031003934464  0.9542644441007296  1.0000
  H   H106      1.0  0.49533623359161527  0.954075087857902  0.21350817936308175  1.0000
  H   H107      1.0  0.28185731447837975  0.7866381234634048  0.7406549780576127  1.0000
  H   H108      1.0  0.5411881057413553  0.25930003999942386  0.04573897059562165  1.0000
  H   H109      1.0  0.9089374973792773  0.11373026000530474  0.7936921394564466  1.0000
  H   H110      1.0  0.11502877655791369  0.20597844122802664  0.3198558645219123  1.0000
  H   H111      1.0  0.7951644241636515  0.6802259852382448  0.886261208677105  1.0000
  H   H112      1.0  0.09104587677213509  0.8862625293933277  0.20630372964993868  1.0000
  H   H113      1.0  0.8849792876498908  0.7940219752440001  0.6801414609441706  1.0000
  H   H114      1.0  0.20481967038740825  0.3197586339872771  0.11372680888764816  1.0000
  H   H115      1.0  0.9472912539852983  0.22356144548933798  0.9154527112814392  1.0000
  H   H116      1.0  0.03127090413039469  0.08432099511122  0.30799715444548775  1.0000
  H   H117      1.0  0.7234408222700424  0.6921116044045875  0.776457542939866  1.0000
  H   H118      1.0  0.05270561437284712  0.77643733589602  0.0845419566915594  1.0000
  H   H119      1.0  0.9687473925585124  0.915681056445642  0.6920036745399399  1.0000
  H   H120      1.0  0.2765376755099922  0.3078675679136751  0.22352935991769127  1.0000
  H   H121      1.0  0.16996475516937434  0.3937035121292283  0.3202234199602145  1.0000
  H   H122      1.0  0.8499414027370165  0.6798928077167545  0.07360487585612668  1.0000
  H   H123      1.0  0.7764032683193776  0.9263840400912573  0.6063287683264492  1.0000
  H   H124      1.0  0.8300360933712129  0.6062958146260939  0.6797755673721824  1.0000
  H   H125      1.0  0.15004633232807407  0.3201048839056355  0.9263926815935405  1.0000
  H   H126      1.0  0.2235830940974638  0.07361474084819261  0.3936705615139148  1.0000
  H   H127      1.0  0.7820980823886785  0.4176537977434264  0.12657777975644538  1.0000
  H   H128      1.0  0.6550711572857184  0.8734507793545991  0.2913293977357371  1.0000
  H   H129      1.0  0.36390901243925805  0.7085940627709918  0.582252642492449  1.0000
  H   H130      1.0  0.21790236598350518  0.5823466182882484  0.8734216694982563  1.0000
  H   H131      1.0  0.3449295089075335  0.12655018161407838  0.7086731105619748  1.0000
  H   H132      1.0  0.636088947088652  0.2914014512959754  0.4177462130193064  1.0000
  C   C1        1.0  0.2984319607928683  0.4996337100438241  0.26410631993335437  1.0000
  C   C2        1.0  0.03438371005713478  0.7360157733861072  0.2357330361737481  1.0000
  C   C3        1.0  0.7989214031391185  0.7643296303898951  0.5003506501725994  1.0000
  C   C4        1.0  0.7015685149131768  0.5003667058601806  0.735891735994926  1.0000
  C   C5        1.0  0.9656210455324158  0.26398736580407  0.764262450300194  1.0000
  C   C6        1.0  0.2010948391330487  0.23567405512130082  0.49965260517780047  1.0000
  C   C7        1.0  0.1729656452186603  0.4569073367280368  0.21464048648341108  1.0000
  C   C8        1.0  0.9582866019960292  0.7854218469567941  0.24246849926697683  1.0000
  C   C9        1.0  0.7161326787299627  0.7575650500759109  0.5430609478325293  1.0000
  C   C10       1.0  0.8270262512832004  0.5430930787337616  0.7853605392597344  1.0000
  C   C11       1.0  0.0417130276951738  0.21458238107493344  0.7575270348391356  1.0000
  C   C12       1.0  0.2838735590864657  0.24243373256208406  0.4569387287000026  1.0000
  C   C13       1.0  0.5135074628302618  0.675113240429731  0.24897314884344718  1.0000
  C   C14       1.0  0.264735924851493  0.751033542360993  0.42625987934135157  1.0000
  C   C15       1.0  0.838764101903905  0.5737776870242541  0.32480236238538396  1.0000
  C   C16       1.0  0.4864982106930071  0.3248882656128701  0.7510295816924285  1.0000
  C   C17       1.0  0.7352655051118262  0.2489668735874133  0.5737377950028132  1.0000
  C   C18       1.0  0.16123304914732728  0.42621782631739075  0.6751894436362489  1.0000
  C   C19       1.0  0.3119148222190731  0.4792357009910618  0.3177829067819999  1.0000
  C   C20       1.0  0.9943349932817328  0.6823961039529819  0.16159900252107912  1.0000
  C   C21       1.0  0.8329471506010788  0.8384361277854921  0.5208543113272623  1.0000
  C   C22       1.0  0.6880820086009081  0.5207668932473342  0.6822162888589531  1.0000
  C   C23       1.0  0.00566687220212705  0.3176070352316529  0.8383990220316235  1.0000
  C   C24       1.0  0.167058204876966  0.16156483378822634  0.4791504690291434  1.0000
  C   C25       1.0  0.7698463261318836  0.2603055640113753  0.9919103783756924  1.0000
  C   C26       1.0  0.7773476106552194  0.008064739423751601  0.268562657129813  1.0000
  C   C27       1.0  0.509023973560879  0.7315554287044891  0.7397189926374423  1.0000
  C   C28       1.0  0.230161265017223  0.7396959420774749  0.008091124549821326  1.0000
  C   C29       1.0  0.22267004885022582  0.9919400358781799  0.73144494139607  1.0000
  C   C30       1.0  0.4909715689200523  0.2684389957401194  0.26027822349363555  1.0000
  C   C31       1.0  0.6870532313162344  0.0037753986981031  0.7137905454607392  1.0000
  C   C32       1.0  0.9732031758939712  0.2860428084229128  0.2899874248668013  1.0000
  C   C33       1.0  0.6833458223781292  0.7101103636453628  0.996277725501656  1.0000
  C   C34       1.0  0.31292754344086393  0.9962179352915329  0.2862072052302905  1.0000
  C   C35       1.0  0.026801543372023597  0.7139586975752792  0.7100156872531826  1.0000
  C   C36       1.0  0.3166517289631017  0.28988242705770517  0.003719386475147182  1.0000
  C   C37       1.0  0.7373372948414528  0.32647171559023047  0.013907109117887678  1.0000
  C   C38       1.0  0.7226913142915523  0.9861006160451642  0.31273790980939253  1.0000
  C   C39       1.0  0.41019215877491866  0.6872916875809166  0.6735726114317798  1.0000
  C   C40       1.0  0.2626674790922578  0.6735297901526209  0.9860932163492605  1.0000
  C   C41       1.0  0.27731770320210813  0.013901979791867806  0.6872674718494594  1.0000
  C   C42       1.0  0.5898042113766807  0.31270055818330184  0.326422287528267  1.0000
  C   C43       1.0  0.4899086613533753  0.6870982836409352  0.3151834989217263  1.0000
  C   C44       1.0  0.1748768886860502  0.6848370960421732  0.37199806628560583  1.0000
  C   C45       1.0  0.8028853015269704  0.6279389878792828  0.3128180664194744  1.0000
  C   C46       1.0  0.5100822878164806  0.31290975709953284  0.6848227837621863  1.0000
  C   C47       1.0  0.8251167520840069  0.315166586998906  0.6279990204928722  1.0000
  C   C48       1.0  0.19711698246946693  0.3720614285816666  0.6871843352041225  1.0000
  C   C49       1.0  0.7049060982521739  0.0730149663097563  0.7829454920077836  1.0000
  C   C50       1.0  0.9218490678910741  0.21686134671254825  0.2899936372190055  1.0000
  C   C51       1.0  0.6318938990243979  0.7100816218096  0.9270676121740704  1.0000
  C   C52       1.0  0.2950764298844034  0.9269816352165989  0.2170478552764336  1.0000
  C   C53       1.0  0.07816828377343651  0.7831390713951408  0.7100128767858749  1.0000
  C   C54       1.0  0.3681030514569201  0.2899155258305158  0.07292864369715348  1.0000
  C   C55       1.0  0.47802115644419974  0.6038018891882259  0.18984737817358155  1.0000
  C   C56       1.0  0.2882012471615666  0.8101821110404757  0.414130283600734  1.0000
  C   C57       1.0  0.8747838845321141  0.5860682996537606  0.3961421978731892  1.0000
  C   C58       1.0  0.5219826428236516  0.39620724196095847  0.8101595975607409  1.0000
  C   C59       1.0  0.7117974293653759  0.1898183042640369  0.5858629621900917  1.0000
  C   C60       1.0  0.12521217449953068  0.41393102696464723  0.6038596262640468  1.0000
  C   C61       1.0  0.8307941312036035  0.2626231038301015  0.056784083769890976  1.0000
  C   C62       1.0  0.7738675374256658  0.9431816601824536  0.2061094085929652  1.0000
  C   C63       1.0  0.5678189005998532  0.7939827386005689  0.7372250180072442  1.0000
  C   C64       1.0  0.16920303600577566  0.7373784014298367  0.9432179010437308  1.0000
  C   C65       1.0  0.22614960443605983  0.05682202562848459  0.7938962518261619  1.0000
  C   C66       1.0  0.4321816503040949  0.20600841823513596  0.26276975046261697  1.0000
  C   C67       1.0  0.7453536686460751  0.19855096948992207  0.9178613494423615  1.0000
  C   C68       1.0  0.8270379247742952  0.08207537928957721  0.2808046564789279  1.0000
  C   C69       1.0  0.5464712101610869  0.7193885100649239  0.8015421405856599  1.0000
  C   C70       1.0  0.25463626455191957  0.8014510795006373  0.08213745824436812  1.0000
  C   C71       1.0  0.17298129786661312  0.9179288517599603  0.7192056220256831  1.0000
  C   C72       1.0  0.45352883111742415  0.2806053699200461  0.19845289523469492  1.0000
  C   C73       1.0  0.3849757797199302  0.5580123283847912  0.26124243855917223  1.0000
  C   C74       1.0  0.12374281430736284  0.7388349279129757  0.2969713490755622  1.0000
  C   C75       1.0  0.8270979233360051  0.7030999425249718  0.44190750476310103  1.0000
  C   C76       1.0  0.6150168978031587  0.44198972129222364  0.7387612621230346  1.0000
  C   C77       1.0  0.8762592153012675  0.2611665771434133  0.7030240833961017  1.0000
  C   C78       1.0  0.17290736933443898  0.29689884002605993  0.5580920889114012  1.0000
  C   C79       1.0  0.5779418396359475  0.7377540941147914  0.24191983287327892  1.0000
  C   C80       1.0  0.3363446211412224  0.7580843418214728  0.4959330105501748  1.0000
  C   C81       1.0  0.8405320714804247  0.5040654524053851  0.26217076955926905  1.0000
  C   C82       1.0  0.4220639138244877  0.26225340354819343  0.7580898253596047  1.0000
  C   C83       1.0  0.6636503387023679  0.24191443947506738  0.5040624205910476  1.0000
  C   C84       1.0  0.15947260320054818  0.4959338744849974  0.7378262269945424  1.0000
  C   C85       1.0  0.4270235594914665  0.6290977592314916  0.3214085809034086  1.0000
  C   C86       1.0  0.10577560518083108  0.6786045106144271  0.3077827776564631  1.0000
  C   C87       1.0  0.7979305139410756  0.6921448216783052  0.3707911631549551  1.0000
  C   C88       1.0  0.5729716786731843  0.37091300475258754  0.6785946678840203  1.0000
  C   C89       1.0  0.894222353132477  0.32139644949756985  0.6922129798771977  1.0000
  C   C90       1.0  0.20207904853018013  0.3078588635220497  0.6292147632842314  1.0000
  C   C91       1.0  0.41484250996654726  0.5457310698229206  0.19593697402866883  1.0000
  C   C92       1.0  0.21882579164333282  0.8041308759341207  0.35002628251839235  1.0000
  C   C93       1.0  0.869546633141816  0.6501842539242091  0.45420817620981063  1.0000
  C   C94       1.0  0.5851600352213778  0.4542775167278704  0.8040715042260231  1.0000
  C   C95       1.0  0.7811746383846767  0.19587117354488734  0.6499683277431032  1.0000
  C   C96       1.0  0.13046458576378223  0.34981126123255274  0.5457904459879117  1.0000
  C   C97       1.0  0.10474204846448018  0.4575087192938837  0.14864971023896342  1.0000
  C   C98       1.0  0.955685411906117  0.8513017957294766  0.3090594216357302  1.0000
  C   C99       1.0  0.6473791609935445  0.6910072090424464  0.5424911483047622  1.0000
  C   C100      1.0  0.8952533013432175  0.542492785451671  0.851348393321487  1.0000
  C   C101      1.0  0.04431997078418699  0.1487007990787887  0.6909381975167719  1.0000
  C   C102      1.0  0.3526296671059228  0.3089910290470996  0.45750711108527037  1.0000
  C   C103      1.0  0.6711604380539454  0.3551529956430953  0.9703933061257572  1.0000
  C   C104      1.0  0.6998796548016558  0.029565237013905208  0.3849474441124485  1.0000
  C   C105      1.0  0.31535788625620126  0.6150545072572554  0.6449419710970757  1.0000
  C   C106      1.0  0.3288459708125229  0.644851778189718  0.029608653682394938  1.0000
  C   C107      1.0  0.3001221834699449  0.97043626893619  0.6150577416441506  1.0000
  C   C108      1.0  0.6846397916716355  0.38494046217060435  0.3550570764666503  1.0000
  C   C109      1.0  0.6198759085418999  0.1489513402926192  0.8802740367176298  1.0000
  C   C110      1.0  0.7392959102594929  0.1196890898239005  0.2687914497685071  1.0000
  C   C111      1.0  0.47074441017363705  0.7314003185827359  0.8512133599484526  1.0000
  C   C112      1.0  0.38011768679331936  0.8510507095990292  0.11973114014902823  1.0000
  C   C113      1.0  0.2607209843828784  0.880320043181115  0.7312236526103104  1.0000
  C   C114      1.0  0.5292573561790803  0.26859900838721984  0.14878710356838815  1.0000
  C   C115      1.0  0.8853694608612201  0.2072399086986607  0.06646328811598316  1.0000
  C   C116      1.0  0.8189952380504906  0.933471286391594  0.14107179708912548  1.0000
  C   C117      1.0  0.6779496751445605  0.859065567724315  0.7924796371816071  1.0000
  C   C118      1.0  0.11462682498118672  0.7927615961764191  0.9335353627446281  1.0000
  C   C119      1.0  0.18101934888034074  0.06653675648037448  0.8589360926033435  1.0000
  C   C120      1.0  0.322044958635523  0.14092885646309844  0.20751563832288872  1.0000
  C   C121      1.0  0.4235441972901484  0.5036441452170664  0.3825903045550447  1.0000
  C   C122      1.0  0.04097788000259321  0.6175304391167558  0.12110274399099545  1.0000
  C   C123      1.0  0.920160344113228  0.8788916319126375  0.4964629832055181  1.0000
  C   C124      1.0  0.5764573694640661  0.4963546367307715  0.61740617103451  1.0000
  C   C125      1.0  0.959021387179959  0.38246943197606953  0.8788944922469497  1.0000
  C   C126      1.0  0.07984647415452167  0.12111041923904507  0.5035438181156664  1.0000
  C   C127      1.0  0.6004894209238643  0.08602640805452919  0.814165853990886  1.0000
  C   C128      1.0  0.7861755154608048  0.18568980227156118  0.27184024180457556  1.0000
  C   C129      1.0  0.5144712581883722  0.7282733095923034  0.914135566797654  1.0000
  C   C130      1.0  0.39950173112350734  0.913970739659625  0.18583640692212802  1.0000
  C   C131      1.0  0.2138277948333779  0.8143111598517123  0.7281722683521537  1.0000
  C   C132      1.0  0.4855303165841249  0.2717292849957857  0.08586311424915748  1.0000
  C   C133      1.0  0.8288728466885261  0.12393014084308622  0.8187926863381634  1.0000
  C   C134      1.0  0.009835831562327311  0.1809913492640122  0.3050047523753037  1.0000
  C   C135      1.0  0.7048620502825145  0.695073980127603  0.8761297421185927  1.0000
  C   C136      1.0  0.1711116447519173  0.8760648271545223  0.1812028790024698  1.0000
  C   C137      1.0  0.9901746030430161  0.8190139697259796  0.6949992045815492  1.0000
  C   C138      1.0  0.2951331923757579  0.30491989976301437  0.1238685949487461  1.0000
  C   C139      1.0  0.8495401759364397  0.18542836832932616  0.886266777706652  1.0000
  C   C140      1.0  0.962831565800812  0.11354976041496909  0.29906999272441936  1.0000
  C   C141      1.0  0.6639090795051671  0.7010323590913574  0.8146330938684373  1.0000
  C   C142      1.0  0.1504558385101758  0.814568779181279  0.11372893086440414  1.0000
  C   C143      1.0  0.0371846218036396  0.8864539253515676  0.7009360492788234  1.0000
  C   C144      1.0  0.33607570495425415  0.29895389477495377  0.18536224305677956  1.0000
  N   N1        1.0  0.11485357018780454  0.4137097117546773  0.23739468326062504  1.0000
  N   N2        1.0  0.8774368601059024  0.7626514097754794  0.17650959323844972  1.0000
  N   N3        1.0  0.7012207684033953  0.823490260243382  0.5862915606561501  1.0000
  N   N4        1.0  0.8851456343087422  0.5862863469532371  0.7626031341729058  1.0000
  N   N5        1.0  0.12256353347696344  0.23735063987376034  0.8234868747916052  1.0000
  N   N6        1.0  0.29877213823806414  0.1765047089624545  0.4137093948281318  1.0000
  N   N7        1.0  0.7773583821690621  0.363855219747009  0.08745157866347594  1.0000
  N   N8        1.0  0.6893940148322956  0.9125705815346736  0.2766435526431579  1.0000
  N   N9        1.0  0.4129310597539657  0.7233077481969162  0.6360542759208414  1.0000
  N   N10       1.0  0.22264463826358133  0.6361446518213328  0.9125473823330025  1.0000
  N   N11       1.0  0.3106087411298334  0.08743255799226551  0.7233573414204102  1.0000
  N   N12       1.0  0.5870627838936073  0.27668504181784215  0.3639387890867313  1.0000
  N   N13       1.0  0.8338820047426694  0.3260676095437347  0.1141120074338318  1.0000
  N   N14       1.0  0.7195985321816493  0.8858871516731168  0.21226296734326397  1.0000
  N   N15       1.0  0.5073698259252736  0.7877335175987669  0.6737319100316197  1.0000
  N   N16       1.0  0.16611885181620076  0.6739355298518463  0.885889185355815  1.0000
  N   N17       1.0  0.2804074684981329  0.11411489879579756  0.7877372489299361  1.0000
  N   N18       1.0  0.49262518068935895  0.212259817439957  0.3262642968769853  1.0000
  N   N19       1.0  0.19993074855896242  0.4279833297142588  0.29962493202326357  1.0000
  N   N20       1.0  0.9004555473413306  0.7005067354303663  0.1285158558826466  1.0000
  N   N21       1.0  0.7721626827983742  0.8714917913292981  0.5720903744406911  1.0000
  N   N22       1.0  0.8000667377886543  0.5720149073317413  0.7003723330704331  1.0000
  N   N23       1.0  0.0995427553796517  0.2994969483434248  0.8714848962809469  1.0000
  N   N24       1.0  0.22783837445199845  0.12850808040558087  0.4279121363768467  1.0000
  O   O1        1.0  0.5875189054378609  0.9509768337786967  0.6988120238680224  1.0000
  O   O2        1.0  0.8886065939721561  0.3011321650555274  0.2523276173284756  1.0000
  O   O3        1.0  0.6366152171536612  0.7478739319310536  0.04909870609964881  1.0000
  O   O4        1.0  0.41247365473150677  0.04902140376874801  0.301195044662613  1.0000
  O   O5        1.0  0.11139165626711628  0.6988638936079852  0.7476705816891637  1.0000
  O   O6        1.0  0.3633945732213562  0.252128118843153  0.9509013771635252  1.0000
  O   O7        1.0  0.5814410330182582  0.7221478193511004  0.17664307948009375  1.0000
  O   O8        1.0  0.4052247445170848  0.8233494515153551  0.5455492242441976  1.0000
  O   O9        1.0  0.8597706056084747  0.45447475170430357  0.27782486537378753  1.0000
  O   O10       1.0  0.4185743178042358  0.2778580451383803  0.8233657441363178  1.0000
  O   O11       1.0  0.5947756683813595  0.17664878536595552  0.4544436450021863  1.0000
  O   O12       1.0  0.14022720789565554  0.5455240297680105  0.7221698854572408  1.0000
  O   O13       1.0  0.6243039350739605  0.8002272238407356  0.29806893098517395  1.0000
  O   O14       1.0  0.3264205087141717  0.7019710682275787  0.5023005147870165  1.0000
  O   O15       1.0  0.8241255507265706  0.4976528122208848  0.19965425202818204  1.0000
  O   O16       1.0  0.375694164891094  0.19978571959715202  0.7019416108268075  1.0000
  O   O17       1.0  0.6735763687552636  0.2980277131152179  0.49769368874384406  1.0000
  O   O18       1.0  0.17586462871936695  0.5023459688961935  0.8003435514757342  1.0000
  O   O19       1.0  0.7676416000546241  0.0008202479414905  0.6767178761228578  1.0000
  O   O20       1.0  0.09087360557719387  0.3230762598954726  0.324066669985541  1.0000
  O   O21       1.0  0.7668806105435022  0.676011058258908  0.9991694499206004  1.0000
  O   O22       1.0  0.23233236588573883  0.9991817991025727  0.3232744141138609  1.0000
  O   O23       1.0  0.9091372485121382  0.6769241570502303  0.6759332262653287  1.0000
  O   O24       1.0  0.2331051737296264  0.32397519543901865  0.0008231832098104677  1.0000
