data_image0
_chemical_formula_structural       Mn4H20C16N12O24
_chemical_formula_sum              "Mn4 H20 C16 N12 O24"
_cell_length_a       7.048124953319415
_cell_length_b       10.251115482000456
_cell_length_c       10.385396994432927
_cell_angle_alpha    90.00000050431474
_cell_angle_beta     94.34273489504818
_cell_angle_gamma    90.00003377808396

_space_group_name_H-M_alt    "P 1"
_space_group_IT_number       1

loop_
  _space_group_symop_operation_xyz
  'x, y, z'

loop_
  _atom_site_type_symbol
  _atom_site_label
  _atom_site_symmetry_multiplicity
  _atom_site_fract_x
  _atom_site_fract_y
  _atom_site_fract_z
  _atom_site_occupancy
  Mn  Mn1       1.0  0.18519104312106552  0.11567135443866046  0.8278736897350782  1.0000
  Mn  Mn2       1.0  0.8148033169355174  0.6156736518343279  0.6721283781967955  1.0000
  Mn  Mn3       1.0  0.8148097486207247  0.8843283154510855  0.17212673130113387  1.0000
  Mn  Mn4       1.0  0.18519321773296582  0.3843279690617435  0.3278708378776897  1.0000
  H   H1        1.0  0.3960120767352819  0.8154957230609058  0.43225816270292927  1.0000
  H   H2        1.0  0.6039907607432226  0.3154965186969604  0.06774517629558119  1.0000
  H   H3        1.0  0.603987292150606  0.18450394682854915  0.5677421774354983  1.0000
  H   H4        1.0  0.39601426508562554  0.6845031511936452  0.932258374239268  1.0000
  H   H5        1.0  0.8438236007006807  0.0008303258104334  0.720270146847632  1.0000
  H   H6        1.0  0.15617495094704026  0.5008284571314688  0.7797302329158172  1.0000
  H   H7        1.0  0.1561757681860527  0.9991712950862134  0.2797301932908525  1.0000
  H   H8        1.0  0.8438244179384212  0.49917023725438975  0.22027010722258206  1.0000
  H   H9        1.0  0.9343304559123453  0.9017859541633297  0.8248319091417144  1.0000
  H   H10       1.0  0.06566561052421352  0.40178555861068327  0.6751673686401816  1.0000
  H   H11       1.0  0.0656675131051543  0.09821469122943674  0.17516642556210368  1.0000
  H   H12       1.0  0.9343294783004339  0.5982141112779118  0.32483369107332294  1.0000
  H   H13       1.0  0.3539550951554276  0.9130392473956164  0.9499834634875625  1.0000
  H   H14       1.0  0.6460438267878885  0.41303810880695097  0.5500159767096449  1.0000
  H   H15       1.0  0.6460471309362319  0.0869613979980102  0.05001607617803219  1.0000
  H   H16       1.0  0.3539541192421041  0.5869615610822192  0.44998428253099837  1.0000
  H   H17       1.0  0.22338391734131594  0.9725985898953834  0.060911312291203494  1.0000
  H   H18       1.0  0.776614822797818  0.47259848212189565  0.43908890586099864  1.0000
  H   H19       1.0  0.7766182972563698  0.027401079994646704  0.939089189642793  1.0000
  H   H20       1.0  0.22338313472486956  0.5273992367600897  0.5609103911111646  1.0000
  C   C1        1.0  0.2087414717126137  0.06090951287315248  0.5459152691911129  1.0000
  C   C2        1.0  0.7912585550866708  0.5609088763248662  0.9540851947789832  1.0000
  C   C3        1.0  0.7912564858113456  0.939091132519614  0.4540840277811354  1.0000
  C   C4        1.0  0.20874223665553873  0.43909176906847586  0.0459152262572573  1.0000
  C   C5        1.0  0.35505797327805777  0.8927965713532512  0.6243609446398323  1.0000
  C   C6        1.0  0.6449380508520051  0.3927934836639294  0.8756412194521842  1.0000
  C   C7        1.0  0.6449413956091093  0.1072060250469917  0.3756393954986734  1.0000
  C   C8        1.0  0.35506130653990914  0.6072052107219291  0.12436008295464519  1.0000
  C   C9        1.0  0.1097071764817699  0.18931795760734357  0.5443991486716725  1.0000
  C   C10       1.0  0.8902944539061153  0.6893173608922466  0.9555956296576653  1.0000
  C   C11       1.0  0.890290804028858  0.8106817122818272  0.4555982237636869  1.0000
  C   C12       1.0  0.10970209225591529  0.3106842600038248  0.0444026241483968  1.0000
  C   C13       1.0  0.45334949256574214  0.7907364788556347  0.7088069257342369  1.0000
  C   C14       1.0  0.5466479115562706  0.29073042452292697  0.7911914645608745  1.0000
  C   C15       1.0  0.5466498878145387  0.20926514204101204  0.2911924521358173  1.0000
  C   C16       1.0  0.4533500229788956  0.7092663188554621  0.2088097569481207  1.0000
  N   N1        1.0  0.26916382401165606  0.002274930877725  0.6593105415018526  1.0000
  N   N2        1.0  0.7308318946745089  0.5022713427032314  0.8406887142771138  1.0000
  N   N3        1.0  0.7308355563690511  0.997727665522518  0.34068883636822983  1.0000
  N   N4        1.0  0.2691646399931287  0.4977283271856549  0.15931050179731437  1.0000
  N   N5        1.0  0.2520236946338912  0.992013069568365  0.4426434457253876  1.0000
  N   N6        1.0  0.7479807538279103  0.4920129475242731  0.05735709708719129  1.0000
  N   N7        1.0  0.7479771200949942  0.007986600321373799  0.557355050773971  1.0000
  N   N8        1.0  0.2520228721317038  0.5079857468624522  0.9426444480129913  1.0000
  N   N9        1.0  0.3444197033485921  0.8872732673916699  0.49390511428521927  1.0000
  N   N10       1.0  0.6555817737509743  0.38727213232068164  0.006098147768561501  1.0000
  N   N11       1.0  0.6555810769009227  0.11272932900885725  0.5060962690195012  1.0000
  N   N12       1.0  0.34442186370261413  0.6127275375696398  0.9939024350632195  1.0000
  O   O1        1.0  0.0805184534446539  0.23526514694351144  0.6556508565924658  1.0000
  O   O2        1.0  0.9194803137582426  0.7352655366652171  0.844348573813974  1.0000
  O   O3        1.0  0.9194808924545657  0.7647354984495462  0.3443514080828436  1.0000
  O   O4        1.0  0.0805148325349805  0.26473608423057016  0.15564767455744288  1.0000
  O   O5        1.0  0.06080941225221181  0.2422292623529501  0.437068812683755  1.0000
  O   O6        1.0  0.9391948417767892  0.7422316089765173  0.06292979183533018  1.0000
  O   O7        1.0  0.9391956020835152  0.757771383041252  0.5629357001195459  1.0000
  O   O8        1.0  0.06080032750479351  0.25777293843004395  0.9370645319993114  1.0000
  O   O9        1.0  0.5400833606057702  0.7055038205102729  0.646790151234427  1.0000
  O   O10       1.0  0.4599110201724769  0.20549675624516783  0.8532167329867946  1.0000
  O   O11       1.0  0.4599146084125891  0.2944987758896787  0.3532081834694409  1.0000
  O   O12       1.0  0.540089737088671  0.7945029136445781  0.14678657485470128  1.0000
  O   O13       1.0  0.4415490142261902  0.7983210173650687  0.8293110540149725  1.0000
  O   O14       1.0  0.5584454703293744  0.2983110648925375  0.6706939107811678  1.0000
  O   O15       1.0  0.5584489203106813  0.2016796280276978  0.1706901674941221  1.0000
  O   O16       1.0  0.44155393303502427  0.7016837274789436  0.3293035425518411  1.0000
  O   O17       1.0  0.9116602710996561  0.9971024057616162  0.8083923619068328  1.0000
  O   O18       1.0  0.08834014687110428  0.49710104394066684  0.6916071638178849  1.0000
  O   O19       1.0  0.0883391092806249  0.0028992151350308993  0.1916070159632213  1.0000
  O   O20       1.0  0.9116577876649145  0.5028976504449146  0.3083940576911601  1.0000
  O   O21       1.0  0.2759709192019102  0.9865209910711169  0.9759740819428018  1.0000
  O   O22       1.0  0.7240337466326635  0.48651988365362786  0.5240266481609409  1.0000
  O   O23       1.0  0.724028461177099  0.013477703314748594  0.024025295927174298  1.0000
  O   O24       1.0  0.2759727250379029  0.5134768597264808  0.475975058734754  1.0000
