data_image0
_chemical_formula_structural       Fe4P12H108C144O24
_chemical_formula_sum              "Fe4 P12 H108 C144 O24"
_cell_length_a       9.58864704000014
_cell_length_b       25.086300528872407
_cell_length_c       25.08629204234901
_cell_angle_alpha    120.00001837023258
_cell_angle_beta     90.0000177571082
_cell_angle_gamma    89.99999825970005

_space_group_name_H-M_alt    "P 1"
_space_group_IT_number       1

loop_
  _space_group_symop_operation_xyz
  'x, y, z'

loop_
  _atom_site_type_symbol
  _atom_site_label
  _atom_site_symmetry_multiplicity
  _atom_site_fract_x
  _atom_site_fract_y
  _atom_site_fract_z
  _atom_site_occupancy
  Fe  Fe1       1.0  0.03264183595045721  0.6666669835173947  0.3333333329427503  1.0000
  Fe  Fe2       1.0  0.9673577955929529  0.3333331926531641  0.6666666519307326  1.0000
  Fe  Fe3       1.0  0.5324193311497325  0.6666667692097049  0.3333336006424688  1.0000
  Fe  Fe4       1.0  0.46758030039378434  0.3333331768152731  0.6666666143767515  1.0000
  P   P1        1.0  0.7870297718979344  0.6772918973656772  0.24397701320629042  1.0000
  P   P2        1.0  0.7870298081180707  0.5666857349828119  0.3227084577669642  1.0000
  P   P3        1.0  0.7870288025846576  0.7560229296318963  0.43331515820369043  1.0000
  P   P4        1.0  0.21296985964548296  0.3227082788048747  0.7560229716671927  1.0000
  P   P5        1.0  0.21297086632514348  0.4333149014789368  0.6772910668151296  1.0000
  P   P6        1.0  0.21297082895895875  0.24397678624750085  0.5666852869612669  1.0000
  P   P7        1.0  0.7133324156989005  0.43547138759101484  0.7520125092063168  1.0000
  P   P8        1.0  0.7133323444395288  0.31654134120919497  0.5645289412152366  1.0000
  P   P9        1.0  0.7133323952895125  0.24798762225731963  0.6834592453555004  1.0000
  P   P10       1.0  0.2866693016447641  0.5645289570581012  0.24798810443722627  1.0000
  P   P11       1.0  0.28666833000389147  0.6834588349613921  0.43547104365832456  1.0000
  P   P12       1.0  0.2866682791540072  0.7520123237676869  0.3165409696637981  1.0000
  H   H1        1.0  0.557098446898344  0.6552232540408339  0.1597229911939948  1.0000
  H   H2        1.0  0.5570995706473666  0.5044991693398656  0.3447759014307508  1.0000
  H   H3        1.0  0.5570985756176369  0.8402769208680354  0.4955004888477886  1.0000
  H   H4        1.0  0.4429011846452581  0.34477794952345414  0.8402775607820843  1.0000
  H   H5        1.0  0.4429000608957026  0.4955010684977734  0.6552232245270985  1.0000
  H   H6        1.0  0.4429000130254863  0.15972245805433252  0.5044986987772901  1.0000
  H   H7        1.0  0.9849419121755503  0.598862638033367  0.14831995948995308  1.0000
  H   H8        1.0  0.9849430593933873  0.5494574941073151  0.40113751326159525  1.0000
  H   H9        1.0  0.984942024649641  0.851680218509628  0.4505434311854798  1.0000
  H   H10       1.0  0.015055633568373097  0.40113638740922397  0.8516811761120522  1.0000
  H   H11       1.0  0.015056572150363899  0.45054410808104706  0.5988634373386503  1.0000
  H   H12       1.0  0.015056563993383097  0.1483193905583206  0.5494555262938619  1.0000
  H   H13       1.0  0.9404914366368896  0.7328804339192274  0.18171947165840405  1.0000
  H   H14       1.0  0.9404925252582856  0.448840779864028  0.2671192710356465  1.0000
  H   H15       1.0  0.9404884541964336  0.8182802833689634  0.5511610004938561  1.0000
  H   H16       1.0  0.0595092378065871  0.26711888333612405  0.818280574882472  1.0000
  H   H17       1.0  0.059508149185013785  0.5511611141370308  0.7328805905032993  1.0000
  H   H18       1.0  0.05950804864688308  0.18172012294707673  0.4488387542336625  1.0000
  H   H19       1.0  0.9614860612881843  0.8404710544217835  0.20386024704401942  1.0000
  H   H20       1.0  0.9614871049435505  0.3633897124033395  0.1595286307396648  1.0000
  H   H21       1.0  0.9614851953725746  0.7961402720319555  0.6366113304285435  1.0000
  H   H22       1.0  0.03851461315514369  0.15952786420949375  0.7961394008726828  1.0000
  H   H23       1.0  0.0385114836998639  0.6366104637671838  0.8404713541337471  1.0000
  H   H24       1.0  0.0385123503712208  0.20386195892599085  0.3633897886499753  1.0000
  H   H25       1.0  0.8440837134304146  0.9254023430414549  0.29571157013366883  1.0000
  H   H26       1.0  0.8440815598553113  0.3703101235572674  0.07459743572143644  1.0000
  H   H27       1.0  0.8440817715485452  0.7042881624727428  0.6296907772673066  1.0000
  H   H28       1.0  0.15591800391250385  0.07459749617218134  0.7042871572001701  1.0000
  H   H29       1.0  0.15591598588810027  0.6296900526132204  0.9254025491518902  1.0000
  H   H30       1.0  0.1559199457952616  0.2957125808004477  0.3703102350004031  1.0000
  H   H31       1.0  0.7072302332751192  0.9019348676892277  0.36621670879401336  1.0000
  H   H32       1.0  0.7072249273467434  0.4642816959483227  0.09806527405186923  1.0000
  H   H33       1.0  0.7072303124308589  0.6337827948839558  0.5357174324695038  1.0000
  H   H34       1.0  0.2927714840679911  0.09806599891813052  0.6337825856424217  1.0000
  H   H35       1.0  0.2927715754963813  0.5357176829739811  0.9019339135730461  1.0000
  H   H36       1.0  0.2927755765126178  0.3662165223715661  0.4642826140717631  1.0000
  H   H37       1.0  0.6820692224941922  0.7933874358616747  0.34243052580110594  1.0000
  H   H38       1.0  0.6820650054752944  0.5490434702271115  0.2066130830502501  1.0000
  H   H39       1.0  0.6820692717685474  0.6575692472888546  0.4509565980405412  1.0000
  H   H40       1.0  0.3179314519492635  0.20661336907856748  0.6575696275508918  1.0000
  H   H41       1.0  0.31793254026787565  0.4509565374648829  0.7933862730531729  1.0000
  H   H42       1.0  0.3179345313751369  0.3424296096754347  0.5490439087920365  1.0000
  H   H43       1.0  0.9721486139108109  0.5443981312234527  0.03448613870591535  1.0000
  H   H44       1.0  0.972148786574998  0.4900884838144037  0.4556026867724938  1.0000
  H   H45       1.0  0.9721487899252566  0.9655135042505945  0.5099123057203768  1.0000
  H   H46       1.0  0.0278510176328552  0.45560221342559254  0.9655144749374713  1.0000
  H   H47       1.0  0.027850844968561692  0.5099120909802294  0.5443976967251558  1.0000
  H   H48       1.0  0.0278508416178695  0.034485874671816005  0.4900868819047801  1.0000
  H   H49       1.0  0.5420420557600991  0.5999474210501033  0.04612408622563894  1.0000
  H   H50       1.0  0.542043248015993  0.44617655746102963  0.40005226460475996  1.0000
  H   H51       1.0  0.5420412045787301  0.9538765601783934  0.5538242231204862  1.0000
  H   H52       1.0  0.45795861868354837  0.400054411283868  0.9538766342289476  1.0000
  H   H53       1.0  0.45795846932688267  0.5538226529829444  0.5999462942506497  1.0000
  H   H54       1.0  0.4579573840646844  0.0461236159921299  0.4461757617529188  1.0000
  H   H55       1.0  0.5187325280649802  0.45056784124037097  0.8470758373333709  1.0000
  H   H56       1.0  0.5187334525521479  0.3965095110965179  0.5494336048907726  1.0000
  H   H57       1.0  0.5187334839947153  0.15292429942655153  0.6034906877267616  1.0000
  H   H58       1.0  0.48126710347857227  0.5494342212391458  0.15292465297540045  1.0000
  H   H59       1.0  0.48126617899087876  0.6034900979714662  0.45056535258864727  1.0000
  H   H60       1.0  0.4812661475486593  0.8470752479743452  0.396509128668292  1.0000
  H   H61       1.0  0.9404614666987781  0.5032830062248053  0.8365000489487217  1.0000
  H   H62       1.0  0.9404592499694857  0.33321671461111874  0.49671646690931937  1.0000
  H   H63       1.0  0.9404603683948876  0.16350065181458728  0.6667842311191593  1.0000
  H   H64       1.0  0.0595402506449361  0.496717967193966  0.16350073317325106  1.0000
  H   H65       1.0  0.059540381573825095  0.6667836917050206  0.5032832878184335  1.0000
  H   H66       1.0  0.0595382202486334  0.8364992942103554  0.3332159838999829  1.0000
  H   H67       1.0  0.8501358290035625  0.45764212771326357  0.6624894173811879  1.0000
  H   H68       1.0  0.8501316186687761  0.20484740845434146  0.542359358691364  1.0000
  H   H69       1.0  0.8501348445375926  0.33751030593736403  0.795153269750024  1.0000
  H   H70       1.0  0.14986588834024417  0.5423586155599267  0.33751159488652144  1.0000
  H   H71       1.0  0.149865927075183  0.7951537334427883  0.4576420522001925  1.0000
  H   H72       1.0  0.14986582990558617  0.6624882140698389  0.20484597954251876  1.0000
  H   H73       1.0  0.8268697585928493  0.5403945809026638  0.6351751753150339  1.0000
  H   H74       1.0  0.8268655333692364  0.09478065294359783  0.4596076479532485  1.0000
  H   H75       1.0  0.8268657032342404  0.3648247745252177  0.905219846079227  1.0000
  H   H76       1.0  0.17312883005096316  0.4596061623704273  0.3648258369524413  1.0000
  H   H77       1.0  0.17313305527517292  0.9052201971409063  0.540394851999757  1.0000
  H   H78       1.0  0.1731339283088786  0.6351746043971929  0.0947793415459302  1.0000
  H   H79       1.0  0.6559249102840354  0.6254397248637672  0.6913784739560427  1.0000
  H   H80       1.0  0.6559237610260666  0.06593855735319211  0.3745612007372756  1.0000
  H   H81       1.0  0.6559198064834817  0.30862103598893487  0.934060441039641  1.0000
  H   H82       1.0  0.34407263545913475  0.3745602828282272  0.30862088214738737  1.0000
  H   H83       1.0  0.34407795631801  0.9340608667136079  0.6254403334892089  1.0000
  H   H84       1.0  0.3440777392598378  0.6913793703271266  0.06593931368795575  1.0000
  H   H85       1.0  0.5042299234870312  0.6259141812085645  0.7722552389783814  1.0000
  H   H86       1.0  0.5042329097501862  0.1463407534243116  0.37408469162429714  1.0000
  H   H87       1.0  0.504227886265312  0.22774386371617075  0.8536582646254018  1.0000
  H   H88       1.0  0.4957655364559912  0.3740854278592847  0.22774371850072578  1.0000
  H   H89       1.0  0.49576985049289135  0.8536579967285363  0.6259143275226648  1.0000
  H   H90       1.0  0.49577070237850057  0.77225687955692  0.14634274764207333  1.0000
  H   H91       1.0  0.5253090319927195  0.542866371507891  0.7980479081691882  1.0000
  H   H92       1.0  0.5253130768168575  0.2551812848049835  0.4571314408296415  1.0000
  H   H93       1.0  0.5253090238050078  0.20195080708326418  0.7448175934414181  1.0000
  H   H94       1.0  0.47468955665044615  0.45713363618413183  0.20195144793432007  1.0000
  H   H95       1.0  0.474689683425673  0.7448179873061065  0.5428662591102126  1.0000
  H   H96       1.0  0.4746895648385631  0.7980482800264423  0.25518268324503157  1.0000
  H   H97       1.0  0.9580458474798021  0.5577535105117304  0.9501253716421515  1.0000
  H   H98       1.0  0.9580446053950381  0.3923718474876025  0.44224592813131375  1.0000
  H   H99       1.0  0.9580467715985249  0.04987484784452067  0.6076288223979986  1.0000
  H   H100      1.0  0.0419537840638071  0.4422476930525575  0.04987518033392746  1.0000
  H   H101      1.0  0.0419550261481731  0.607628788974111  0.5577535964507021  1.0000
  H   H102      1.0  0.04195285994499189  0.9501250981804573  0.3923713926212215  1.0000
  H   H103      1.0  0.5347035426052571  0.5052756436330837  0.9608712555763929  1.0000
  H   H104      1.0  0.5347043986843545  0.4555978603467707  0.4947268951781608  1.0000
  H   H105      1.0  0.5347054780319169  0.03912917669570247  0.5444025498992673  1.0000
  H   H106      1.0  0.4652960889386221  0.4947278448642364  0.0391302004591409  1.0000
  H   H107      1.0  0.4652952328588142  0.5444021473452878  0.5052724609254183  1.0000
  H   H108      1.0  0.46529519641120476  0.9608702022267366  0.45559663772596787  1.0000
  C   C1        1.0  0.7736316038528129  0.6322756426233694  0.16123342610120522  1.0000
  C   C2        1.0  0.7736337773243348  0.5289576672136602  0.3677241982536897  1.0000
  C   C3        1.0  0.7736317212154942  0.8387666221000385  0.4710428333235938  1.0000
  C   C4        1.0  0.22636698479050207  0.3677247636927347  0.8387663286264697  1.0000
  C   C5        1.0  0.22636794001879673  0.47104171170880693  0.6322749893716235  1.0000
  C   C6        1.0  0.22636791032802248  0.16123332392493947  0.5289573816956263  1.0000
  C   C7        1.0  0.647961099176257  0.6310358822981  0.13209401939096208  1.0000
  C   C8        1.0  0.6479622430952717  0.5010576794662782  0.3689634040499  1.0000
  C   C9        1.0  0.6479601955461619  0.8679059596011026  0.49894260728412826  1.0000
  C   C10       1.0  0.3520385323670538  0.3689645240180325  0.8679057353367838  1.0000
  C   C11       1.0  0.35203843134775775  0.49894192960174155  0.6310355534295979  1.0000
  C   C12       1.0  0.3520373501971079  0.13209381794531072  0.5010569789650319  1.0000
  C   C13       1.0  0.8894341637745455  0.6002321612230332  0.12553154671837066  1.0000
  C   C14       1.0  0.8894342777672006  0.5252990405455549  0.399768075694979  1.0000
  C   C15       1.0  0.8894332515200815  0.8744689096561866  0.47470149013950913  1.0000
  C   C16       1.0  0.11056546776892867  0.3997671560322829  0.8744684998224203  1.0000
  C   C17       1.0  0.1105653537762592  0.47470176439465206  0.6002320776569405  1.0000
  C   C18       1.0  0.11056533712294227  0.12553069941176886  0.5252974673398327  1.0000
  C   C19       1.0  0.8107192492650552  0.7562726342840307  0.26116273232781123  1.0000
  C   C20       1.0  0.8107171662621225  0.5048906078325073  0.2437278792198043  1.0000
  C   C21       1.0  0.810718301787837  0.7388374905944202  0.4951106517392531  1.0000
  C   C22       1.0  0.18928246807885776  0.24372787884357885  0.7388385100856354  1.0000
  C   C23       1.0  0.18928246528088266  0.49511048892036047  0.7562711850707373  1.0000
  C   C24       1.0  0.18928341555569966  0.2611609677457307  0.5048894564690015  1.0000
  C   C25       1.0  0.8893142627763381  0.7697943824263758  0.22221035048260504  1.0000
  C   C26       1.0  0.8893132355594346  0.4524166698571008  0.23020562948887158  1.0000
  C   C27       1.0  0.8893133513253276  0.7777898112336882  0.5475835832014225  1.0000
  C   C28       1.0  0.11068641166733072  0.23020596222270467  0.7777902631608525  1.0000
  C   C29       1.0  0.11068639598363456  0.5475835679805384  0.7697934964689779  1.0000
  C   C30       1.0  0.110688366018195  0.22221013479134646  0.45241663181795383  1.0000
  C   C31       1.0  0.9008987986200694  0.8304217157462543  0.2346037656029196  1.0000
  C   C32       1.0  0.9008956603016073  0.40418218826330576  0.16957825274683808  1.0000
  C   C33       1.0  0.9008968616466291  0.765396270172104  0.5958182378715479  1.0000
  C   C34       1.0  0.0991050045233095  0.16957783165477727  0.7653960507924538  1.0000
  C   C35       1.0  0.0991008425418087  0.5958179879071464  0.8304217321264105  1.0000
  C   C36       1.0  0.09910068409615039  0.23460317041732276  0.40418009083781925  1.0000
  C   C37       1.0  0.8351210288561007  0.8780585659085104  0.28625620553930264  1.0000
  C   C38       1.0  0.8351178520405045  0.40819828355658666  0.12194229001738681  1.0000
  C   C39       1.0  0.8351201161326781  0.7137437170872046  0.5918021444609564  1.0000
  C   C40       1.0  0.16487964558735507  0.12194223903173201  0.7137439478126879  1.0000
  C   C41       1.0  0.1648796937030141  0.5918016624683203  0.8780579250016771  1.0000
  C   C42       1.0  0.164883687010942  0.2862559987923206  0.40819830070431345  1.0000
  C   C43       1.0  0.7581018374047233  0.8649196477106711  0.3256397480773926  1.0000
  C   C44       1.0  0.7580976044861387  0.46072050754587923  0.13508061224769102  1.0000
  C   C45       1.0  0.7580998455925821  0.6743604039734946  0.5392802623304148  1.0000
  C   C46       1.0  0.241900922838596  0.13508075860556085  0.6743600066505948  1.0000
  C   C47       1.0  0.24189994125698885  0.5392788713764601  0.8649185753773097  1.0000
  C   C48       1.0  0.2419039575513935  0.325639250238943  0.4607210417504888  1.0000
  C   C49       1.0  0.7449915387274968  0.8042171168635688  0.31291015014135576  1.0000
  C   C50       1.0  0.7449873312845199  0.5086936431173682  0.1957835761229275  1.0000
  C   C51       1.0  0.7449916155633716  0.6870896295242871  0.491306264666086  1.0000
  C   C52       1.0  0.2550101786159615  0.195783688076709  0.6870900032107201  1.0000
  C   C53       1.0  0.255010214458693  0.49130699334428124  0.8042159484589249  1.0000
  C   C54       1.0  0.2550132304799604  0.312909289107118  0.5086933832509288  1.0000
  C   C55       1.0  0.8811024110040645  0.5692401644792824  0.06161352024712122  1.0000
  C   C56       1.0  0.88110360640718  0.49237430001730337  0.4307603072216679  1.0000
  C   C57       1.0  0.8811025771454196  0.9383861064273233  0.507626822914581  1.0000
  C   C58       1.0  0.1188961776397477  0.4307605787938084  0.9383874920203465  1.0000
  C   C59       1.0  0.1188960251361806  0.5076267350684842  0.5692396159845146  1.0000
  C   C60       1.0  0.1188960114975615  0.06161287387097762  0.4923719660863384  1.0000
  C   C61       1.0  0.639633518030692  0.5994041182119714  0.06817557014237247  1.0000
  C   C62       1.0  0.6396347006695108  0.4687714113719037  0.4005959493200847  1.0000
  C   C63       1.0  0.6396336925125681  0.9318246197595952  0.5312286778638223  1.0000
  C   C64       1.0  0.3603661135132015  0.4005978826004649  0.9318257790820397  1.0000
  C   C65       1.0  0.36036493087325994  0.5312280292175869  0.5994023793894385  1.0000
  C   C66       1.0  0.36036489613041306  0.06817436053869826  0.46877011113708983  1.0000
  C   C67       1.0  0.7563684302155451  0.5685316344424293  0.03175473234091441  1.0000
  C   C68       1.0  0.7563696391124778  0.4632238384294921  0.43146893463458713  1.0000
  C   C69       1.0  0.7563696619544372  0.9682457149632595  0.5367771237683241  1.0000
  C   C70       1.0  0.2436301584271732  0.43146866506226167  0.9682435347012229  1.0000
  C   C71       1.0  0.24363103533120517  0.5367750185346977  0.5685315721977559  1.0000
  C   C72       1.0  0.24362996958911504  0.031756347516257215  0.463223366540447  1.0000
  C   C73       1.0  0.7269641935782118  0.4748419160237771  0.8347876024626615  1.0000
  C   C74       1.0  0.7269640726966882  0.35994614951815146  0.5251581824545681  1.0000
  C   C75       1.0  0.7269651697608025  0.16521234847868266  0.6400540550171954  1.0000
  C   C76       1.0  0.2730364808647535  0.5251585519594713  0.16521129334952894  1.0000
  C   C77       1.0  0.2730355588465798  0.640053628028326  0.4748414037947483  1.0000
  C   C78       1.0  0.2730355046829018  0.8347886249400529  0.3599467271046988  1.0000
  C   C79       1.0  0.6133611108611916  0.47544680039964515  0.8701720977501993  1.0000
  C   C80       1.0  0.6133609740658557  0.394726972688069  0.5245545699647494  1.0000
  C   C81       1.0  0.6133620600410267  0.12982811781758827  0.6052732534217142  1.0000
  C   C82       1.0  0.3866395635826478  0.5245560593280558  0.12982918980697628  1.0000
  C   C83       1.0  0.38663761457681994  0.6052726980469672  0.4754435285989588  1.0000
  C   C84       1.0  0.386637571502348  0.8701714295833157  0.3947265629733464  1.0000
  C   C85       1.0  0.8514322334767498  0.5042616973417893  0.8639942809213608  1.0000
  C   C86       1.0  0.8514320900160184  0.35973289255497315  0.4957385230151345  1.0000
  C   C87       1.0  0.8514321573172836  0.13600600443544417  0.6402676928258516  1.0000
  C   C88       1.0  0.1485684409671109  0.49573967470102076  0.1360068998246931  1.0000
  C   C89       1.0  0.1485675415271928  0.6402677439067401  0.5042610015668813  1.0000
  C   C90       1.0  0.14856747422594196  0.8639931443413785  0.3597317249450425  1.0000
  C   C91       1.0  0.6895052687908246  0.4948632562487347  0.731579740728158  1.0000
  C   C92       1.0  0.6895051872137472  0.23671618467096783  0.5051370200138692  1.0000
  C   C93       1.0  0.689505290508997  0.26841988047885906  0.7632833625612178  1.0000
  C   C94       1.0  0.31049436275327486  0.5051382842725332  0.2684220687877285  1.0000
  C   C95       1.0  0.3104944443295635  0.763284221645165  0.49486273471387676  1.0000
  C   C96       1.0  0.3104943410342926  0.7315784093827347  0.23671611687697688  1.0000
  C   C97       1.0  0.7737413261351874  0.4944154052753759  0.6856739781730283  1.0000
  C   C98       1.0  0.773738136394833  0.19125852593405301  0.5055860539083952  1.0000
  C   C99       1.0  0.7737392972343285  0.3143261337783299  0.8087417663742471  1.0000
  C   C100      1.0  0.2262624770082269  0.505584770895311  0.3143260067007745  1.0000
  C   C101      1.0  0.22626253804953217  0.8087416953808598  0.49441627756633716  1.0000
  C   C102      1.0  0.22626033430914558  0.685673183476993  0.19125828016654361  1.0000
  C   C103      1.0  0.7609188628448535  0.5410494417932625  0.6709585500555377  1.0000
  C   C104      1.0  0.7609146215133151  0.1299089033730993  0.4589523922564993  1.0000
  C   C105      1.0  0.7609126943990034  0.32904142678953696  0.8700919423141187  1.0000
  C   C106      1.0  0.23908181159875141  0.458951761771054  0.32904200192061944  1.0000
  C   C107      1.0  0.23908396713080288  0.8700911494632491  0.5410493104481802  1.0000
  C   C108      1.0  0.23908485134472096  0.6709580589442082  0.12990873299641226  1.0000
  C   C109      1.0  0.6651149510241366  0.5886966171732197  0.7024844871716242  1.0000
  C   C110      1.0  0.6651127659308785  0.11378774780502  0.4113040319793839  1.0000
  C   C111      1.0  0.6651098223441778  0.29751535272538376  0.886211997277691  1.0000
  C   C112      1.0  0.3348836376190292  0.4113033905188032  0.2975148689318842  1.0000
  C   C113      1.0  0.3348879085129894  0.8862121365528991  0.5886970419555482  1.0000
  C   C114      1.0  0.3348877233993831  0.7024852220691784  0.11378838621980243  1.0000
  C   C115      1.0  0.5804794628943171  0.5892203866489041  0.7481867713689071  1.0000
  C   C116      1.0  0.5804814289299783  0.15896566570005183  0.41077916623827093  1.0000
  C   C117      1.0  0.580476385024127  0.2518130902060347  0.8410335323490372  1.0000
  C   C118      1.0  0.4195180828491018  0.41077978952158384  0.2518132135044269  1.0000
  C   C119      1.0  0.4195202884132456  0.8410334830768419  0.5892202515327726  1.0000
  C   C120      1.0  0.4195211607195402  0.7481872544429463  0.1589670812941931  1.0000
  C   C121      1.0  0.5921495215715922  0.5423700966680016  0.7626026331870506  1.0000
  C   C122      1.0  0.5921504536018105  0.22023209533953994  0.4576283639971379  1.0000
  C   C123      1.0  0.5921484975814693  0.23739661469996062  0.779767217863018  1.0000
  C   C124      1.0  0.40784906707192886  0.4576298493569409  0.23739758183209136  1.0000
  C   C125      1.0  0.40785022084096306  0.7797673452499864  0.5423699647124636  1.0000
  C   C126      1.0  0.40785009106225795  0.7626028710338203  0.2202334574475983  1.0000
  C   C127      1.0  0.8612563761640857  0.5343296358686443  0.9278637232127096  1.0000
  C   C128      1.0  0.861258280316072  0.3935340212969719  0.46567008997566717  1.0000
  C   C129      1.0  0.861258349935845  0.07213670795511723  0.6064669159346252  1.0000
  C   C130      1.0  0.13874116957966717  0.4656719663196539  0.07213722738737963  1.0000
  C   C131      1.0  0.1387413512267486  0.6064660480621668  0.5343284072122856  1.0000
  C   C132      1.0  0.13874128160762916  0.9278626093001988  0.3935331306061725  1.0000
  C   C133      1.0  0.6233208305088167  0.5059763673609649  0.9339881025460386  1.0000
  C   C134      1.0  0.6233237840994972  0.42801239961867316  0.49402520967620944  1.0000
  C   C135      1.0  0.6233238298657467  0.06601226595746117  0.571986672827272  1.0000
  C   C136      1.0  0.37667567233527416  0.4940266608451011  0.06601381378073505  1.0000
  C   C137      1.0  0.3766748045433842  0.5719868108252083  0.5059733491789726  1.0000
  C   C138      1.0  0.3766768445774815  0.9339868828193971  0.42801274494370034  1.0000
  C   C139      1.0  0.7471287150003151  0.5360446283188833  0.9639813481724032  1.0000
  C   C140      1.0  0.7471295596505243  0.4279384310833335  0.463956819846473  1.0000
  C   C141      1.0  0.7471285758972072  0.03601878255322786  0.5720626421878592  1.0000
  C   C142      1.0  0.25287195944327573  0.4639580629303239  0.03601931061487559  1.0000
  C   C143      1.0  0.2528700718925024  0.5720611779846507  0.536042137632947  1.0000
  C   C144      1.0  0.25287105564616746  0.963980764847669  0.4279371742071945  1.0000
  O   O1        1.0  0.9148392605990594  0.6528842961397386  0.261061917040763  1.0000
  O   O2        1.0  0.9148392972005793  0.6081783185490862  0.34711642156587164  1.0000
  O   O3        1.0  0.9148393101772568  0.7389383580664627  0.39182271800590474  1.0000
  O   O4        1.0  0.08516037094431539  0.34711525126115816  0.7389378993542977  1.0000
  O   O5        1.0  0.0851603343432288  0.3918224247240401  0.6528845907016744  1.0000
  O   O6        1.0  0.0851603213663097  0.26106221672816327  0.6081776654917448  1.0000
  O   O7        1.0  0.6474136313092842  0.6746184680082334  0.27122481750920696  1.0000
  O   O8        1.0  0.6474126134000783  0.596607572227576  0.3253828879164543  1.0000
  O   O9        1.0  0.6474126398083798  0.7287755358650114  0.4033934593809362  1.0000
  O   O10       1.0  0.35258704313447  0.3253831341801572  0.7287761330911096  1.0000
  O   O11       1.0  0.3525870181432396  0.4033928340885564  0.6746168668112915  1.0000
  O   O12       1.0  0.352588034635346  0.27122394986884046  0.5966072159298292  1.0000
  O   O13       1.0  0.5851120276902647  0.3944696780492336  0.7367245017871086  1.0000
  O   O14       1.0  0.5851130195096134  0.3422545430671704  0.6055302607740671  1.0000
  O   O15       1.0  0.5851120008515949  0.26327571912721476  0.6577455056878208  1.0000
  O   O16       1.0  0.4148876038531951  0.6055311268909732  0.2632756515648039  1.0000
  O   O17       1.0  0.4148876549337642  0.6577450043337619  0.39446955562107167  1.0000
  O   O18       1.0  0.4148865877922177  0.736725024145869  0.34225550657965426  1.0000
  O   O19       1.0  0.8530841348440105  0.4051888885513008  0.7254169432609245  1.0000
  O   O20       1.0  0.8530840852856442  0.3202277099934605  0.5948109521046447  1.0000
  O   O21       1.0  0.8530851643813334  0.27458336717486986  0.6797724332908217  1.0000
  O   O22       1.0  0.14691445379951057  0.5948110574736418  0.27458327175821745  1.0000
  O   O23       1.0  0.14691450335777032  0.679772466177063  0.4051890327687673  1.0000
  O   O24       1.0  0.14691446716218337  0.7254165788501011  0.3202277817283985  1.0000
