data_image0
_chemical_formula_structural       Tl2P2H24C32N12O4
_chemical_formula_sum              "Tl2 P2 H24 C32 N12 O4"
_cell_length_a       8.26611629056389
_cell_length_b       8.560476834682701
_cell_length_c       13.756018092861263
_cell_angle_alpha    100.96520474565703
_cell_angle_beta     100.30089234445165
_cell_angle_gamma    95.58266282442975

_space_group_name_H-M_alt    "P 1"
_space_group_IT_number       1

loop_
  _space_group_symop_operation_xyz
  'x, y, z'

loop_
  _atom_site_type_symbol
  _atom_site_label
  _atom_site_symmetry_multiplicity
  _atom_site_fract_x
  _atom_site_fract_y
  _atom_site_fract_z
  _atom_site_occupancy
  Tl  Tl1       1.0  0.2831924186757178  0.9169771165003198  0.22483616647193833  1.0000
  Tl  Tl2       1.0  0.7168065125916739  0.08301847096588232  0.7751618503712479  1.0000
  P   P1        1.0  0.7437173991356046  0.867077445066798  0.16039576308859438  1.0000
  P   P2        1.0  0.2562908409062743  0.13292289585138664  0.8396045241488181  1.0000
  H   H1        1.0  0.9231685204417701  0.15692747123743087  0.516717240777858  1.0000
  H   H2        1.0  0.07683061569079537  0.8430776731871034  0.48327894745881383  1.0000
  H   H3        1.0  0.007495986193688997  0.9717443634221253  0.3510244504780147  1.0000
  H   H4        1.0  0.9925024441214276  0.0282559178462591  0.6489682146508713  1.0000
  H   H5        1.0  0.16347727487630692  0.23654131712495294  0.4263313262131305  1.0000
  H   H6        1.0  0.8365212856008667  0.7634519876346532  0.5736722137276615  1.0000
  H   H7        1.0  0.2485246532004197  0.41547667953416584  0.5986815979738438  1.0000
  H   H8        1.0  0.751476395718889  0.5845249180368056  0.40131804213373107  1.0000
  H   H9        1.0  0.548678096390276  0.4537177682019833  0.6855364266360269  1.0000
  H   H10       1.0  0.4513247172722216  0.54628740789569  0.31446307518206135  1.0000
  H   H11       1.0  0.7488325618723833  0.3149215401764068  0.5956582116096314  1.0000
  H   H12       1.0  0.251174984669511  0.685082412739256  0.40434239932289273  1.0000
  H   H13       1.0  0.633208252893283  0.0864837766991471  0.01599114306550581  1.0000
  H   H14       1.0  0.3667838614184689  0.9135238997158127  0.9840081926788927  1.0000
  H   H15       1.0  0.8764868192142642  0.3066169904587071  0.9895976582961198  1.0000
  H   H16       1.0  0.12351263783991585  0.6933822741489026  0.010404457808199739  1.0000
  H   H17       1.0  0.5844527307483743  0.2290050920423283  0.2119858104218082  1.0000
  H   H18       1.0  0.4155452878486656  0.7709846695602068  0.7880201864442  1.0000
  H   H19       1.0  0.6526757596744162  0.4857805381943764  0.15377996768921073  1.0000
  H   H20       1.0  0.3473231519233265  0.5142152130304537  0.8462260622706309  1.0000
  H   H21       1.0  0.41983084440383317  0.6063597955321143  0.0679381506444088  1.0000
  H   H22       1.0  0.5801756539412039  0.3936453526901076  0.9320617508944906  1.0000
  H   H23       1.0  0.1280227718479452  0.4640658296052679  0.04001113565771421  1.0000
  H   H24       1.0  0.8719891512879131  0.535925918960935  0.9599813337066935  1.0000
  C   C1        1.0  0.6733475353004934  0.11417670500055269  0.4104600244384287  1.0000
  C   C2        1.0  0.3266554264055657  0.8858213457168561  0.5895430675400634  1.0000
  C   C3        1.0  0.8443660191594659  0.10454665320202142  0.4436702818063765  1.0000
  C   C4        1.0  0.15563222218424502  0.8954525164873673  0.5563266018016151  1.0000
  C   C5        1.0  0.8903801444602236  0.011403370147448303  0.3621461604950937  1.0000
  C   C6        1.0  0.1096198687792835  0.9885993185200447  0.637847670962806  1.0000
  C   C7        1.0  0.29228596704476933  0.2547822928274642  0.46698786278464866  1.0000
  C   C8        1.0  0.7077159428881287  0.7452169829708097  0.5330159767305105  1.0000
  C   C9        1.0  0.339687082830089  0.3555769716844566  0.5626877229302352  1.0000
  C   C10       1.0  0.6603148360435611  0.644422229678071  0.43731247425917275  1.0000
  C   C11       1.0  0.5061801658258104  0.3765813386529048  0.6106870149617478  1.0000
  C   C12       1.0  0.4938175531078313  0.6234227034844437  0.38931325851375925  1.0000
  C   C13       1.0  0.6173053158588004  0.2977391004494764  0.5610128183396982  1.0000
  C   C14       1.0  0.38270048540996277  0.7022696895445293  0.4389888638246192  1.0000
  C   C15       1.0  0.5589742175452344  0.19735406006600442  0.4651594263818453  1.0000
  C   C16       1.0  0.4410301542071479  0.8026451524871804  0.5348424942184025  1.0000
  C   C17       1.0  0.7646615710479664  0.10996427338324821  0.04939119832557281  1.0000
  C   C18       1.0  0.23533369500694332  0.8900397575634431  0.9506073517391017  1.0000
  C   C19       1.0  0.8889241044865699  0.22041489460764302  0.03774845762772831  1.0000
  C   C20       1.0  0.11107711552264733  0.7795879634138104  0.9622542486522505  1.0000
  C   C21       1.0  0.036476325038250906  0.19257193575809592  0.0990826492842771  1.0000
  C   C22       1.0  0.9635222745786365  0.8074296208479198  0.9009138104821589  1.0000
  C   C23       1.0  0.4874316321040624  0.2862874484425006  0.17342211211901312  1.0000
  C   C24       1.0  0.5125692101619279  0.7137046070572881  0.8265800850602291  1.0000
  C   C25       1.0  0.5248416715362579  0.42815750586921564  0.1414406868137519  1.0000
  C   C26       1.0  0.4751565467610916  0.571833277989434  0.8585567207822464  1.0000
  C   C27       1.0  0.39392159036955826  0.49472097013454425  0.09287962256510701  1.0000
  C   C28       1.0  0.6060889225203852  0.5052781959595551  0.9071229642364997  1.0000
  C   C29       1.0  0.2332056892220322  0.41701595602332736  0.07845197028132841  1.0000
  C   C30       1.0  0.7668109683817761  0.5829831338373879  0.921549825791331  1.0000
  C   C31       1.0  0.20555375128515863  0.27505480218086137  0.11329014762169722  1.0000
  C   C32       1.0  0.7944458929522753  0.7249455888928935  0.8867084784686626  1.0000
  N   N1        1.0  0.7532930066157845  0.9703763273199261  0.28590486679060945  1.0000
  N   N2        1.0  0.2466998029841038  0.029627722210399596  0.7140934167935171  1.0000
  N   N3        1.0  0.6208326196557792  0.0334187060325917  0.31429005923598646  1.0000
  N   N4        1.0  0.37916035388141717  0.9665866634968125  0.6857142043811423  1.0000
  N   N5        1.0  0.3971153270586639  0.17553882194960832  0.41920483479279375  1.0000
  N   N6        1.0  0.6028834098728737  0.8244556985990386  0.5807995859249502  1.0000
  N   N7        1.0  0.8379417480802118  0.022350048924430203  0.11452330744171492  1.0000
  N   N8        1.0  0.16205702620288057  0.9776527383577687  0.8854747615668188  1.0000
  N   N9        1.0  0.003468914066694099  0.0727710583470156  0.1459311808426165  1.0000
  N   N10       1.0  0.9965291526108118  0.92722688066619  0.8540640935232844  1.0000
  N   N11       1.0  0.3326348583077062  0.21091269184412198  0.16022206398672986  1.0000
  N   N12       1.0  0.667358261684484  0.7890769878285014  0.8397775721969936  1.0000
  O   O1        1.0  0.5661317793904175  0.842164938413511  0.10884245015059693  1.0000
  O   O2        1.0  0.43385576081439575  0.15783674648030652  0.8911549958488578  1.0000
  O   O3        1.0  0.8587055673941321  0.7455533395798782  0.1688706048918931  1.0000
  O   O4        1.0  0.141273562401345  0.25444953682281124  0.8311224184117095  1.0000
