data_image0
_chemical_formula_structural       Nd2H20C14N6O28
_chemical_formula_sum              "Nd2 H20 C14 N6 O28"
_cell_length_a       6.6312233929346345
_cell_length_b       9.766049648303188
_cell_length_c       14.669208912801246
_cell_angle_alpha    72.19175221186593
_cell_angle_beta     90.44708051721982
_cell_angle_gamma    77.70816702003204

_space_group_name_H-M_alt    "P 1"
_space_group_IT_number       1

loop_
  _space_group_symop_operation_xyz
  'x, y, z'

loop_
  _atom_site_type_symbol
  _atom_site_label
  _atom_site_symmetry_multiplicity
  _atom_site_fract_x
  _atom_site_fract_y
  _atom_site_fract_z
  _atom_site_occupancy
  Nd  Nd1       1.0  0.6932849875963071  0.6694906702934134  0.6268562475286503  1.0000
  Nd  Nd2       1.0  0.3067215885840682  0.3304976865462165  0.37317365618008574  1.0000
  H   H1        1.0  0.7946968581849844  0.6532603020338499  0.8496752568150255  1.0000
  H   H2        1.0  0.20530823877481197  0.34673413540442505  0.1503302701645381  1.0000
  H   H3        1.0  0.7779533360687693  0.8156346672163437  0.7781752969715114  1.0000
  H   H4        1.0  0.2220434719650015  0.18437793742798897  0.2218055519937607  1.0000
  H   H5        1.0  0.1631181042370783  0.6734297815595198  0.5872122943094524  1.0000
  H   H6        1.0  0.8368762689393561  0.3265647106541181  0.4127898723277426  1.0000
  H   H7        1.0  0.045561447709204096  0.8319498483967747  0.582751339508846  1.0000
  H   H8        1.0  0.9544291314323485  0.16804687673677413  0.4172490439004903  1.0000
  H   H9        1.0  0.08803074353322415  0.4270968482928977  0.6059018376560062  1.0000
  H   H10       1.0  0.9119708298465524  0.5728844369777875  0.3941015310792295  1.0000
  H   H11       1.0  0.057407412727883356  0.38991799676988137  0.7180477488456134  1.0000
  H   H12       1.0  0.94258702907571  0.6100863241206581  0.2819572512304873  1.0000
  H   H13       1.0  0.7104107348073467  0.44227479387304675  0.8392636906414594  1.0000
  H   H14       1.0  0.2896038166529209  0.5577462341264479  0.16073449032826656  1.0000
  H   H15       1.0  0.6569924746622179  0.3685660284543956  0.7626036433021568  1.0000
  H   H16       1.0  0.34299710970753944  0.6314330356354743  0.23739082879878742  1.0000
  H   H17       1.0  0.27515418532075836  0.5303071700076815  0.7536492799617278  1.0000
  H   H18       1.0  0.7248481690548375  0.4696718745919382  0.24635589039939285  1.0000
  H   H19       1.0  0.3330019058998915  0.9090899346585886  0.8129454825088089  1.0000
  H   H20       1.0  0.6669698573149246  0.09093126329972989  0.1870413119327097  1.0000
  C   C1        1.0  0.27681166428672543  0.5832805109710931  0.8084748198528473  1.0000
  C   C2        1.0  0.7231668031702654  0.4167295896683284  0.19151685463752705  1.0000
  C   C3        1.0  0.24591147525468673  0.5159804694343036  0.9032223852663749  1.0000
  C   C4        1.0  0.7540340941217349  0.48403835256912237  0.09676911617152939  1.0000
  C   C5        1.0  0.2505580985720001  0.586172598701623  0.9770668695998026  1.0000
  C   C6        1.0  0.7494301335258766  0.4138397697378763  0.022922938871630535  1.0000
  C   C7        1.0  0.2773151388101594  0.7364047723196235  0.9365808202090307  1.0000
  C   C8        1.0  0.7227230446824605  0.26359329545307725  0.06341425833656442  1.0000
  C   C9        1.0  0.30974452650315243  0.7974061162413192  0.8416233743170379  1.0000
  C   C10       1.0  0.6902693362695089  0.20260184924611474  0.1583692052749228  1.0000
  C   C11       1.0  0.5905630966493972  0.5072500850114351  0.46704900051734904  1.0000
  C   C12       1.0  0.4094143473121291  0.49275532996419696  0.5329545149878214  1.0000
  C   C13       1.0  0.5635728384326626  0.028627420219002896  0.532458649721228  1.0000
  C   C14       1.0  0.43644199301963466  0.9713613202533506  0.467556129957579  1.0000
  N   N1        1.0  0.31711324022162296  0.7195155146688634  0.7788703621856712  1.0000
  N   N2        1.0  0.6828850441832869  0.2804891290850478  0.2211215962987723  1.0000
  N   N3        1.0  0.20979402701964736  0.3681515027865386  0.9242639213868175  1.0000
  N   N4        1.0  0.7901953937832359  0.6318628972482047  0.07573298057184985  1.0000
  N   N5        1.0  0.27453360722777376  0.8353486448981967  0.9942690912088848  1.0000
  N   N6        1.0  0.7254869322701653  0.16463039706568589  0.005738023605381705  1.0000
  O   O1        1.0  0.3639912208049339  0.7772433176168504  0.6894853157191037  1.0000
  O   O2        1.0  0.6360153929799993  0.2227635572998067  0.31050615583958324  1.0000
  O   O3        1.0  0.8064313973230315  0.7119073224195985  0.7824063952412814  1.0000
  O   O4        1.0  0.19354902404822377  0.28809811668806157  0.21759641691878784  1.0000
  O   O5        1.0  0.1697542249242473  0.3258909887712846  0.8554004616961349  1.0000
  O   O6        1.0  0.8302756779727429  0.6741191453523853  0.14459500971045003  1.0000
  O   O7        1.0  0.02416870891567403  0.7404370145294337  0.5748666623577847  1.0000
  O   O8        1.0  0.9758281586464219  0.25956218360443734  0.4251229691185188  1.0000
  O   O9        1.0  0.22175293934085974  0.28928735986932697  0.009337359926767926  1.0000
  O   O10       1.0  0.778270478352937  0.7107140504106794  0.9906544140240073  1.0000
  O   O11       1.0  0.9867795089884839  0.43912301943227317  0.6539270517388687  1.0000
  O   O12       1.0  0.013224981065917456  0.5608824980654461  0.34607492828997277  1.0000
  O   O13       1.0  0.22552611125647104  0.5265510281769747  0.06457344967141411  1.0000
  O   O14       1.0  0.7744839574813155  0.4734591702303703  0.9354173466926881  1.0000
  O   O15       1.0  0.6679517556494686  0.4624616918200458  0.7695753015046664  1.0000
  O   O16       1.0  0.3320254073336314  0.5375349329098355  0.23042790448408823  1.0000
  O   O17       1.0  0.3390925831466232  0.7786402237082442  0.08028530081860913  1.0000
  O   O18       1.0  0.6608962245014851  0.22136390149035629  0.9197272704714621  1.0000
  O   O19       1.0  0.2133152607682475  0.9694250873001878  0.9534151915105156  1.0000
  O   O20       1.0  0.786696326439788  0.030546609373999396  0.0465763750806403  1.0000
  O   O21       1.0  0.7292113147991586  0.566989201312488  0.48676577213873884  1.0000
  O   O22       1.0  0.2708096893047978  0.4329905678458914  0.5132568805926425  1.0000
  O   O23       1.0  0.5877550814302451  0.45618590946223486  0.3973249729910719  1.0000
  O   O24       1.0  0.4122615872932157  0.5438033793301854  0.6026671850358909  1.0000
  O   O25       1.0  0.6856324661757325  0.9320849497778739  0.5996321664230918  1.0000
  O   O26       1.0  0.3143702036008307  0.06791367027116729  0.4003820955512651  1.0000
  O   O27       1.0  0.5355723906769327  0.16683588061957264  0.5128555919509239  1.0000
  O   O28       1.0  0.4644250564916064  0.8331461529806459  0.4871619724042874  1.0000
