data_image0
_chemical_formula_structural       Zr6H40C88N2O36F10
_chemical_formula_sum              "Zr6 H40 C88 N2 O36 F10"
_cell_length_a       19.179796025958467
_cell_length_b       19.1463340227234
_cell_length_c       19.171320798195346
_cell_angle_alpha    59.67768752338446
_cell_angle_beta     59.90069433229398
_cell_angle_gamma    60.02951964205043

_space_group_name_H-M_alt    "P 1"
_space_group_IT_number       1

loop_
  _space_group_symop_operation_xyz
  'x, y, z'

loop_
  _atom_site_type_symbol
  _atom_site_label
  _atom_site_symmetry_multiplicity
  _atom_site_fract_x
  _atom_site_fract_y
  _atom_site_fract_z
  _atom_site_occupancy
  Zr  Zr1       1.0  0.906853360500051  0.4078401980410716  0.5921125661409051  1.0000
  Zr  Zr2       1.0  0.09319491315654452  0.591540025014794  0.4084345076142881  1.0000
  Zr  Zr3       1.0  0.09149408651597911  0.4061215101945237  0.5937827391724612  1.0000
  Zr  Zr4       1.0  0.908570611175236  0.5931812545456977  0.40671875652900985  1.0000
  Zr  Zr5       1.0  0.9078991985234666  0.5918096631716523  0.592340694745417  1.0000
  Zr  Zr6       1.0  0.09213444810482226  0.407632409429759  0.4081101037037769  1.0000
  H   H1        1.0  0.9263403514740886  0.42648512096964436  0.7187831503801548  1.0000
  H   H2        1.0  0.9283589871673995  0.7182058684285907  0.42710169295707356  1.0000
  H   H3        1.0  0.2176233449526422  0.4262858137685653  0.4286481407282777  1.0000
  H   H4        1.0  0.927429897944478  0.42806997495880234  0.4268585601414827  1.0000
  H   H5        1.0  0.45158416629111287  0.6141201229891563  0.048506814857702696  1.0000
  H   H6        1.0  0.5486534760681822  0.38535121386011884  0.9523150636386505  1.0000
  H   H7        1.0  0.6798124603689217  0.6096327511323449  0.8168038965640818  1.0000
  H   H8        1.0  0.5532295450837098  0.6123843563293005  0.9467623689463026  1.0000
  H   H9        1.0  0.31693989243687065  0.3934172463788316  0.18016202599650197  1.0000
  H   H10       1.0  0.446721878807942  0.38752969333000925  0.05344081669891665  1.0000
  H   H11       1.0  0.11353193057001228  0.9520699643529511  0.3853608539416627  1.0000
  H   H12       1.0  0.8856526670671129  0.04829074238004696  0.6141059215180249  1.0000
  H   H13       1.0  0.10946404213644459  0.1798509133748425  0.39359981784369324  1.0000
  H   H14       1.0  0.11218753189651665  0.0532576751502205  0.3875441020054283  1.0000
  H   H15       1.0  0.8936984265087562  0.8165170075371789  0.6098409069646992  1.0000
  H   H16       1.0  0.8874945445217934  0.9465967573014564  0.6124097538781186  1.0000
  H   H17       1.0  0.45106129428032926  0.04970739031563197  0.38579858086604457  1.0000
  H   H18       1.0  0.5497471547304116  0.9502842392611585  0.613870961589498  1.0000
  H   H19       1.0  0.6793929254311167  0.8186700630998656  0.39250080188780606  1.0000
  H   H20       1.0  0.5529692994930567  0.9480887626866451  0.3870327474543985  1.0000
  H   H21       1.0  0.31833494315517896  0.17848967229080853  0.609977305172855  1.0000
  H   H22       1.0  0.44831512890194614  0.05242161035950231  0.6120814824261631  1.0000
  H   H23       1.0  0.8862440827437439  0.6138228122608209  0.9504288621773259  1.0000
  H   H24       1.0  0.11357950990181104  0.38576419359163344  0.04985738263577126  1.0000
  H   H25       1.0  0.8932449811995157  0.6097345909023486  0.17888006833097586  1.0000
  H   H26       1.0  0.8873469951929069  0.6120582926909178  0.05263165365663985  1.0000
  H   H27       1.0  0.10953338939260257  0.39227483964890547  0.819025051734279  1.0000
  H   H28       1.0  0.11205972512264133  0.3869958265580491  0.9483321122534464  1.0000
  H   H29       1.0  0.11521119725912134  0.8200866428787634  0.17557578156418424  1.0000
  H   H30       1.0  0.1803634059492795  0.9325046704737546  0.06144676977095293  1.0000
  H   H31       1.0  0.8899874141342252  0.8191561887663781  0.18054858505265506  1.0000
  H   H32       1.0  0.8890522346450355  0.17494259876366383  0.8208179343866321  1.0000
  H   H33       1.0  0.8256279009748368  0.06074101289046027  0.9332249412033918  1.0000
  H   H34       1.0  0.11024579969267008  0.17989672976455753  0.8199097023998476  1.0000
  H   H35       1.0  0.4516184851357678  0.3845357480284406  0.6147743203371193  1.0000
  H   H36       1.0  0.5491963634842774  0.6144539048474799  0.38486950451755314  1.0000
  H   H37       1.0  0.6793514626844865  0.39385719905497024  0.6094260476898371  1.0000
  H   H38       1.0  0.5530419621723368  0.3872168080971718  0.612674119018699  1.0000
  H   H39       1.0  0.3172303543500307  0.6089189855564499  0.39435435721038203  1.0000
  H   H40       1.0  0.44694361366763513  0.61232599547629  0.38754612696321533  1.0000
  C   C1        1.0  0.7632269308378883  0.5000042892860603  0.732085441654604  1.0000
  C   C2        1.0  0.004682262396222561  0.7316137209160658  0.5004226823819239  1.0000
  C   C3        1.0  0.23238607937314984  0.5039938672032919  0.26389287130725586  1.0000
  C   C4        1.0  0.9997789286633818  0.26343215918633  0.5043467756350495  1.0000
  C   C5        1.0  0.0008990694146574685  0.26141866496668353  0.7342377782767074  1.0000
  C   C6        1.0  0.7634196019637898  0.505216543631782  0.4991505687903767  1.0000
  C   C7        1.0  0.00346475325059011  0.7335297353036835  0.26205611136729345  1.0000
  C   C8        1.0  0.2322178209786898  0.4985548647304724  0.5058072616422749  1.0000
  C   C9        1.0  8.707599393905923e-05  0.5025792326671946  0.7330959410842368  1.0000
  C   C10       1.0  0.23134072866402272  0.2621422652723098  0.5017946741499629  1.0000
  C   C11       1.0  0.004662925837571572  0.5013587628297814  0.2626404484393134  1.0000
  C   C12       1.0  0.7643052983244869  0.7326864510559404  0.5029707038492716  1.0000
  C   C13       1.0  0.310436967238239  0.5050417676706545  0.18637199024262685  1.0000
  C   C14       1.0  0.6861030802416581  0.49812345611177716  0.81054039506882  1.0000
  C   C15       1.0  0.35137361251852883  0.5659277416968322  0.14644107902334721  1.0000
  C   C16       1.0  0.4246076502462445  0.5641366132985937  0.07489986003318451  1.0000
  C   C17       1.0  0.6464446711043407  0.4359428721020818  0.8518332966300122  1.0000
  C   C18       1.0  0.5749377307308166  0.43606017116599793  0.9251127307983609  1.0000
  C   C19       1.0  0.6497024143905678  0.5609888556932532  0.8478630349740613  1.0000
  C   C20       1.0  0.5782678643502096  0.5619291032514013  0.9211560047643561  1.0000
  C   C21       1.0  0.3478359030030518  0.44125194296547937  0.14996281269770156  1.0000
  C   C22       1.0  0.42104473405839843  0.4385753237743371  0.07847314068946075  1.0000
  C   C23       1.0  0.4613117110050453  0.5003634673592287  0.03881860373514462  1.0000
  C   C24       1.0  0.538678332949388  0.4994509592793436  0.9615584032586214  1.0000
  C   C25       1.0  0.005165171319084943  0.8101929654828411  0.4983637105270944  1.0000
  C   C26       1.0  0.9981290277671775  0.18602985464303162  0.5052204647296464  1.0000
  C   C27       1.0  0.06567032366064034  0.8515179208163985  0.4361086775536194  1.0000
  C   C28       1.0  0.06375552446069588  0.924863237242057  0.4361216707682089  1.0000
  C   C29       1.0  0.9361792762300354  0.14615986156358907  0.5660327984885714  1.0000
  C   C30       1.0  0.9362341368105974  0.07468350479390302  0.5641632809084102  1.0000
  C   C31       1.0  0.060905078852471234  0.149671209757102  0.4413854867398541  1.0000
  C   C32       1.0  0.0618022520861103  0.07826173450400374  0.4386090223201862  1.0000
  C   C33       1.0  0.9413575154173515  0.8475986296643894  0.5611508009710561  1.0000
  C   C34       1.0  0.9385181053053914  0.9209650479956578  0.5619789680872175  1.0000
  C   C35       1.0  0.00016696142201034974  0.9613796440253922  0.49946263597002616  1.0000
  C   C36       1.0  0.9993746642074652  0.03863722211124097  0.5003646861876662  1.0000
  C   C37       1.0  0.3102305845822926  0.1855572415218629  0.4991998798149667  1.0000
  C   C38       1.0  0.6867283433630506  0.8106142408077941  0.5042346800336546  1.0000
  C   C39       1.0  0.35097695833663783  0.14661656745185067  0.43688049958576164  1.0000
  C   C40       1.0  0.4244043615050401  0.0754053810272879  0.4365546397239939  1.0000
  C   C41       1.0  0.6472715016299876  0.8508437824110047  0.5652800020818134  1.0000
  C   C42       1.0  0.5756940674377944  0.9239494414182091  0.5637693132038353  1.0000
  C   C43       1.0  0.6496938522013522  0.84874583112547  0.44060009844285747  1.0000
  C   C44       1.0  0.5781801824795137  0.9218696535177102  0.43818787569378503  1.0000
  C   C45       1.0  0.3486159674027647  0.1487899272482736  0.5614607957243791  1.0000
  C   C46       1.0  0.4220618178736615  0.07764951932787056  0.5619675816585428  1.0000
  C   C47       1.0  0.4617283190494206  0.038626596101522644  0.4995434960937575  1.0000
  C   C48       1.0  0.5390300259277723  0.9613753863587035  0.5001179161760234  1.0000
  C   C49       1.0  0.9985250427097302  0.503993589099181  0.8109267229975999  1.0000
  C   C50       1.0  0.005037123703473696  0.49892098774346755  0.1859338186240223  1.0000
  C   C51       1.0  0.9367244222555866  0.5651083409903277  0.8510748243715301  1.0000
  C   C52       1.0  0.9367198596045367  0.5636885101420077  0.9241318319164052  1.0000
  C   C53       1.0  0.06561136509662895  0.43670135934775095  0.14688438182952274  1.0000
  C   C54       1.0  0.06375381252482978  0.4364738398364878  0.07560722928738528  1.0000
  C   C55       1.0  0.9411978777504543  0.5612573218977911  0.1491330272290697  1.0000
  C   C56       1.0  0.938447503277949  0.5618831557752486  0.07789232802600325  1.0000
  C   C57       1.0  0.061071279034905494  0.4404096995172608  0.849055645298698  1.0000
  C   C58       1.0  0.061899914618550225  0.43809329825548093  0.9221183211491352  1.0000
  C   C59       1.0  0.9996169451164434  0.5000665405551743  0.9615648302677329  1.0000
  C   C60       1.0  0.0002367055289980255  0.49949393662344477  0.03882568667738436  1.0000
  C   C61       1.0  0.06557911113613801  0.8498117176289313  0.14728145087702404  1.0000
  C   C62       1.0  0.0649219171238684  0.924083282512221  0.07446866394067082  1.0000
  C   C63       1.0  0.129425948612308  0.961950816525139  0.035004197206525596  1.0000
  C   C64       1.0  0.9380253179494601  0.84966601489608  0.14942995730534378  1.0000
  C   C65       1.0  0.9345553014645206  0.9244210780702671  0.07716635432879576  1.0000
  C   C66       1.0  0.8720526070998108  0.9643197183197143  0.03579873659219153  1.0000
  C   C67       1.0  0.9372675972106492  0.14663585312732846  0.8505297009629588  1.0000
  C   C68       1.0  0.9364687593537865  0.07380162859687565  0.9247859454223006  1.0000
  C   C69       1.0  0.873584644655601  0.03429585073709499  0.9626461357194105  1.0000
  C   C70       1.0  0.0628057830929194  0.1487929045526996  0.850409363972105  1.0000
  C   C71       1.0  0.06379892873553658  0.07651734719691204  0.9251574810464264  1.0000
  C   C72       1.0  0.12778856662344404  0.0351246551724316  0.9650608331777731  1.0000
  C   C73       1.0  0.0027576859229581896  0.8128725527342056  0.18396823799171355  1.0000
  C   C74       1.0  0.9992503833726616  0.9626664636165003  0.038075213308935776  1.0000
  C   C75       1.0  0.00034476739308081145  0.1833233547232566  0.813592004920537  1.0000
  C   C76       1.0  0.9999679723525857  0.0374065500065156  0.9633648280769835  1.0000
  C   C77       1.0  0.31049700619769965  0.4969713509147197  0.5063624879881132  1.0000
  C   C78       1.0  0.686152487202719  0.5058694119525099  0.4974982369189648  1.0000
  C   C79       1.0  0.35152639664776325  0.43485735126098746  0.5670366433346388  1.0000
  C   C80       1.0  0.4247300574332868  0.4353365797026996  0.5648060850683337  1.0000
  C   C81       1.0  0.6466380032157204  0.5666094698391931  0.43532547438393715  1.0000
  C   C82       1.0  0.5751971568342711  0.5644562675762826  0.4357037170009192  1.0000
  C   C83       1.0  0.6494654008986133  0.441706304245308  0.5607224871488158  1.0000
  C   C84       1.0  0.5781447651171305  0.43862036847053787  0.5619255595535793  1.0000
  C   C85       1.0  0.3480523707913506  0.560244225077021  0.4421469657065984  1.0000
  C   C86       1.0  0.42124993996696947  0.5615410684726712  0.43898282891790796  1.0000
  C   C87       1.0  0.4614816003085026  0.49906075844493364  0.5007042507106902  1.0000
  C   C88       1.0  0.5387546533040606  0.5003859136650775  0.49939156804881435  1.0000
  N   N1        1.0  0.19546565718670184  0.07069063549815266  0.9320150721097917  1.0000
  N   N2        1.0  0.8018740096897756  0.9312112829690166  0.07147889331415054  1.0000
  O   O1        1.0  0.7941683762657875  0.44187495650416503  0.7001290020935542  1.0000
  O   O2        1.0  0.06387003823790145  0.6995549162006753  0.44237676236509316  1.0000
  O   O3        1.0  0.20109408934661127  0.5624116515707553  0.29558417085747374  1.0000
  O   O4        1.0  0.9410396650048368  0.29501081841895876  0.5628700637954936  1.0000
  O   O5        1.0  0.06046996538435682  0.29158852805546326  0.7039308744755175  1.0000
  O   O6        1.0  0.7953767141946457  0.5641107075168604  0.4404861847976704  1.0000
  O   O7        1.0  0.9440545716334937  0.7032101622150718  0.2921873093803243  1.0000
  O   O8        1.0  0.20008956644126397  0.4398416656365497  0.5646787639275175  1.0000
  O   O9        1.0  0.9420517211292034  0.561562813184487  0.7006878129523673  1.0000
  O   O10       1.0  0.19973939153204873  0.29432204475413926  0.4429888784037815  1.0000
  O   O11       1.0  0.06292673639422468  0.4425789734326885  0.29478195233089377  1.0000
  O   O12       1.0  0.7956731524199511  0.7002079544282721  0.5620446143246696  1.0000
  O   O13       1.0  0.20170670126037044  0.2908618190262189  0.562146324839766  1.0000
  O   O14       1.0  0.9451123494256493  0.5615721787409029  0.2915127154475242  1.0000
  O   O15       1.0  0.7946627370137873  0.7046767835786909  0.44193505435445257  1.0000
  O   O16       1.0  0.05875945090166816  0.4414989476056448  0.7051488124310056  1.0000
  O   O17       1.0  0.9413392056507631  0.2920093477794338  0.7044702977130585  1.0000
  O   O18       1.0  0.20358949093498066  0.5583479628423618  0.44516147943416934  1.0000
  O   O19       1.0  0.06218144568256181  0.7038005427893808  0.2926512624623428  1.0000
  O   O20       1.0  0.7929273299439146  0.44451799432476946  0.5589054911276962  1.0000
  O   O21       1.0  0.059336487715739815  0.293362394018402  0.44406270734412356  1.0000
  O   O22       1.0  0.7935454739806929  0.5591832249428279  0.7032109185668887  1.0000
  O   O23       1.0  0.9440753814375853  0.7027399369929626  0.5596429022325682  1.0000
  O   O24       1.0  0.20322790114422434  0.443673475404644  0.29381924462470016  1.0000
  O   O25       1.0  0.9479973112024922  0.4486704174451434  0.44756084898624954  1.0000
  O   O26       1.0  0.155751427940011  0.4469911574804826  0.44924922506882586  1.0000
  O   O27       1.0  0.9490829571205596  0.6560919229445685  0.4473379164551546  1.0000
  O   O28       1.0  0.9474802442396139  0.44674411424782795  0.6566674186615131  1.0000
  O   O29       1.0  0.0383559288228952  0.5370652672161924  0.5390447208095069  1.0000
  O   O30       1.0  0.8854986463479406  0.538461640453619  0.5376536396740619  1.0000
  O   O31       1.0  0.0387446673868934  0.5386009443800504  0.38509546178405424  1.0000
  O   O32       1.0  0.03754934157520754  0.384544139002351  0.5391390329727273  1.0000
  O   O33       1.0  0.1755861662506817  0.1497778428015408  0.9072383146175582  1.0000
  O   O34       1.0  0.2678987784956418  0.019065736781904288  0.9325609284879164  1.0000
  O   O35       1.0  0.7673024471211108  0.9067665884982432  0.15055900909649733  1.0000
  O   O36       1.0  0.7806909223928359  0.9313677408795723  0.01995277212263598  1.0000
  F   F1        1.0  0.320934036356597  0.6303138910402026  0.17620209000582304  1.0000
  F   F2        1.0  0.6765448609615065  0.37180820070675935  0.8218469582437323  1.0000
  F   F3        1.0  0.12967659442306  0.8214890563319983  0.37199834595708126  1.0000
  F   F4        1.0  0.8724878639518753  0.17590100187733543  0.6304234174911515  1.0000
  F   F5        1.0  0.32014251114324577  0.17698740940546995  0.3732057294748472  1.0000
  F   F6        1.0  0.6776631226591404  0.8199468967000314  0.6294351391266703  1.0000
  F   F7        1.0  0.8730926572826476  0.6292371578695536  0.8201470837173659  1.0000
  F   F8        1.0  0.12977176129084714  0.37302609074782817  0.17723360142083777  1.0000
  F   F9        1.0  0.32120003713954043  0.3705467086725989  0.6315615885219686  1.0000
  F   F10       1.0  0.6768436241581027  0.631093037402948  0.3710469767273494  1.0000
