data_image0
_chemical_formula_structural       Ho4H36C24O24
_chemical_formula_sum              "Ho4 H36 C24 O24"
_cell_length_a       7.864728630672504
_cell_length_b       8.066790219689167
_cell_length_c       15.413497979789843
_cell_angle_alpha    104.47521438234509
_cell_angle_beta     104.04591393143664
_cell_angle_gamma    92.76466055883618

_space_group_name_H-M_alt    "P 1"
_space_group_IT_number       1

loop_
  _space_group_symop_operation_xyz
  'x, y, z'

loop_
  _atom_site_type_symbol
  _atom_site_label
  _atom_site_symmetry_multiplicity
  _atom_site_fract_x
  _atom_site_fract_y
  _atom_site_fract_z
  _atom_site_occupancy
  Ho  Ho1       1.0  0.37881521463536677  0.628817839960881  0.2575251383153727  1.0000
  Ho  Ho2       1.0  0.6211835283847905  0.37118355224608013  0.7424746379306058  1.0000
  Ho  Ho3       1.0  0.8732771428376653  0.623038843442096  0.24635095188172335  1.0000
  Ho  Ho4       1.0  0.1267227843453043  0.3769612414138307  0.7536526887302697  1.0000
  H   H1        1.0  0.6997302078101839  0.17068701825759555  0.2373255100697804  1.0000
  H   H2        1.0  0.03874726700684761  0.0666913539710947  0.23746445108324818  1.0000
  H   H3        1.0  0.3002741317898625  0.8293066173883972  0.7626732751409832  1.0000
  H   H4        1.0  0.9612441031347885  0.9333036317167043  0.7625296897608891  1.0000
  H   H5        1.0  0.5646412339418135  0.12036536967042369  0.309613892310594  1.0000
  H   H6        1.0  0.24599683052467472  0.18989754778628753  0.3098000151277347  1.0000
  H   H7        1.0  0.43536938812208353  0.879625642993069  0.6903911505738733  1.0000
  H   H8        1.0  0.7540047334852036  0.8100845099472523  0.6901917143245626  1.0000
  H   H9        1.0  0.48741443406075297  0.0505068298729938  0.1868943391233557  1.0000
  H   H10       1.0  0.20039412583578556  0.13682106478125178  0.1870633428010606  1.0000
  H   H11       1.0  0.5125909101909515  0.9494842183741169  0.8131055245557733  1.0000
  H   H12       1.0  0.7995965905825603  0.8631687739409556  0.8129274442158588  1.0000
  H   H13       1.0  0.7364593113876408  0.27758532639549566  0.4554412527238654  1.0000
  H   H14       1.0  0.21908216478342277  0.17810930619240387  0.45547873220047547  1.0000
  H   H15       1.0  0.26353309294005106  0.7224173574288172  0.5445644103305938  1.0000
  H   H16       1.0  0.7809157584563523  0.8218959512300897  0.5445234006217419  1.0000
  H   H17       1.0  0.6404517431398346  0.4448531590679821  0.5195317759934851  1.0000
  H   H18       1.0  0.3792497971172822  0.0751509000955153  0.5196044110190811  1.0000
  H   H19       1.0  0.3595517686934571  0.5551546429472439  0.4804752655068398  1.0000
  H   H20       1.0  0.6207516678919379  0.924862092335779  0.4803959295158791  1.0000
  H   H21       1.0  0.8721971987870634  0.46772740883095315  0.525589752146189  1.0000
  H   H22       1.0  0.15355355087049827  0.058361126399596196  0.5256536273075483  1.0000
  H   H23       1.0  0.12779924558891761  0.5322765690726569  0.4744107342781021  1.0000
  H   H24       1.0  0.8464566425972395  0.9416479507875196  0.4743511517387519  1.0000
  H   H25       1.0  0.4145250514401583  0.12368189292119067  0.02070211631000519  1.0000
  H   H26       1.0  0.10603338952031287  0.8972947306072994  0.021202888321646192  1.0000
  H   H27       1.0  0.585480740223126  0.8763130333996187  0.9792950695639461  1.0000
  H   H28       1.0  0.8939637594462227  0.10270407525869271  0.9788002453921435  1.0000
  H   H29       1.0  0.6429218428620376  0.21574607800740608  0.056523800418069904  1.0000
  H   H30       1.0  0.9135608628551212  0.8406691458716437  0.056949491504752835  1.0000
  H   H31       1.0  0.3570808303766881  0.7842552992255705  0.9434764522104329  1.0000
  H   H32       1.0  0.086434271448006  0.1593348370232874  0.9430508361253658  1.0000
  H   H33       1.0  0.48516371331513863  0.288834879348201  0.9754603268197568  1.0000
  H   H34       1.0  0.9901646703602794  0.6867558991475419  0.975667002005558  1.0000
  H   H35       1.0  0.514842903488649  0.7111561795259008  0.02453515162489596  1.0000
  H   H36       1.0  0.009821266632286597  0.31324812984262707  0.024328968330593205  1.0000
  C   C1        1.0  0.6812198989384797  0.9075324913146757  0.24158876396365508  1.0000
  C   C2        1.0  0.0608210390769344  0.3341103520889064  0.24171106758304006  1.0000
  C   C3        1.0  0.3187955535272879  0.0924662602910402  0.758412048839922  1.0000
  C   C4        1.0  0.9391757937481701  0.6658858758319114  0.7582916875110329  1.0000
  C   C5        1.0  0.6056687515733756  0.07492884004738436  0.24560660748357316  1.0000
  C   C6        1.0  0.14087971989865625  0.17098764196725105  0.2457803456917347  1.0000
  C   C7        1.0  0.3943383501627766  0.9250660812821039  0.7543907371845505  1.0000
  C   C8        1.0  0.8591167163833691  0.8290060414762124  0.7542122935783979  1.0000
  C   C9        1.0  0.7013227854041517  0.48898514427129686  0.396915491845057  1.0000
  C   C10       1.0  0.19561676685015073  0.9081064659973136  0.3969870310702106  1.0000
  C   C11       1.0  0.2986697314871023  0.511029145297634  0.6030917162039272  1.0000
  C   C12       1.0  0.8043851777313267  0.09191039112054969  0.6030145265412655  1.0000
  C   C13       1.0  0.7395873199061856  0.41840191904483964  0.4803128190185575  1.0000
  C   C14       1.0  0.2408693188265545  0.0622634776991831  0.4803902573916473  1.0000
  C   C15       1.0  0.26040784119749116  0.5816020526941584  0.519690754346307  1.0000
  C   C16       1.0  0.7591352967678877  0.9377430504328218  0.5196109112704548  1.0000
  C   C17       1.0  0.46930038799902  0.3763047149460378  0.1151821380627425  1.0000
  C   C18       1.0  0.14595676856428952  0.7387709942031365  0.11534346782850241  1.0000
  C   C19       1.0  0.5307030996599807  0.6236927993026027  0.8848151088425666  1.0000
  C   C20       1.0  0.8540315393801594  0.26122012116243093  0.8846536823794081  1.0000
  C   C21       1.0  0.5050818143328614  0.2414208092684902  0.03775473047139852  1.0000
  C   C22       1.0  0.032584005296435216  0.7963682653905196  0.03806536402118613  1.0000
  C   C23       1.0  0.4949228146080601  0.75857541547861  0.962241187624329  1.0000
  C   C24       1.0  0.9674095027923999  0.20363314455057244  0.9619344261950502  1.0000
  O   O1        1.0  0.6418737910133601  0.8091009093985804  0.2904022509855224  1.0000
  O   O2        1.0  0.1486914607479974  0.48162226998054075  0.290552336149716  1.0000
  O   O3        1.0  0.3581451067386112  0.19089396477776427  0.7095971719771155  1.0000
  O   O4        1.0  0.8513179557126522  0.5183700589587374  0.7094462457809385  1.0000
  O   O5        1.0  0.7842904837786621  0.8599266459793568  0.190482723711014  1.0000
  O   O6        1.0  0.906630719148254  0.33019530272574826  0.19050332470568784  1.0000
  O   O7        1.0  0.21572071696699177  0.14006954488635162  0.809516584943381  1.0000
  O   O8        1.0  0.09336695763152392  0.6698073477461293  0.8095068684071549  1.0000
  O   O9        1.0  0.5420164033542605  0.5114958921982761  0.3618439499913677  1.0000
  O   O10       1.0  0.3197162664259921  0.8505503947005763  0.3617993334396559  1.0000
  O   O11       1.0  0.4579758321824914  0.48850550711583196  0.6381602254593304  1.0000
  O   O12       1.0  0.6802771425545941  0.14946135432440846  0.6381953209917555  1.0000
  O   O13       1.0  0.8284056252515202  0.5196829287810373  0.36343713645504744  1.0000
  O   O14       1.0  0.035029303982298574  0.8436940633532968  0.3636453555288455  1.0000
  O   O15       1.0  0.17158916884347525  0.48032878401599527  0.636566764827826  1.0000
  O   O16       1.0  0.9649726137973718  0.15631115232095988  0.6363650434392837  1.0000
  O   O17       1.0  0.32206066663187755  0.37048580395542535  0.1352014498837733  1.0000
  O   O18       1.0  0.31321742989052137  0.7649334910492981  0.1354246072826939  1.0000
  O   O19       1.0  0.6779416529446536  0.6295130109506957  0.8647938800963714  1.0000
  O   O20       1.0  0.6867723515576076  0.23505890606634233  0.8645735401761954  1.0000
  O   O21       1.0  0.588338550866297  0.5045820179274542  0.16201953822576337  1.0000
  O   O22       1.0  0.0739043560800354  0.656850622211408  0.16198425253521256  1.0000
  O   O23       1.0  0.4116604600542929  0.4954219723053724  0.8379747743173879  1.0000
  O   O24       1.0  0.9260831507906175  0.34313405275359793  0.8380106528295241  1.0000
