data_image0
_chemical_formula_structural       Er2H24C22O16
_chemical_formula_sum              "Er2 H24 C22 O16"
_cell_length_a       6.704243940945637
_cell_length_b       9.950206911398933
_cell_length_c       10.475974539122742
_cell_angle_alpha    93.58861728100149
_cell_angle_beta     107.61585918421095
_cell_angle_gamma    108.56999058935959

_space_group_name_H-M_alt    "P 1"
_space_group_IT_number       1

loop_
  _space_group_symop_operation_xyz
  'x, y, z'

loop_
  _atom_site_type_symbol
  _atom_site_label
  _atom_site_symmetry_multiplicity
  _atom_site_fract_x
  _atom_site_fract_y
  _atom_site_fract_z
  _atom_site_occupancy
  Er  Er1       1.0  0.7608763377807791  0.585072216072632  0.42241046848249647  1.0000
  Er  Er2       1.0  0.23912155863373394  0.41492246935669636  0.5775849919830093  1.0000
  H   H1        1.0  0.5937320937384741  0.6721187938814096  0.045613992179532686  1.0000
  H   H2        1.0  0.40626503628234184  0.3278802246092382  0.9543853656762877  1.0000
  H   H3        1.0  0.594256784880848  0.9508851487863124  0.7468007907257785  1.0000
  H   H4        1.0  0.4057518965195968  0.04911494078533708  0.2531999344485314  1.0000
  H   H5        1.0  0.8020848910004118  0.16351317316068756  0.9317079624857952  1.0000
  H   H6        1.0  0.19791908991426516  0.8364869288523095  0.0682937507614483  1.0000
  H   H7        1.0  0.9178227321233051  0.13134369362185788  0.17325098077944284  1.0000
  H   H8        1.0  0.08217849375529344  0.8686542606652666  0.8267510331286233  1.0000
  H   H9        1.0  0.9703128571601027  0.3453516743912885  0.8087972295206356  1.0000
  H   H10       1.0  0.029684682777549615  0.6546538563611505  0.1912101900881282  1.0000
  H   H11       1.0  0.6998914981400474  0.3363407817408515  0.8117337434720184  1.0000
  H   H12       1.0  0.3001044960174966  0.6636647048100882  0.1882666885472162  1.0000
  H   H13       1.0  0.8653481598092511  0.5917250936212426  0.9327722590171278  1.0000
  H   H14       1.0  0.1346431338625251  0.40828040537103755  0.06722916107503352  1.0000
  H   H15       1.0  0.13218814040050125  0.6026255722718259  0.9262366592415604  1.0000
  H   H16       1.0  0.8678059000709978  0.3973820933653441  0.07376732334302717  1.0000
  H   H17       1.0  0.6355089846046268  0.7398889579397474  0.6096180919416411  1.0000
  H   H18       1.0  0.3644959731530761  0.26011005453013064  0.390381846022926  1.0000
  H   H19       1.0  0.24169886223521087  0.7654665298455539  0.5570577572885114  1.0000
  H   H20       1.0  0.7583029655259209  0.2345324825100973  0.4429415668787939  1.0000
  H   H21       1.0  0.8610979994781046  0.8620394518610365  0.6075529590630921  1.0000
  H   H22       1.0  0.13890480238058697  0.1379584772578397  0.39244554420594824  1.0000
  H   H23       1.0  0.10789034708361102  0.8618751079839838  0.4627625045643883  1.0000
  H   H24       1.0  0.8921130484212582  0.13812389812243708  0.5372361721171259  1.0000
  C   C1        1.0  0.8349444504547563  0.8722710849717714  0.2672005186390365  1.0000
  C   C2        1.0  0.1650552159164604  0.1277268566455589  0.732799279601565  1.0000
  C   C3        1.0  0.7616546358870906  0.8994568731569215  0.12457482134025355  1.0000
  C   C4        1.0  0.2383458428159812  0.10054537004715057  0.8754244092672323  1.0000
  C   C5        1.0  0.6395767205960609  0.7799643264258548  0.020657159841846406  1.0000
  C   C6        1.0  0.3604292085137502  0.2200336091135924  0.9793429116088674  1.0000
  C   C7        1.0  0.5803394964181121  0.7976278141658991  0.8845910653585562  1.0000
  C   C8        1.0  0.4196585994639079  0.20237014000699818  0.1154103347522479  1.0000
  C   C9        1.0  0.6390672246146919  0.9365507602920214  0.8527225723640797  1.0000
  C   C10       1.0  0.36093988904201507  0.06344933552885829  0.1472788002960144  1.0000
  C   C11       1.0  0.757391132988232  0.0559786531441731  0.956702657823442  1.0000
  C   C12       1.0  0.2426132366142042  0.9440192697254728  0.04329519795981443  1.0000
  C   C13       1.0  0.8212972420802485  0.038068451733686  0.09216492036290445  1.0000
  C   C14       1.0  0.17870123425316825  0.9619273422148851  0.9078354854371539  1.0000
  C   C15       1.0  0.4598253150983778  0.6671523263445989  0.77761234303442  1.0000
  C   C16       1.0  0.5401780749155803  0.33284669237450965  0.22238824241593141  1.0000
  C   C17       1.0  0.8140915391947843  0.46256732938346806  0.6754825366933588  1.0000
  C   C18       1.0  0.18590775221594674  0.5374327598455011  0.3245163470891583  1.0000
  C   C19       1.0  0.8607001039150433  0.40755616803807737  0.8081568581044324  1.0000
  C   C20       1.0  0.13929804614150507  0.5924504018638643  0.19184500861032217  1.0000
  C   C21       1.0  0.9750936352571601  0.5294788855029181  0.933316171287352  1.0000
  C   C22       1.0  0.02490354070182117  0.4705287676357982  0.0666865163256745  1.0000
  O   O1        1.0  0.7236334573664321  0.7507670614452023  0.2888402503631299  1.0000
  O   O2        1.0  0.2763652349072174  0.24923196340890288  0.7111603687757437  1.0000
  O   O3        1.0  0.006532616919820306  0.9645941258501339  0.357128808790428  1.0000
  O   O4        1.0  0.9934666772363698  0.03540595707249851  0.642869120607685  1.0000
  O   O5        1.0  0.4105652316621755  0.5427284681755677  0.8082873885151471  1.0000
  O   O6        1.0  0.5894371924905785  0.4572716148612839  0.19171115468022043  1.0000
  O   O7        1.0  0.4079323397606842  0.6801675185848096  0.6500699862029293  1.0000
  O   O8        1.0  0.5920710475078224  0.31983150644063574  0.3499315536318335  1.0000
  O   O9        1.0  0.621294730839594  0.4660119503347245  0.6120978693799799  1.0000
  O   O10       1.0  0.3787021887318999  0.5339838246377154  0.38789936636819516  1.0000
  O   O11       1.0  0.9687343682355872  0.5100069205019223  0.6237220066677339  1.0000
  O   O12       1.0  0.03126627223319637  0.4899899378786328  0.37627697067460275  1.0000
  O   O13       1.0  0.7721776886364823  0.7563801626632126  0.5848034814696135  1.0000
  O   O14       1.0  0.2278239259298686  0.24361561248056762  0.4151946749744653  1.0000
  O   O15       1.0  0.11023980074871527  0.7651963952804903  0.48180903631332944  1.0000
  O   O16       1.0  0.8897620297578682  0.23480261076881698  0.5181893334695573  1.0000
