data_image0
_chemical_formula_structural       H18Pb4C30N2O20
_chemical_formula_sum              "H18 Pb4 C30 N2 O20"
_cell_length_a       8.145423134892168
_cell_length_b       10.185396284277756
_cell_length_c       10.337180385419096
_cell_angle_alpha    92.44308103735487
_cell_angle_beta     106.99118096848468
_cell_angle_gamma    97.74717455510725

_space_group_name_H-M_alt    "P 1"
_space_group_IT_number       1

loop_
  _space_group_symop_operation_xyz
  'x, y, z'

loop_
  _atom_site_type_symbol
  _atom_site_label
  _atom_site_symmetry_multiplicity
  _atom_site_fract_x
  _atom_site_fract_y
  _atom_site_fract_z
  _atom_site_occupancy
  H   H1        1.0  0.08950500447828345  0.7575375976162492  0.4141559540352802  1.0000
  H   H2        1.0  0.9105111564907843  0.24243322293290254  0.5858540272140402  1.0000
  H   H3        1.0  0.1393720962818534  0.3449959125179874  0.36275051284620474  1.0000
  H   H4        1.0  0.8606480575281381  0.6549747789841548  0.6372284707817429  1.0000
  H   H5        1.0  0.8067975368578074  0.8462144212858007  0.7583681014349964  1.0000
  H   H6        1.0  0.19320004063004592  0.1537841556403237  0.2416076353297498  1.0000
  H   H7        1.0  0.17002754108272455  0.13756495265409543  0.6440537980644976  1.0000
  H   H8        1.0  0.8299537008578496  0.8624805504323024  0.3559585940197749  1.0000
  H   H9        1.0  0.869721069007383  0.9997767999050565  0.5870556352807412  1.0000
  H   H10       1.0  0.1302664471726516  0.0002487543215182  0.41294585918083737  1.0000
  H   H11       1.0  0.4851112883103923  0.5924272851389177  0.7064932771108945  1.0000
  H   H12       1.0  0.5148852464612688  0.40752264911873937  0.2935065017013088  1.0000
  H   H13       1.0  0.34337143520702534  0.9612826354784546  0.0016120339390824027  1.0000
  H   H14       1.0  0.6565995222676833  0.038762894986518914  0.9984018299276871  1.0000
  H   H15       1.0  0.5386400935039007  0.7325068087216312  0.03756397876944113  1.0000
  H   H16       1.0  0.46137348974875886  0.26750181385040156  0.9624458594476623  1.0000
  H   H17       1.0  0.4691681389942488  0.7172915694845089  0.8794246708045608  1.0000
  H   H18       1.0  0.5308417919854947  0.2827180560348311  0.12058532074575369  1.0000
  Pb  Pb1       1.0  0.741802428814701  0.5132632536272156  0.9562842585539502  1.0000
  Pb  Pb2       1.0  0.25822659410496834  0.4867453165645585  0.04372047239863968  1.0000
  Pb  Pb3       1.0  0.5880918924942833  0.11813146914597891  0.6938995555867962  1.0000
  Pb  Pb4       1.0  0.41190152881686265  0.8818662083242546  0.3060983953471492  1.0000
  C   C1        1.0  0.29543952214922337  0.6899764271034031  0.5698225815324633  1.0000
  C   C2        1.0  0.7045702304809963  0.30999439358878084  0.43018397019478277  1.0000
  C   C3        1.0  0.15436663412435783  0.6736592594701349  0.45090334761441403  1.0000
  C   C4        1.0  0.8456493548634538  0.32631054011771  0.5490997832432285  1.0000
  C   C5        1.0  0.31582163355157883  0.45541742068631674  0.5438357671255292  1.0000
  C   C6        1.0  0.6841871200541972  0.5445543244634337  0.4561522059145275  1.0000
  C   C7        1.0  0.3767304541518044  0.8246476308144256  0.6401029389888819  1.0000
  C   C8        1.0  0.6232623248334336  0.17532819930661256  0.3599037121665277  1.0000
  C   C9        1.0  0.18070087150574918  0.44107352070064815  0.4219660121581441  1.0000
  C   C10       1.0  0.8193179686482138  0.5588971987339877  0.578019437889246  1.0000
  C   C11       1.0  0.4055108566611167  0.3411907672703479  0.596009340816302  1.0000
  C   C12       1.0  0.5944999936259164  0.6587849508346652  0.40397830370545057  1.0000
  C   C13       1.0  0.09934839861858788  0.550163191723307  0.37569434084782943  1.0000
  C   C14       1.0  0.9006735718229776  0.4498105460426558  0.6243016271264423  1.0000
  C   C15       1.0  0.9346254688657891  0.9047418496812158  0.775509526648932  1.0000
  C   C16       1.0  0.06536432280888958  0.09527570570067923  0.22448252294779544  1.0000
  C   C17       1.0  0.06783383371647031  0.8921784876023583  0.8935014702015636  1.0000
  C   C18       1.0  0.9321484702762604  0.10785304924489485  0.10650096893840555  1.0000
  C   C19       1.0  0.9631690361890718  0.5380160752208383  0.24073751719206632  1.0000
  C   C20       1.0  0.03685141073334818  0.4619755972717812  0.7592655435630746  1.0000
  C   C21       1.0  0.13128108032938002  0.06689600384321892  0.7096799630150414  1.0000
  C   C22       1.0  0.8687026177325664  0.9331425138182116  0.29032790153554805  1.0000
  C   C23       1.0  0.9688314613073742  0.9908020350699194  0.6820845087598216  1.0000
  C   C24       1.0  0.031156863834326  0.00922749741963  0.3179173244213871  1.0000
  C   C25       1.0  0.37358066905594717  0.5802731108768314  0.6159063813940335  1.0000
  C   C26       1.0  0.6264222837228033  0.4196957095145208  0.38409367186056903  1.0000
  C   C27       1.0  0.23043365411629682  0.9673126221190745  0.9156068193485467  1.0000
  C   C28       1.0  0.7695440271194229  0.0327278961292663  0.08440068463054469  1.0000
  C   C29       1.0  0.036512691578813886  0.7934676741197251  0.9924429665728667  1.0000
  C   C30       1.0  0.9634768019646529  0.20655487825258237  0.0075550063126072434  1.0000
  N   N1        1.0  0.2577296918687678  0.0541885288370878  0.8256955214632029  1.0000
  N   N2        1.0  0.742254493596597  0.9458459977120552  0.17430940406930517  1.0000
  O   O1        1.0  0.41437589219468407  0.12775786782442117  0.8521981942567793  1.0000
  O   O2        1.0  0.5856135141034642  0.8722706685624573  0.14780385353683556  1.0000
  O   O3        1.0  0.9870720390261737  0.4617821256396085  0.1463083821236779  1.0000
  O   O4        1.0  0.0129474409443091  0.5382234301346642  0.8536833679102216  1.0000
  O   O5        1.0  0.35362386700327153  0.924200658276533  0.5668562548659112  1.0000
  O   O6        1.0  0.6463488434218619  0.0757712241770037  0.43314750124565654  1.0000
  O   O7        1.0  0.4690532747568099  0.8366459482608947  0.7630586659818306  1.0000
  O   O8        1.0  0.5309297478839666  0.16333886940893194  0.23695185284344694  1.0000
  O   O9        1.0  0.5385344279898304  0.3623924289831849  0.7012995556131756  1.0000
  O   O10       1.0  0.4614901343913047  0.6375871916828262  0.2986759560673207  1.0000
  O   O11       1.0  0.8779794425063087  0.7491944899223242  0.9763790308109109  1.0000
  O   O12       1.0  0.12200894645368268  0.2508160921869802  0.023609526435699  1.0000
  O   O13       1.0  0.8358809300238973  0.600276880566952  0.2206860842232033  1.0000
  O   O14       1.0  0.16414392193750868  0.3997178162616636  0.779329726811625  1.0000
  O   O15       1.0  0.167469459619241  0.7619786858398713  0.08011023060297623  1.0000
  O   O16       1.0  0.8325208472086274  0.23804784102461704  0.9198871144718765  1.0000
  O   O17       1.0  0.3484433212587845  0.2253912169729589  0.5331916480614397  1.0000
  O   O18       1.0  0.6515544763188287  0.7745776284200688  0.4668120406751655  1.0000
  O   O19       1.0  0.48994846364088573  0.6629371776923068  0.9596434979828248  1.0000
  O   O20       1.0  0.5100636253290176  0.3370704593924927  0.040367889322553155  1.0000
