data_image0
_chemical_formula_structural       Hg2H36C40I4N8O4
_chemical_formula_sum              "Hg2 H36 C40 I4 N8 O4"
_cell_length_a       9.499265070257808
_cell_length_b       11.502559659621658
_cell_length_c       11.502512209650577
_cell_angle_alpha    103.95112204329558
_cell_angle_beta     95.37736770696148
_cell_angle_gamma    95.37808618186645

_space_group_name_H-M_alt    "P 1"
_space_group_IT_number       1

loop_
  _space_group_symop_operation_xyz
  'x, y, z'

loop_
  _atom_site_type_symbol
  _atom_site_label
  _atom_site_symmetry_multiplicity
  _atom_site_fract_x
  _atom_site_fract_y
  _atom_site_fract_z
  _atom_site_occupancy
  Hg  Hg1       1.0  0.15151142582337943  0.8129443142798609  0.1332397890058275  1.0000
  Hg  Hg2       1.0  0.6515116364643633  0.1332368856885964  0.8129456340931399  1.0000
  H   H1        1.0  0.979610571503919  0.2679083128624953  0.2951811727293148  1.0000
  H   H2        1.0  0.47960944100269387  0.2951774764325208  0.267907515713361  1.0000
  H   H3        1.0  0.7220624027425089  0.6802763790670953  0.7328968650531922  1.0000
  H   H4        1.0  0.2220473758675752  0.7328939827729503  0.6802722565054753  1.0000
  H   H5        1.0  0.8547397012066753  0.7622300062092078  0.2504254546652049  1.0000
  H   H6        1.0  0.3547436750489937  0.2504297028937473  0.762226411608225  1.0000
  H   H7        1.0  0.6623109752327281  0.8703894392081183  0.3508036304950367  1.0000
  H   H8        1.0  0.1623165696858563  0.3508080014076995  0.8703906318805538  1.0000
  H   H9        1.0  0.6728658669190324  0.0933034947671487  0.3789308055585466  1.0000
  H   H10       1.0  0.1728692800651714  0.3789299149640044  0.09330471584521399  1.0000
  H   H11       1.0  0.05280613869678061  0.0812566307006861  0.20062052258435872  1.0000
  H   H12       1.0  0.5528037418561311  0.20061613485190577  0.08124886704172951  1.0000
  H   H13       1.0  0.8811890212700887  0.4770872394685526  0.4116341843350072  1.0000
  H   H14       1.0  0.3811858482756064  0.4116303520293911  0.4770839613357297  1.0000
  H   H15       1.0  0.9050273977480713  0.436980512030317  0.2588231075814136  1.0000
  H   H16       1.0  0.40502647279841847  0.2588182859198085  0.43697541429710185  1.0000
  H   H17       1.0  0.7250707466205597  0.4479507927482019  0.10092345977577112  1.0000
  H   H18       1.0  0.2250672244110987  0.1009215382656237  0.447961610699629  1.0000
  H   H19       1.0  0.5221772873888  0.5471411660541676  0.037837508620349104  1.0000
  H   H20       1.0  0.022174373412404705  0.0378410018239776  0.5471553893285233  1.0000
  H   H21       1.0  0.38621369552232915  0.664252428670899  0.19368196010494645  1.0000
  H   H22       1.0  0.8862090786733888  0.1936889211163901  0.6642609494742474  1.0000
  H   H23       1.0  0.4545360871471402  0.6755057432155808  0.40993248097652923  1.0000
  H   H24       1.0  0.9545324439045687  0.4099386801226999  0.675503097557595  1.0000
  H   H25       1.0  0.5719558658358395  0.5944977766022745  0.5600188172727698  1.0000
  H   H26       1.0  0.0719492984203214  0.5600097332113592  0.5944878332205266  1.0000
  H   H27       1.0  0.6946100014054934  0.4898789997020786  0.5255422715987024  1.0000
  H   H28       1.0  0.19460044424081954  0.5255391269534188  0.4898713381043153  1.0000
  H   H29       1.0  0.9162573717819028  0.9201088556007164  0.6367389542292301  1.0000
  H   H30       1.0  0.41624113982933153  0.6367338509968904  0.9201037359635864  1.0000
  H   H31       1.0  0.11659992310583789  0.0629088593565044  0.7706469772312944  1.0000
  H   H32       1.0  0.6165878545905699  0.7706384615017968  0.06290001658182122  1.0000
  H   H33       1.0  0.2085991849083868  0.019938711013921296  0.9668212805665135  1.0000
  H   H34       1.0  0.7085918818889496  0.9668081795599622  0.019927627066074705  1.0000
  H   H35       1.0  0.9204761049023061  0.7115807694569299  0.9025934735979959  1.0000
  H   H36       1.0  0.42045982285214484  0.9025925214236067  0.7115799646489549  1.0000
  C   C1        1.0  0.8532691855629934  0.8592194903390292  0.2630874913292445  1.0000
  C   C2        1.0  0.3532676947360258  0.2630895167079572  0.859215464292575  1.0000
  C   C3        1.0  0.7475794720449044  0.9195819759036182  0.3184976415754903  1.0000
  C   C4        1.0  0.24758673425393604  0.3184979057498083  0.9195802000549804  1.0000
  C   C5        1.0  0.7518458670192699  0.0436215578098569  0.3331336760844509  1.0000
  C   C6        1.0  0.2518490811890359  0.3331317350752343  0.04361901227829891  1.0000
  C   C7        1.0  0.8623622219025079  0.10499448408044999  0.2908684378991068  1.0000
  C   C8        1.0  0.36236540251315563  0.2908610438622361  0.10499432174492541  1.0000
  C   C9        1.0  0.9641260743551426  0.0375012578305061  0.23468011981098164  1.0000
  C   C10       1.0  0.46412181858244844  0.23467587000731535  0.03749561506050012  1.0000
  C   C11       1.0  0.7747164067422785  0.3033064165683256  0.3165404643901013  1.0000
  C   C12       1.0  0.2747229262389652  0.3165361177251286  0.30330421384400813  1.0000
  C   C13       1.0  0.8245986467076564  0.4345254373198912  0.3212572072898113  1.0000
  C   C14       1.0  0.3245936814532017  0.3212524392810678  0.434520066269748  1.0000
  C   C15       1.0  0.7039673896324744  0.5021966807662183  0.29037472226647765  1.0000
  C   C16       1.0  0.2039669593719466  0.2903715405141226  0.5021942499851306  1.0000
  C   C17       1.0  0.6653434432489788  0.498066031914732  0.16881052995226759  1.0000
  C   C18       1.0  0.1653409755495048  0.1688079917304748  0.49807530858105054  1.0000
  C   C19       1.0  0.5518071858839588  0.555285493206867  0.13355550182187417  1.0000
  C   C20       1.0  0.0518055763377632  0.1335580266578376  0.5552935820814683  1.0000
  C   C21       1.0  0.47541652906959797  0.6193100523618967  0.2202180075875405  1.0000
  C   C22       1.0  0.975418896322033  0.2202200358116784  0.6193164949084108  1.0000
  C   C23       1.0  0.513395458294127  0.6244973012413341  0.3416841638883597  1.0000
  C   C24       1.0  0.013392865154891393  0.3416829057742987  0.6244966705039376  1.0000
  C   C25       1.0  0.6260823424583107  0.565798255261754  0.3779905149503834  1.0000
  C   C26       1.0  0.12607710363221264  0.3779890435587063  0.5657932550461312  1.0000
  C   C27       1.0  0.6642019393599554  0.5757951928712259  0.5104678248840175  1.0000
  C   C28       1.0  0.16419611627507177  0.5104675200820382  0.5757928760678228  1.0000
  C   C29       1.0  0.7887187199194655  0.6734004228408069  0.5661220627151169  1.0000
  C   C30       1.0  0.28870285186413003  0.5661227353374514  0.6733932596889077  1.0000
  C   C31       1.0  0.9034604490282588  0.804876146314207  0.7591374252094596  1.0000
  C   C32       1.0  0.40343939124394973  0.7591337007162551  0.8048710256870992  1.0000
  C   C33       1.0  0.9605845136885378  0.9046046594951349  0.7215314213448567  1.0000
  C   C34       1.0  0.4605695231585827  0.7215283681792002  0.904601242363711  1.0000
  C   C35       1.0  0.07149398145572401  0.9832046839678977  0.7959102415222716  1.0000
  C   C36       1.0  0.5714789774722248  0.7959038432338588  0.9831960494743085  1.0000
  C   C37       1.0  0.12213957132394875  0.9606752099886859  0.9052374919808417  1.0000
  C   C38       1.0  0.6221293888553064  0.9052298446272359  0.960667637313229  1.0000
  C   C39       1.0  0.9600826138640032  0.7890228753654115  0.8699629889725814  1.0000
  C   C40       1.0  0.4600644820371044  0.8699597011995408  0.7890214173489839  1.0000
  I   I1        1.0  0.027877722575148298  0.5831871395533242  0.07240273272017825  1.0000
  I   I2        1.0  0.5278731135007035  0.07240573463743519  0.5831880697422777  1.0000
  I   I3        1.0  0.37370397874121863  0.9830402650080359  0.21994488901290776  1.0000
  I   I4        1.0  0.873703004261401  0.21994156463819797  0.9830383174772523  1.0000
  N   N1        1.0  0.9591266943622756  0.9185309434995831  0.22232743035883837  1.0000
  N   N2        1.0  0.45912349352784776  0.22232795775279612  0.9185279647593421  1.0000
  N   N3        1.0  0.879112713630633  0.2297291926823206  0.3038523385826225  1.0000
  N   N4        1.0  0.37910836571531803  0.3038488061079719  0.22972605106174637  1.0000
  N   N5        1.0  0.7920360880132548  0.7207207308767849  0.6887617475430404  1.0000
  N   N6        1.0  0.29201994300562717  0.6887583515650207  0.7207164103977705  1.0000
  N   N7        1.0  0.06653410325484539  0.8652628699172453  0.940720976258092  1.0000
  N   N8        1.0  0.5665198644610144  0.9407172367446964  0.8652598034540661  1.0000
  O   O1        1.0  0.6487619535814702  0.2672748213776686  0.32403479475973285  1.0000
  O   O2        1.0  0.1487506865523898  0.3240328119896106  0.2672706935794481  1.0000
  O   O3        1.0  0.8807988368927083  0.7058555941439265  0.5080815990080438  1.0000
  O   O4        1.0  0.3807973539414746  0.508079066502269  0.7058473684932666  1.0000
