data_image0
_chemical_formula_structural       Cd2H56C64S8N4O8
_chemical_formula_sum              "Cd2 H56 C64 S8 N4 O8"
_cell_length_a       8.088992790006072
_cell_length_b       12.82607844791344
_cell_length_c       15.786027220466528
_cell_angle_alpha    113.98791762614383
_cell_angle_beta     91.5776119007398
_cell_angle_gamma    90.00023512161205

_space_group_name_H-M_alt    "P 1"
_space_group_IT_number       1

loop_
  _space_group_symop_operation_xyz
  'x, y, z'

loop_
  _atom_site_type_symbol
  _atom_site_label
  _atom_site_symmetry_multiplicity
  _atom_site_fract_x
  _atom_site_fract_y
  _atom_site_fract_z
  _atom_site_occupancy
  Cd  Cd1       1.0  0.7499029505155903  0.5147024252173865  0.9999299173978429  1.0000
  Cd  Cd2       1.0  0.2500929653539004  0.4852986659573588  6.594802371036909e-05  1.0000
  H   H1        1.0  0.2721095417266639  0.7529212145397183  0.11792697574752253  1.0000
  H   H2        1.0  0.22771323101196111  0.6352836665973314  0.8821155751857575  1.0000
  H   H3        1.0  0.7278901413439482  0.24708413203480015  0.8820722727035033  1.0000
  H   H4        1.0  0.7722786403825594  0.3647089246815441  0.11787931465054413  1.0000
  H   H5        1.0  0.3307528258714497  0.8015851295282772  0.237543407210282  1.0000
  H   H6        1.0  0.16909388561525418  0.5644062258049232  0.7625084664300914  1.0000
  H   H7        1.0  0.6692405784323584  0.19842026994442108  0.762458240909602  1.0000
  H   H8        1.0  0.830903238349407  0.4355931472662391  0.23748623302528668  1.0000
  H   H9        1.0  0.4061563438313198  0.9908399245984967  0.31991478349232233  1.0000
  H   H10       1.0  0.09353531887659018  0.671470012060098  0.6803836068588538  1.0000
  H   H11       1.0  0.5938343291400513  0.0091586704264088  0.680085841447081  1.0000
  H   H12       1.0  0.9064738907282929  0.32852504064322824  0.3196137745802545  1.0000
  H   H13       1.0  0.42606232288515133  0.19401933948004307  0.337321222278227  1.0000
  H   H14       1.0  0.0736442118983831  0.8572801831893601  0.6631220166824504  1.0000
  H   H15       1.0  0.5739393871367396  0.8059826307365582  0.6626858419948716  1.0000
  H   H16       1.0  0.9263463394357812  0.14271843053843722  0.3368817794302146  1.0000
  H   H17       1.0  0.07080509421844279  0.30111953069142317  0.1370913817118122  1.0000
  H   H18       1.0  0.4296049948049188  0.1643706607521622  0.863168394096526  1.0000
  H   H19       1.0  0.9292008548979495  0.6988909094964271  0.8629115842693267  1.0000
  H   H20       1.0  0.5703794441857254  0.8356262654327935  0.13683153438765316  1.0000
  H   H21       1.0  0.26171342168078837  0.25382790048331566  0.07577224702419727  1.0000
  H   H22       1.0  0.23893401834860134  0.1786569568231187  0.9247512698273467  1.0000
  H   H23       1.0  0.7382935409112434  0.7461808515255797  0.9242346268679853  1.0000
  H   H24       1.0  0.7610517415221875  0.8213450933238703  0.07525226637115169  1.0000
  H   H25       1.0  0.09960290736022155  0.9006841491644266  0.07043113796554927  1.0000
  H   H26       1.0  0.400657572470088  0.8305958678423123  0.9296829733701059  1.0000
  H   H27       1.0  0.9003969576088906  0.0993263139969827  0.9295691538072359  1.0000
  H   H28       1.0  0.5993181939564705  0.1694036865789172  0.0703201386532442  1.0000
  H   H29       1.0  0.8950791005486137  0.825676890303562  0.3059036830693741  1.0000
  H   H30       1.0  0.6047196086513438  0.5200770477123058  0.6941190611700208  1.0000
  H   H31       1.0  0.1049239148781993  0.17432334684715298  0.6940996782989544  1.0000
  H   H32       1.0  0.39527592876572726  0.47991809967167137  0.30587992097959216  1.0000
  H   H33       1.0  0.04459747047138048  0.9336497301017416  0.3208614707453349  1.0000
  H   H34       1.0  0.45518431509800183  0.6131030176449812  0.679207065734502  1.0000
  H   H35       1.0  0.9554034110223809  0.0663496127267393  0.6791320426025891  1.0000
  H   H36       1.0  0.5448100288793399  0.38688955845955064  0.32078787900969263  1.0000
  H   H37       1.0  0.21506498993235812  0.9828853360779563  0.45237772413248206  1.0000
  H   H38       1.0  0.28445696644400437  0.5308258427676263  0.5477760721589461  1.0000
  H   H39       1.0  0.7849498487606821  0.0171215850799342  0.5476154363702506  1.0000
  H   H40       1.0  0.7155557283995363  0.4691563601714391  0.45221275810841627  1.0000
  H   H41       1.0  0.36675950840283633  0.9340114933151753  0.5708062274345308  1.0000
  H   H42       1.0  0.1329131668640073  0.3635038383863288  0.4292493335164522  1.0000
  H   H43       1.0  0.633244134554019  0.06599722160599701  0.42919041634137756  1.0000
  H   H44       1.0  0.8671127896498659  0.6364689013079284  0.5707379916935764  1.0000
  H   H45       1.0  0.36429119545677224  0.7337322017561051  0.5569737028537034  1.0000
  H   H46       1.0  0.1355335065112584  0.1768865531697088  0.44285099500503117  1.0000
  H   H47       1.0  0.635721154063617  0.2662781668306664  0.4430236922853226  1.0000
  H   H48       1.0  0.8644874511986842  0.8230947993798879  0.5571472613670139  1.0000
  H   H49       1.0  0.20431022802460322  0.5840601499594699  0.4273940368117978  1.0000
  H   H50       1.0  0.2952668852988013  0.15687021923827868  0.5725101425100974  1.0000
  H   H51       1.0  0.7957031106439842  0.41594853418892086  0.5726079004729243  1.0000
  H   H52       1.0  0.7047380987523937  0.8431223633932275  0.42749773401267516  1.0000
  H   H53       1.0  0.049263862709224795  0.6343781318636843  0.3115886147540862  1.0000
  H   H54       1.0  0.45038108458662396  0.3229591321046072  0.6883119382146958  1.0000
  H   H55       1.0  0.9507407693958214  0.36562889861910736  0.6884125711675182  1.0000
  H   H56       1.0  0.549618047805076  0.6770394397346918  0.31169395277957074  1.0000
  C   C1        1.0  0.9817427452199822  0.7008832181435379  0.14334853686432333  1.0000
  C   C2        1.0  0.5180353246281226  0.5577318585812137  0.8566224545305301  1.0000
  C   C3        1.0  0.018257992243533697  0.2991170042568996  0.8566496957188932  1.0000
  C   C4        1.0  0.48195686190851456  0.44227097335260623  0.14337579041859533  1.0000
  C   C5        1.0  0.24237168407160675  0.8135730999708813  0.18802956925120645  1.0000
  C   C6        1.0  0.2575085576473555  0.6258904100285462  0.812044714645708  1.0000
  C   C7        1.0  0.757624258059728  0.1864288445917737  0.8119665757630797  1.0000
  C   C8        1.0  0.7424858894429534  0.3741047224991404  0.18795043464204034  1.0000
  C   C9        1.0  0.2518605184604112  0.9344151414029441  0.19601569293846668  1.0000
  C   C10       1.0  0.248086209452687  0.7388329319967468  0.8042084720778958  1.0000
  C   C11       1.0  0.7481342271821775  0.06559366403422469  0.8039871010063067  1.0000
  C   C12       1.0  0.7519140746416894  0.2611605007061755  0.1957938661099448  1.0000
  C   C13       1.0  0.34285007589794947  0.0162798409956721  0.26950775329875387  1.0000
  C   C14       1.0  0.15702019100640288  0.7472646443424011  0.7307671286070203  1.0000
  C   C15       1.0  0.6571393870438555  0.9837196150043181  0.730493123779439  1.0000
  C   C16       1.0  0.8429754398516279  0.25272877382229103  0.26922748894921256  1.0000
  C   C17       1.0  0.3561027426867582  0.13020706247907296  0.2798131111841826  1.0000
  C   C18       1.0  0.14384776290386014  0.8509195080028321  0.7205289604335334  1.0000
  C   C19       1.0  0.6438928724012312  0.8698009343511045  0.7201983099069265  1.0000
  C   C20       1.0  0.8561491139175883  0.14907818821713192  0.27947025371358336  1.0000
  C   C21       1.0  0.27360744092113976  0.15729059896602854  0.21398714837861377  1.0000
  C   C22       1.0  0.22650559099293588  0.9438043020849491  0.7863487044348361  1.0000
  C   C23       1.0  0.7263806475022248  0.8427123155785665  0.7860211619630774  1.0000
  C   C24       1.0  0.7734839078827206  0.0562002929454053  0.21365702137302375  1.0000
  C   C25       1.0  0.17479172394111223  0.24234295328270156  0.1239012825665498  1.0000
  C   C26       1.0  0.3255995916195218  0.11891633391239508  0.876493082038827  1.0000
  C   C27       1.0  0.8252152931090037  0.757668362630497  0.8761070643384841  1.0000
  C   C28       1.0  0.6743860836625329  0.8810805846853854  0.1235068738993021  1.0000
  C   C29       1.0  0.183593157128378  0.0757926455762075  0.1396172584313504  1.0000
  C   C30       1.0  0.31668988908200646  0.9366027683472211  0.86060927369801  1.0000
  C   C31       1.0  0.8164040221141632  0.92422043781022  0.8603914280275544  1.0000
  C   C32       1.0  0.6833019939189311  0.0633949657025923  0.1393910991026104  1.0000
  C   C33       1.0  0.16988333941861813  0.9637387894863992  0.12855408793168988  1.0000
  C   C34       1.0  0.3303103456640599  0.8355838332826906  0.8716324896884018  1.0000
  C   C35       1.0  0.8301067869870806  0.036274283314412493  0.8714449202837498  1.0000
  C   C36       1.0  0.6696899704953624  0.16441302419361387  0.12837286957434196  1.0000
  C   C37       1.0  0.02777575675025189  0.8422729321718804  0.30442895120092567  1.0000
  C   C38       1.0  0.4720066530301565  0.5381375489737296  0.6956181878436212  1.0000
  C   C39       1.0  0.9722288579451757  0.15772638415450047  0.6955640102741967  1.0000
  C   C40       1.0  0.527988981696673  0.46185758344793726  0.3043782573673893  1.0000
  C   C41       1.0  0.12394750911802532  0.8113961675812148  0.3739042475486228  1.0000
  C   C42       1.0  0.37582535786388854  0.4377663932734491  0.6261057608878176  1.0000
  C   C43       1.0  0.8760608727785238  0.188607404144939  0.626092096955979  1.0000
  C   C44       1.0  0.6241712358804961  0.5622244870649454  0.3738931192213641  1.0000
  C   C45       1.0  0.21322545608728657  0.8953903294992926  0.4472969236439964  1.0000
  C   C46       1.0  0.2864853811187587  0.4483602346818146  0.5527375514213516  1.0000
  C   C47       1.0  0.7867868146475772  0.10461747892374261  0.5526996327168233  1.0000
  C   C48       1.0  0.7135235882607275  0.5516254232733145  0.4472554860283679  1.0000
  C   C49       1.0  0.2985455999809049  0.8679715845623123  0.5134713748385806  1.0000
  C   C50       1.0  0.20121688050571856  0.35473207549060964  0.4865089599861392  1.0000
  C   C51       1.0  0.7014680383545837  0.13204048321311027  0.4865266069398686  1.0000
  C   C52       1.0  0.7987980864979036  0.645247570813261  0.5134822575841794  1.0000
  C   C53       1.0  0.29656148274488453  0.7556663082079283  0.5059655206735343  1.0000
  C   C54       1.0  0.20328996564717974  0.24983202971719715  0.49386769081067416  1.0000
  C   C55       1.0  0.7034457474489884  0.24434240265460974  0.4940343766374866  1.0000
  C   C56       1.0  0.7967235333970493  0.7501528043505628  0.5061353246165224  1.0000
  C   C57       1.0  0.20745018736261037  0.6717162765624636  0.43317865314427445  1.0000
  C   C58       1.0  0.2922473927620998  0.2387357737330973  0.5667056902308616  1.0000
  C   C59       1.0  0.7925546714270124  0.3282941487690962  0.5668204799750072  1.0000
  C   C60       1.0  0.7077601893779216  0.7612584892781485  0.43330089768132746  1.0000
  C   C61       1.0  0.12119152331818123  0.6993498192748647  0.3676396729087514  1.0000
  C   C62       1.0  0.3784917367339418  0.33192482850055427  0.6322979895833213  1.0000
  C   C63       1.0  0.8788219126601717  0.30065884991121544  0.6323597274373611  1.0000
  C   C64       1.0  0.6215011072189468  0.6680695105944779  0.3677057319428627  1.0000
  S   S1        1.0  0.8110509656315088  0.6469732085325645  0.17428430915328613  1.0000
  S   S2        1.0  0.6886836877667262  0.47287630101899947  0.8256370502232355  1.0000
  S   S3        1.0  0.18895556516461198  0.35301674649878817  0.8257126082908073  1.0000
  S   S4        1.0  0.3113132620370394  0.5271213839792281  0.1743602612199311  1.0000
  S   S5        1.0  0.025633229028379396  0.6548197697364345  0.02647073625340821  1.0000
  S   S6        1.0  0.4742014274132699  0.628447574852359  0.9735281159072783  1.0000
  S   S7        1.0  0.9743643054537543  0.345188971898878  0.9735238675487992  1.0000
  S   S8        1.0  0.525793001152806  0.3715501328013744  0.026470409097285597  1.0000
  N   N1        1.0  0.0784458772004371  0.7804539651396284  0.20812493500563528  1.0000
  N   N2        1.0  0.4213833111166351  0.5726377356220026  0.7919131625360974  1.0000
  N   N3        1.0  0.9215587209051603  0.21954878344129716  0.7918723160136878  1.0000
  N   N4        1.0  0.578611145645688  0.42736168254813134  0.2080865558885847  1.0000
  O   O1        1.0  0.26165988274701146  0.26233098942842764  0.21041485279702238  1.0000
  O   O2        1.0  0.23836618201690377  0.0524653146929808  0.7900417826552725  1.0000
  O   O3        1.0  0.7383408234712547  0.7376769546095829  0.7895928727019808  1.0000
  O   O4        1.0  0.7616119500106961  0.9475299538737543  0.20995935207764654  1.0000
  O   O5        1.0  0.11312602141448741  0.12626708080436802  0.0857589226931026  1.0000
  O   O6        1.0  0.38727358285483854  0.0409082402169503  0.9145012930389456  1.0000
  O   O7        1.0  0.886874931946984  0.8737425400848409  0.9142442881141619  1.0000
  O   O8        1.0  0.6127083310293031  0.9590869943665297  0.08549802135186713  1.0000
