data_image0
_chemical_formula_structural       Zn2H28C36N8O8
_chemical_formula_sum              "Zn2 H28 C36 N8 O8"
_cell_length_a       9.195257722433983
_cell_length_b       10.532860583870008
_cell_length_c       11.128561183640931
_cell_angle_alpha    104.99283505192716
_cell_angle_beta     108.58678026782971
_cell_angle_gamma    109.39462800554523

_space_group_name_H-M_alt    "P 1"
_space_group_IT_number       1

loop_
  _space_group_symop_operation_xyz
  'x, y, z'

loop_
  _atom_site_type_symbol
  _atom_site_label
  _atom_site_symmetry_multiplicity
  _atom_site_fract_x
  _atom_site_fract_y
  _atom_site_fract_z
  _atom_site_occupancy
  Zn  Zn1       1.0  0.2719348011706941  0.5358112168083194  0.21640179390865902  1.0000
  Zn  Zn2       1.0  0.7280635152503194  0.46418861583801174  0.7835952515430689  1.0000
  H   H1        1.0  0.9303812987059886  0.5233329201373279  0.13933444068570103  1.0000
  H   H2        1.0  0.06961705537783301  0.4766691109039698  0.8606640792151408  1.0000
  H   H3        1.0  0.7981044703336551  0.6769493872330583  0.21775842468296944  1.0000
  H   H4        1.0  0.20189623621801903  0.3230547875011922  0.7822457405517083  1.0000
  H   H5        1.0  0.29709439499512075  0.9769954026113156  0.5680558392401166  1.0000
  H   H6        1.0  0.7029102637258405  0.0230077166193112  0.43194366977039067  1.0000
  H   H7        1.0  0.4103562378446454  0.8169470706631187  0.47182423388272077  1.0000
  H   H8        1.0  0.589642648035209  0.18305163237953787  0.5281744632313732  1.0000
  H   H9        1.0  0.8188009023417562  0.8895210083280387  0.38163111353389895  1.0000
  H   H10       1.0  0.18120498340778105  0.1104842261775971  0.6183764425872409  1.0000
  H   H11       1.0  0.059275141845141426  0.638238690352061  0.6302670910451196  1.0000
  H   H12       1.0  0.9407237376420597  0.3617600238443828  0.36973070862514135  1.0000
  H   H13       1.0  0.6756374951192045  0.3046939258756324  0.30725885930471003  1.0000
  H   H14       1.0  0.32435968377033925  0.6953036353426183  0.6927427032500117  1.0000
  H   H15       1.0  0.3969684807573798  0.30987501596722916  0.19665712708029998  1.0000
  H   H16       1.0  0.603028672561564  0.6901225898661848  0.8033408456990968  1.0000
  H   H17       1.0  0.581452432264051  0.7318743667950827  0.4905467358639937  1.0000
  H   H18       1.0  0.4185464280451896  0.2681243808627372  0.5094483714747751  1.0000
  H   H19       1.0  0.8617478914042991  0.7438476537681281  0.6141904977767891  1.0000
  H   H20       1.0  0.13825042501671445  0.25615217887820296  0.38580654767493155  1.0000
  H   H21       1.0  0.8678724407695667  0.030928801427478395  0.028632755038941634  1.0000
  H   H22       1.0  0.1321253701191264  0.9690720492846121  0.9713716131887147  1.0000
  H   H23       1.0  0.7713177586952966  0.1419755590512253  0.9813771459368464  1.0000
  H   H24       1.0  0.22868288462296243  0.858026461903222  0.018621955073392243  1.0000
  H   H25       1.0  0.6191060487996509  0.7638193512333514  0.03932407005022028  1.0000
  H   H26       1.0  0.3808975036599875  0.23618370611795564  0.9606805330685686  1.0000
  H   H27       1.0  0.4226499330124084  0.7680338530435832  0.9540675245149752  1.0000
  H   H28       1.0  0.577357078176398  0.23197140987999623  0.04593762982937478  1.0000
  C   C1        1.0  0.007377294314288575  0.6250932169129796  0.23337690387398152  1.0000
  C   C2        1.0  0.9926221859019009  0.3749065772285504  0.7666231244639403  1.0000
  C   C3        1.0  0.934134105418842  0.7115268944697418  0.27885800668739336  1.0000
  C   C4        1.0  0.0658665634700242  0.2884750818695352  0.7211446840981705  1.0000
  C   C5        1.0  0.03492216552448478  0.8423036614337605  0.4007314620365532  1.0000
  C   C6        1.0  0.9650801797776296  0.15769498186345735  0.5992716965169649  1.0000
  C   C7        1.0  0.20961788825644598  0.8779120822905285  0.4727329491339061  1.0000
  C   C8        1.0  0.790385620147738  0.12208878781959948  0.5272692820919359  1.0000
  C   C9        1.0  0.2743327206374602  0.7877207890559885  0.4198285386087191  1.0000
  C   C10       1.0  0.7256667347012282  0.21227678438299338  0.5801718101677408  1.0000
  C   C11       1.0  0.9571200889466881  0.9338910522724717  0.44490714464707526  1.0000
  C   C12       1.0  0.04288577762490319  0.0661142156945331  0.5550977191425729  1.0000
  C   C13       1.0  0.9715182976174077  0.5443119006488287  0.5303900903443687  1.0000
  C   C14       1.0  0.028480550599631706  0.4556846039988612  0.46960713232060386  1.0000
  C   C15       1.0  0.7981026106010135  0.5280827042913002  0.4680473319315296  1.0000
  C   C16       1.0  0.2018951306616188  0.47191600379477444  0.5319510746278622  1.0000
  C   C17       1.0  0.6611296287337325  0.40243395045538927  0.35111363291481  1.0000
  C   C18       1.0  0.3388663863606354  0.5975636492676627  0.6488849467537177  1.0000
  C   C19       1.0  0.5052090752505337  0.40329668643185806  0.28890726424082647  1.0000
  C   C20       1.0  0.49478807806841024  0.5967009194015559  0.7110907085385703  1.0000
  C   C21       1.0  0.6049407566378164  0.6385066849931675  0.4525845946578924  1.0000
  C   C22       1.0  0.3950581164567311  0.3614920403570708  0.5474123075685425  1.0000
  C   C23       1.0  0.7636360142032216  0.6448951219436408  0.5218152683803721  1.0000
  C   C24       1.0  0.23636286528397932  0.355103592252803  0.47818253128988875  1.0000
  C   C25       1.0  0.04331855564787195  0.22817724853666022  0.031495739772211075  1.0000
  C   C26       1.0  0.9566802925691678  0.77181925611103  0.9685014828927688  1.0000
  C   C27       1.0  0.8615444922334702  0.09934187655812819  0.9686968133023938  1.0000
  C   C28       1.0  0.13845727082451018  0.9006579186503457  0.031302898701092235  1.0000
  C   C29       1.0  0.7973940709402001  0.005617277297979203  0.824545426105068  1.0000
  C   C30       1.0  0.20260074338929002  0.9943758972171892  0.1754526064420147  1.0000
  C   C31       1.0  0.45534968037166834  0.7305021961070821  0.14326052274466852  1.0000
  C   C32       1.0  0.5446504254510175  0.2695008986820823  0.8567414138223552  1.0000
  C   C33       1.0  0.5262487274229741  0.8020419965818916  0.056707752913034336  1.0000
  C   C34       1.0  0.4737577270923055  0.19796437363778097  0.9432975446566019  1.0000
  C   C35       1.0  0.6129901185990647  0.9614464506511948  0.12694330223512623  1.0000
  C   C36       1.0  0.38701226367275865  0.0385566563587005  0.8730574205536425  1.0000
  N   N1        1.0  0.1761521136565705  0.6627562012598033  0.3019003528803451  1.0000
  N   N2        1.0  0.8238456588762164  0.3372447163750323  0.6980986306843348  1.0000
  N   N3        1.0  0.47790080171777316  0.5211987965292695  0.3362282582555025  1.0000
  N   N4        1.0  0.5220992223866431  0.47879991262374927  0.6637698319694605  1.0000
  N   N5        1.0  0.7428457627376944  0.929396094733761  0.7080722036091412  1.0000
  N   N6        1.0  0.2571479446373815  0.07059928321979211  0.29192701283235317  1.0000
  N   N7        1.0  0.680383341800713  0.0895830290485122  0.18365443720452385  1.0000
  N   N8        1.0  0.31961853424568454  0.9104233613448544  0.8163496981463038  1.0000
  O   O1        1.0  0.060218343422732815  0.34676894044692125  0.11753529747350905  1.0000
  O   O2        1.0  0.9397833507022779  0.6532264468178325  0.8824623630755821  1.0000
  O   O3        1.0  0.1551281816585615  0.2082872126607214  0.0005928821928690948  1.0000
  O   O4        1.0  0.8448728989521611  0.7917071169665275  0.9994007548009092  1.0000
  O   O5        1.0  0.3307331930623718  0.5988645953041  0.07374118699790685  1.0000
  O   O6        1.0  0.6692731733419847  0.401137400433221  0.9262593667858422  1.0000
  O   O7        1.0  0.5217768300522111  0.8000370796660901  0.2718718331290048  1.0000
  O   O8        1.0  0.47821583290876646  0.1999649208233762  0.7281297212174778  1.0000
