data_image0
_chemical_formula_structural       MnH14C14N12O4
_chemical_formula_sum              "Mn1 H14 C14 N12 O4"
_cell_length_a       7.904431947314984
_cell_length_b       7.8533808858123795
_cell_length_c       7.862985667117843
_cell_angle_alpha    106.82210114593545
_cell_angle_beta     104.80489436288497
_cell_angle_gamma    93.41456114448832

_space_group_name_H-M_alt    "P 1"
_space_group_IT_number       1

loop_
  _space_group_symop_operation_xyz
  'x, y, z'

loop_
  _atom_site_type_symbol
  _atom_site_label
  _atom_site_symmetry_multiplicity
  _atom_site_fract_x
  _atom_site_fract_y
  _atom_site_fract_z
  _atom_site_occupancy
  Mn  Mn1       1.0  0.0  0.0  0.0  1.0000
  H   H1        1.0  0.18348672052923123  0.6258399494872295  0.5904262464110983  1.0000
  H   H2        1.0  0.8165123992518062  0.37415845078175647  0.4095735095146934  1.0000
  H   H3        1.0  0.4145789337870199  0.6877887356667503  0.675210097792565  1.0000
  H   H4        1.0  0.5854216888188403  0.31221100470938984  0.3247904343900102  1.0000
  H   H5        1.0  0.45686327871482757  0.4331889827083374  0.7964088964144337  1.0000
  H   H6        1.0  0.5431360359744843  0.5668107618038365  0.20359131157746188  1.0000
  H   H7        1.0  0.3941988750665714  0.9564250564038732  0.26424942552335295  1.0000
  H   H8        1.0  0.6058002623657471  0.043573315363559614  0.7357528700310566  1.0000
  H   H9        1.0  0.08529091358048652  0.3768983681853868  0.34139352229389874  1.0000
  H   H10       1.0  0.9147111941989154  0.6231027407994605  0.6586052465168422  1.0000
  H   H11       1.0  0.8058942858762279  0.28501083861554843  0.7952816044854242  1.0000
  H   H12       1.0  0.1941048339048024  0.7149875616534305  0.20471815144036742  1.0000
  H   H13       1.0  0.339076493686811  0.19428090095063774  0.9144211414349142  1.0000
  H   H14       1.0  0.6609230247364268  0.805720173553958  0.08558078843739028  1.0000
  C   C1        1.0  0.2810156232911823  0.7460063286691753  0.8884514426423917  1.0000
  C   C2        1.0  0.7189825695642258  0.25399477847300744  0.11154762341060126  1.0000
  C   C3        1.0  0.29949709705860533  0.6278770904934774  0.7030611184497529  1.0000
  C   C4        1.0  0.7005022088050694  0.3721226682694693  0.2969378197278302  1.0000
  C   C5        1.0  0.3278469814051307  0.4381075334664715  0.7050586092802573  1.0000
  C   C6        1.0  0.672152324458544  0.5618922252964753  0.29494032889732574  1.0000
  C   C7        1.0  0.34484035150939724  0.07768238877055472  0.3289320557240386  1.0000
  C   C8        1.0  0.655160271096463  0.9223173516055851  0.6710684764585364  1.0000
  C   C9        1.0  0.1843890011716667  0.28939393283503984  0.36261076190412195  1.0000
  C   C10       1.0  0.815611807516838  0.710607166035068  0.6373889525302444  1.0000
  C   C11       1.0  0.9446773132568396  0.28884205659566226  0.799920265348831  1.0000
  C   C12       1.0  0.055322001432472206  0.7111576879165115  0.20007994264306456  1.0000
  C   C13       1.0  0.21390448112855154  0.23944927090560955  0.8657349512659847  1.0000
  C   C14       1.0  0.7860950284690488  0.7605518178497593  0.13426570879200742  1.0000
  N   N1        1.0  0.41943335388693725  0.1840943812496434  0.5009816175004216  1.0000
  N   N2        1.0  0.58056726871893  0.8159053591264965  0.4990189146821533  1.0000
  N   N3        1.0  0.3177031199685985  0.3193002773767405  0.5199749005635254  1.0000
  N   N4        1.0  0.682297502637262  0.6806994629994066  0.4800256316190499  1.0000
  N   N5        1.0  0.19703264321712774  0.1359746350885587  0.23882734674992878  1.0000
  N   N6        1.0  0.8029679793887327  0.8640251052875814  0.7611731854326463  1.0000
  N   N7        1.0  0.02494843052858191  0.3912101929195801  0.7277951899752819  1.0000
  N   N8        1.0  0.9750521920772856  0.6087895474565598  0.2722053422072931  1.0000
  N   N9        1.0  0.1955003255078225  0.35962792905633023  0.7721332993603978  1.0000
  N   N10       1.0  0.8045002970980376  0.6403718113198097  0.2278672328221774  1.0000
  N   N11       1.0  0.05618035644825879  0.19158712188487212  0.8860642264835616  1.0000
  N   N12       1.0  0.9438189582410602  0.8084126226273014  0.11393598150833378  1.0000
  O   O1        1.0  0.16584336021201554  0.85300197840391  0.872895663445817  1.0000
  O   O2        1.0  0.8341546377351108  0.14699778449507767  0.12710295054107945  1.0000
  O   O3        1.0  0.37765031457635706  0.7299916765233194  0.03598077620820565  1.0000
  O   O4        1.0  0.6223475061137692  0.2700067136309272  0.964019925341219  1.0000
