data_image0
_chemical_formula_structural       ZnSiH28C28N4F6
_chemical_formula_sum              "Zn1 Si1 H28 C28 N4 F6"
_cell_length_a       7.700597740853941
_cell_length_b       13.991613932619051
_cell_length_c       13.99167885230028
_cell_angle_alpha    89.68504530591798
_cell_angle_beta     85.81951887078068
_cell_angle_gamma    85.81992335204143

_space_group_name_H-M_alt    "P 1"
_space_group_IT_number       1

loop_
  _space_group_symop_operation_xyz
  'x, y, z'

loop_
  _atom_site_type_symbol
  _atom_site_label
  _atom_site_symmetry_multiplicity
  _atom_site_fract_x
  _atom_site_fract_y
  _atom_site_fract_z
  _atom_site_occupancy
  Zn  Zn1       1.0  0.49998828141406165  0.4999990773351897  0.49999974626839366  1.0000
  Si  Si1       1.0  0.9999921635701834  0.49999427220256343  0.4999939261511273  1.0000
  H   H1        1.0  0.2529002850783612  0.5000888221191531  0.3363551719880462  1.0000
  H   H2        1.0  0.2589008729505267  0.5000038489389238  0.1666240051545955  1.0000
  H   H3        1.0  0.8237031290803926  0.5001577741339389  0.1626069461334438  1.0000
  H   H4        1.0  0.7921239787433906  0.4999873498198538  0.33337697021558904  1.0000
  H   H5        1.0  0.17626703709281333  0.4998704834660969  0.8373926424498778  1.0000
  H   H6        1.0  0.7410540282827185  0.5001870712040243  0.833372509729074  1.0000
  H   H7        1.0  0.74705735623003  0.5000082405624083  0.663637409282174  1.0000
  H   H8        1.0  0.20783939452532238  0.5000122641644181  0.6666208725437671  1.0000
  H   H9        1.0  0.25291643579402734  0.33636046233756633  0.49999300506649996  1.0000
  H   H10       1.0  0.2589273232600319  0.16662516507359013  0.4998188188250907  1.0000
  H   H11       1.0  0.8237118132244062  0.16261010750851307  0.500129694636918  1.0000
  H   H12       1.0  0.792134228154836  0.3333829072255268  0.49998729736828557  1.0000
  H   H13       1.0  0.17627081253493063  0.8373930595621883  0.4998430983808149  1.0000
  H   H14       1.0  0.7410749801405598  0.8333751519632314  0.4999967171716975  1.0000
  H   H15       1.0  0.747071984367828  0.6636420016896591  0.49990809949116516  1.0000
  H   H16       1.0  0.20784422706667982  0.6666209757698948  0.5000106657771539  1.0000
  H   H17       1.0  0.7767403238637269  0.5636468567126085  0.946587346786572  1.0000
  H   H18       1.0  0.8474408215911989  0.49943519909516  0.045580170377519415  1.0000
  H   H19       1.0  0.7930216708357489  0.4360252225288831  0.9462513031603238  1.0000
  H   H20       1.0  0.20675141059949445  0.563964791732367  0.0535808607491504  1.0000
  H   H21       1.0  0.15259532260101585  0.5001831269446197  0.9544174842473794  1.0000
  H   H22       1.0  0.22346481548157726  0.4363357457350785  0.0535822096012595  1.0000
  H   H23       1.0  0.793224557373804  0.9464191767157925  0.43603635517364137  1.0000
  H   H24       1.0  0.8473885931058472  0.04558513232581159  0.4998172920669219  1.0000
  H   H25       1.0  0.7765167198716652  0.946417178524079  0.5636652022703501  1.0000
  H   H26       1.0  0.22324282480369106  0.053411598742854886  0.4363548054460794  1.0000
  H   H27       1.0  0.15253409416310149  0.9544165781763352  0.500564460379934  1.0000
  H   H28       1.0  0.20695447977477943  0.053748372829154796  0.5639746225899813  1.0000
  C   C1        1.0  0.3784720629808617  0.5000373157967529  0.2951824983736273  1.0000
  C   C2        1.0  0.38451146872210973  0.5000125609846222  0.1956525182786422  1.0000
  C   C3        1.0  0.5439999403167235  0.5000026301532541  0.13814526543897898  1.0000
  C   C4        1.0  0.6907457486779406  0.5000530387571445  0.1940265956639777  1.0000
  C   C5        1.0  0.6757169260537307  0.5000051628386045  0.2935256523359371  1.0000
  C   C6        1.0  0.5670051824996563  0.4999244044193245  0.0307160924204055  1.0000
  C   C7        1.0  0.4329719168328765  0.5000386446465084  0.9692806924842189  1.0000
  C   C8        1.0  0.3092276603355586  0.4999601695129099  0.805966510751148  1.0000
  C   C9        1.0  0.455970402623528  0.5000141657946385  0.8618493694484359  1.0000
  C   C10       1.0  0.6154619619659982  0.5000830370716328  0.8043423286582084  1.0000
  C   C11       1.0  0.6214879429290148  0.5000303665216419  0.7048151396379936  1.0000
  C   C12       1.0  0.32424787335543925  0.5000037618371207  0.7064728053935738  1.0000
  C   C13       1.0  0.3784861586410457  0.29518192290011297  0.4999725483890458  1.0000
  C   C14       1.0  0.3845193975620304  0.19565608180887745  0.4999202548003154  1.0000
  C   C15       1.0  0.544006687826041  0.13814783890938287  0.4999886300770414  1.0000
  C   C16       1.0  0.690750363254871  0.19403525867467408  0.5000400543111283  1.0000
  C   C17       1.0  0.6757210534433611  0.2935243271870646  0.4999943188885609  1.0000
  C   C18       1.0  0.5670036276366659  0.030718642069878392  0.49996463537988933  1.0000
  C   C19       1.0  0.43297078941184003  0.969283800361701  0.5000785154451108  1.0000
  C   C20       1.0  0.30922649274761926  0.8059714964039556  0.4999486642945286  1.0000
  C   C21       1.0  0.4559763658766514  0.8618510230119508  0.5000006061796896  1.0000
  C   C22       1.0  0.6154720491061026  0.8043427926428776  0.4999850405250044  1.0000
  C   C23       1.0  0.6214974712974595  0.7048155247664591  0.49995949560972264  1.0000
  C   C24       1.0  0.3242505694442102  0.7064724086702296  0.4999925035313383  1.0000
  C   C25       1.0  0.7548815915358417  0.4997424282257937  0.9905681095899581  1.0000
  C   C26       1.0  0.24511231083477  0.5001489421591855  0.00943410457689  1.0000
  C   C27       1.0  0.7548653700335065  0.9905677236644477  0.499853120098031  1.0000
  C   C28       1.0  0.24509359537925945  0.0094297110802444  0.5002563965758355  1.0000
  N   N1        1.0  0.5211391454005252  0.500001810103427  0.3450141709899128  1.0000
  N   N2        1.0  0.47883078809554985  0.5000078217510973  0.6549819439223443  1.0000
  N   N3        1.0  0.521148503565122  0.3450198699264105  0.4999928879301692  1.0000
  N   N4        1.0  0.47883253538170567  0.6549847279312926  0.49999496745890337  1.0000
  F   F1        1.0  0.22719763394083242  0.5001743572930337  0.5001700250629355  1.0000
  F   F2        1.0  0.7727873640181497  0.4998194862563634  0.4998177323707935  1.0000
  F   F3        1.0  0.9999889815053461  0.5863205467242947  0.4136638787029625  1.0000
  F   F4        1.0  0.999989499175342  0.41367302390128907  0.586324886040984  1.0000
  F   F5        1.0  0.0229648702977912  0.41370362930720717  0.4137056179055989  1.0000
  F   F6        1.0  0.9770164010780533  0.5862887886222976  0.5862822881932034  1.0000
