data_image0
_chemical_formula_structural       Cd4H56C112N16O32
_chemical_formula_sum              "Cd4 H56 C112 N16 O32"
_cell_length_a       8.224087731438523
_cell_length_b       18.82761196176329
_cell_length_c       22.576957862226593
_cell_angle_alpha    90.00039949475035
_cell_angle_beta     90.00028030887246
_cell_angle_gamma    94.66185918043895

_space_group_name_H-M_alt    "P 1"
_space_group_IT_number       1

loop_
  _space_group_symop_operation_xyz
  'x, y, z'

loop_
  _atom_site_type_symbol
  _atom_site_label
  _atom_site_symmetry_multiplicity
  _atom_site_fract_x
  _atom_site_fract_y
  _atom_site_fract_z
  _atom_site_occupancy
  Cd  Cd1       1.0  0.6909076725747452  0.010860831076911399  0.44436741033915444  1.0000
  Cd  Cd2       1.0  0.3091133510620736  0.4891467928629254  0.9443671806122538  1.0000
  Cd  Cd3       1.0  0.30910711580497713  0.9891460310796558  0.5556333493619263  1.0000
  Cd  Cd4       1.0  0.6908911567732543  0.5108568446783794  0.0556375654357737  1.0000
  H   H1        1.0  0.03170188697750119  0.1662935272013328  0.4540302352787933  1.0000
  H   H2        1.0  0.9696159449386104  0.2590005219141674  0.37835770642833916  1.0000
  H   H3        1.0  0.5003088103416927  0.14314396804526547  0.37339792390742593  1.0000
  H   H4        1.0  0.41831990366328126  0.5152189427744104  0.1556955510119522  1.0000
  H   H5        1.0  0.2976804268330753  0.43995883316875983  0.23916174344182645  1.0000
  H   H6        1.0  0.5593705372109737  0.26735311775438925  0.1705379659838755  1.0000
  H   H7        1.0  0.6685742068385423  0.34933863820437955  0.0916649616702401  1.0000
  H   H8        1.0  0.14211049503222029  0.0217506657582689  0.3077484689830996  1.0000
  H   H9        1.0  0.31981048066959517  0.0676562395010265  0.2214085148930991  1.0000
  H   H10       1.0  0.7816459823262746  0.16654902265435112  0.264977517924514  1.0000
  H   H11       1.0  0.34348587789659746  0.32462214455824073  0.9564852846919933  1.0000
  H   H12       1.0  0.27905153522405607  0.22286082490039402  0.0261789057161224  1.0000
  H   H13       1.0  0.03201283481239159  0.36853650189447507  0.13674050908524998  1.0000
  H   H14       1.0  0.10302672445587287  0.4624656365355476  0.0627702923843358  1.0000
  H   H15       1.0  0.9682818752392703  0.33370875185781296  0.9540244962151972  1.0000
  H   H16       1.0  0.0303630315599506  0.24099414593902682  0.8783586551454831  1.0000
  H   H17       1.0  0.4996727344693497  0.35684480392686885  0.8733981462921605  1.0000
  H   H18       1.0  0.5816561841363351  0.9847741087916334  0.6556900128247206  1.0000
  H   H19       1.0  0.7022935168402853  0.060031918326899386  0.7391606007106332  1.0000
  H   H20       1.0  0.4406224543426021  0.23264080473884977  0.6705355947692198  1.0000
  H   H21       1.0  0.3314022121301576  0.1506571988354963  0.591662811454178  1.0000
  H   H22       1.0  0.8578826325957677  0.4782471416870422  0.8077504611278742  1.0000
  H   H23       1.0  0.6801841451744649  0.4323360099127244  0.7214117034018982  1.0000
  H   H24       1.0  0.21834517897021744  0.33344786592969194  0.7649837586237921  1.0000
  H   H25       1.0  0.6565201230262828  0.1753748924970679  0.45648817858037205  1.0000
  H   H26       1.0  0.7209662433110606  0.27714040421668074  0.5261786092845852  1.0000
  H   H27       1.0  0.9680065544256491  0.13146518328407103  0.6367384710205499  1.0000
  H   H28       1.0  0.8969836785709048  0.0375321691988404  0.5627711302858884  1.0000
  H   H29       1.0  0.9683082756235989  0.833700538844852  0.5459709673106942  1.0000
  H   H30       1.0  0.030384028438888287  0.7409908523798306  0.6216421673560717  1.0000
  H   H31       1.0  0.4996976112151969  0.856849554854236  0.6265992923119867  1.0000
  H   H32       1.0  0.581682017185706  0.4847766980442215  0.844307866222266  1.0000
  H   H33       1.0  0.7023275767655406  0.5600368247178907  0.7608412308682659  1.0000
  H   H34       1.0  0.4406366152463336  0.7326446682438643  0.829460136107457  1.0000
  H   H35       1.0  0.3314220880147616  0.6506596499487787  0.9083318116246772  1.0000
  H   H36       1.0  0.8579014947858423  0.9782540580149828  0.6922505189914715  1.0000
  H   H37       1.0  0.6801988019485065  0.9323468787757535  0.7785887013565826  1.0000
  H   H38       1.0  0.2183547219311848  0.8334466147265048  0.735020584154988  1.0000
  H   H39       1.0  0.6565278141393093  0.6753783229541596  0.0435150320601494  1.0000
  H   H40       1.0  0.7209565308775367  0.7771422899821943  0.9738227398271988  1.0000
  H   H41       1.0  0.9680076708940318  0.6314682457965901  0.8632629081915154  1.0000
  H   H42       1.0  0.8969960316147265  0.5375380522018959  0.9372313531734375  1.0000
  H   H43       1.0  0.0316951711548867  0.6663049285401569  0.04596740488332069  1.0000
  H   H44       1.0  0.9696241415855197  0.7590147692330264  0.12163988989012608  1.0000
  H   H45       1.0  0.5002999890797922  0.6431507549062304  0.1265941976796086  1.0000
  H   H46       1.0  0.418333845233704  0.015223096513864203  0.34430587460266077  1.0000
  H   H47       1.0  0.2976999794752259  0.9399642314568126  0.2608375013640654  1.0000
  H   H48       1.0  0.5593636513280131  0.7673547916858966  0.3294651648742644  1.0000
  H   H49       1.0  0.6685721848326408  0.8493410278775427  0.4083366193983125  1.0000
  H   H50       1.0  0.14210654570455714  0.5217521917716609  0.19224985559963406  1.0000
  H   H51       1.0  0.3198121785546136  0.5676553541412589  0.2785886133087701  1.0000
  H   H52       1.0  0.7816612762888725  0.666560038108514  0.2350183298614539  1.0000
  H   H53       1.0  0.3434851445341138  0.8246260840140919  0.5435143528132613  1.0000
  H   H54       1.0  0.2790501559213964  0.722861668790216  0.4738230362629777  1.0000
  H   H55       1.0  0.03199637139522339  0.868536319285937  0.36326406037256476  1.0000
  H   H56       1.0  0.10301392425266445  0.962466655288843  0.43723317281272495  1.0000
  C   C1        1.0  0.29616691277067275  0.0929926452779881  0.46345756437037977  1.0000
  C   C2        1.0  0.26723093249900387  0.14991282235496334  0.41868506420262  1.0000
  C   C3        1.0  0.12003732719240649  0.18302831401646097  0.4199261201987028  1.0000
  C   C4        1.0  0.08562430448620259  0.23480443614390364  0.37828865516596716  1.0000
  C   C5        1.0  0.2049111939465575  0.25377521051753865  0.336263222863721  1.0000
  C   C6        1.0  0.35248943148383194  0.2216690704418411  0.33563607037074655  1.0000
  C   C7        1.0  0.3863667122369918  0.1689880965672543  0.3756927170362516  1.0000
  C   C8        1.0  0.4559171266143379  0.2533321036550332  0.2873688988844876  1.0000
  C   C9        1.0  0.205966313671972  0.3060673496690995  0.2869693113889937  1.0000
  C   C10       1.0  0.444930300138054  0.45979301620761237  0.1609578588167651  1.0000
  C   C11       1.0  0.3790792761382066  0.41824860416247844  0.20721812100560297  1.0000
  C   C12       1.0  0.4196539974459199  0.34753968117799156  0.2115865650693181  1.0000
  C   C13       1.0  0.5231905662936426  0.3213892049911636  0.1691109721082427  1.0000
  C   C14       1.0  0.5842894423866127  0.3671738764034486  0.1247468991170919  1.0000
  C   C15       1.0  0.8605625452886086  0.0652477476910676  0.3449738993519205  1.0000
  C   C16       1.0  0.9550578837223183  0.09109599452111182  0.2907648044024285  1.0000
  C   C17       1.0  0.1045486482396853  0.063167397667435  0.2782552114565462  1.0000
  C   C18       1.0  0.2021213094667331  0.08811297922895281  0.23069050156800588  1.0000
  C   C19       1.0  0.1447096772029965  0.141634469446295  0.1959450041185704  1.0000
  C   C20       1.0  0.9940228239077271  0.16862227570697996  0.2074650888615608  1.0000
  C   C21       1.0  0.8965197532581041  0.1442457370026702  0.2546329356518058  1.0000
  C   C22       1.0  0.22347638891555724  0.18065954560611894  0.145153134472892  1.0000
  C   C23       1.0  0.9688105916668731  0.22528978727697077  0.1635921809618281  1.0000
  C   C24       1.0  0.27509221820434954  0.3316320891088012  0.9971293395069621  1.0000
  C   C25       1.0  0.23828890084585905  0.27513227842054994  0.0355757702208734  1.0000
  C   C26       1.0  0.1503941279346321  0.2876769704266239  0.0872930608388316  1.0000
  C   C27       1.0  0.10030977494322707  0.35594805303296073  0.09742788402951419  1.0000
  C   C28       1.0  0.1414085992499636  0.40901732478494074  0.05607086287706411  1.0000
  C   C29       1.0  0.7037991406380683  0.40700487434319405  0.9634548893173189  1.0000
  C   C30       1.0  0.7327426734317937  0.35008272203135965  0.9186847676519108  1.0000
  C   C31       1.0  0.8799403129195082  0.31696938324672885  0.9199227879141105  1.0000
  C   C32       1.0  0.9143557047690078  0.2651891687275665  0.8782886265518144  1.0000
  C   C33       1.0  0.795067163376622  0.24621215670018162  0.8362659770868603  1.0000
  C   C34       1.0  0.6474903154681257  0.27831936035942567  0.8356400821109914  1.0000
  C   C35       1.0  0.6136141995151688  0.3310038898347969  0.8756921024904614  1.0000
  C   C36       1.0  0.5440600836933811  0.24665961877833814  0.7873716612842117  1.0000
  C   C37       1.0  0.794009308484341  0.19392223422723734  0.7869717610771829  1.0000
  C   C38       1.0  0.5550515035968714  0.0402002569701949  0.6609532442258299  1.0000
  C   C39       1.0  0.6208957577587171  0.0817439965598794  0.7072160762727648  1.0000
  C   C40       1.0  0.5803323267524971  0.1524545880114303  0.711585744825328  1.0000
  C   C41       1.0  0.4767980852744813  0.1786078884117188  0.6691105657872285  1.0000
  C   C42       1.0  0.41569384271505777  0.13282387228186823  0.6247452354501135  1.0000
  C   C43       1.0  0.1394409503287832  0.4347578770389831  0.8449748309043486  1.0000
  C   C44       1.0  0.044936381742417104  0.4089027302093485  0.7907698509552928  1.0000
  C   C45       1.0  0.8954435685583917  0.4368274815441778  0.7782601297958678  1.0000
  C   C46       1.0  0.7978700837161908  0.41188094163558026  0.730695105501141  1.0000
  C   C47       1.0  0.8552809070089323  0.3583575419736603  0.695951612904615  1.0000
  C   C48       1.0  0.005966995196402518  0.3313714340094336  0.707472719241295  1.0000
  C   C49       1.0  0.10347115743319789  0.3557505261695013  0.7546404340978653  1.0000
  C   C50       1.0  0.7765322097630046  0.31933526000219814  0.6451558367088025  1.0000
  C   C51       1.0  0.031192573614156102  0.274707297767833  0.6636004131212374  1.0000
  C   C52       1.0  0.7249134659418316  0.1683669067361819  0.4971296544085959  1.0000
  C   C53       1.0  0.7617238820665547  0.22486742243439292  0.5355756851501638  1.0000
  C   C54       1.0  0.8496255339278347  0.21232321011159172  0.5872952709458019  1.0000
  C   C55       1.0  0.8997066673604763  0.1440538065688983  0.5974280144859136  1.0000
  C   C56       1.0  0.8585996329910442  0.0909825457465629  0.5560723862324579  1.0000
  C   C57       1.0  0.7038405137921941  0.9070067393926989  0.5365431953026416  1.0000
  C   C58       1.0  0.732778287616135  0.8500828389258788  0.5813134808138329  1.0000
  C   C59       1.0  0.8799680605543257  0.8169662712526462  0.5800733106702367  1.0000
  C   C60       1.0  0.914379775348216  0.7651896128243508  0.6217107757002864  1.0000
  C   C61       1.0  0.7950916693338427  0.746218835034739  0.6637357650719906  1.0000
  C   C62       1.0  0.6475157735292639  0.7783244490476307  0.6643620317065455  1.0000
  C   C63       1.0  0.6136386755029193  0.8310064886978948  0.6243058279737567  1.0000
  C   C64       1.0  0.544081235900201  0.7466640597826882  0.7126287602650264  1.0000
  C   C65       1.0  0.7940374920773435  0.6939251006386158  0.7130301194723927  1.0000
  C   C66       1.0  0.5550707695900811  0.5402047527345033  0.8390433437755219  1.0000
  C   C67       1.0  0.620930035362498  0.5817475900190842  0.7927835245187749  1.0000
  C   C68       1.0  0.5803526068480095  0.6524549075031344  0.7884124228712253  1.0000
  C   C69       1.0  0.4768164948053765  0.6786080481222285  0.8308875729109388  1.0000
  C   C70       1.0  0.41571199277127135  0.6328260240761593  0.8752520888343228  1.0000
  C   C71       1.0  0.13944935319162247  0.9347564432092029  0.6550281891273215  1.0000
  C   C72       1.0  0.044945133439796364  0.908906040923853  0.7092350694154916  1.0000
  C   C73       1.0  0.8954516617292965  0.9368330322850227  0.7217437764954157  1.0000
  C   C74       1.0  0.7978815249719842  0.9118879904423167  0.7693093722466599  1.0000
  C   C75       1.0  0.8552899018621501  0.8583616974054351  0.8040526550320095  1.0000
  C   C76       1.0  0.005973288225583036  0.8313749466744654  0.7925321273595854  1.0000
  C   C77       1.0  0.1034800085270362  0.8557514956207797  0.7453642805725451  1.0000
  C   C78       1.0  0.7765308260890434  0.8193456974138228  0.8548493969347888  1.0000
  C   C79       1.0  0.031189626919953615  0.7747101097767555  0.8364041494116918  1.0000
  C   C80       1.0  0.7249128666190001  0.668367821620734  0.0028714201655404  1.0000
  C   C81       1.0  0.7617188911774445  0.724869237805457  0.9644267611765258  1.0000
  C   C82       1.0  0.8496190784408596  0.712327756764587  0.9127068129957506  1.0000
  C   C83       1.0  0.8997020321650736  0.6440556049745182  0.9025728756596932  1.0000
  C   C84       1.0  0.8586105071688125  0.5909863537104982  0.9439307826775049  1.0000
  C   C85       1.0  0.29616850516401166  0.5929965291910831  0.0365409981027156  1.0000
  C   C86       1.0  0.2672278622697704  0.6499213527592219  0.0813097909899625  1.0000
  C   C87       1.0  0.12003685369507619  0.6830379059289982  0.080070441954426  1.0000
  C   C88       1.0  0.0856283043714114  0.7348154765157561  0.1217085896802672  1.0000
  C   C89       1.0  0.20491912500034457  0.7537845054883547  0.1637325679125112  1.0000
  C   C90       1.0  0.352491198078333  0.7216778210659031  0.1643597916741371  1.0000
  C   C91       1.0  0.3863642125155735  0.6689964786498095  0.1243033420064847  1.0000
  C   C92       1.0  0.4559290032384311  0.7533391817895562  0.2126277695827383  1.0000
  C   C93       1.0  0.2059711712417354  0.8060760095617425  0.2130289985690652  1.0000
  C   C94       1.0  0.4449420840701136  0.9597964256944208  0.3390435290620815  1.0000
  C   C95       1.0  0.37909053061824943  0.9182526656286571  0.2927824687266067  1.0000
  C   C96       1.0  0.4196579767230944  0.8475442159665008  0.2884128001837496  1.0000
  C   C97       1.0  0.5231884771978129  0.8213903724433037  0.33088930800542465  1.0000
  C   C98       1.0  0.584289070105413  0.8671743783311568  0.37525463833933503  1.0000
  C   C99       1.0  0.8605602732674312  0.5652478817879044  0.1550254858522493  1.0000
  C   C100      1.0  0.9550655102410204  0.591099834714406  0.20923135165158868  1.0000
  C   C101      1.0  0.10455254361924197  0.5631697408630173  0.22174284450839818  1.0000
  C   C102      1.0  0.20212873563752956  0.5881178862542171  0.2693065400217165  1.0000
  C   C103      1.0  0.14472034546646736  0.6416412927560203  0.3040526901972029  1.0000
  C   C104      1.0  0.9940359306244702  0.6686300685605743  0.2925298121518267  1.0000
  C   C105      1.0  0.8965321338276551  0.6442531079439392  0.24536121144279827  1.0000
  C   C106      1.0  0.22347092764341167  0.6806603842344002  0.3548484663854198  1.0000
  C   C107      1.0  0.9688200846218177  0.7252942321201131  0.3364034470688537  1.0000
  C   C108      1.0  0.2750959080720675  0.831636744447252  0.5028719911374111  1.0000
  C   C109      1.0  0.2382864344230811  0.7751346335084435  0.4644272891804633  1.0000
  C   C110      1.0  0.15038478256180102  0.7876788458312448  0.4127077033848323  1.0000
  C   C111      1.0  0.10030224984492266  0.8559471801803017  0.4025736310519932  1.0000
  C   C112      1.0  0.1413970273670273  0.9090178739876649  0.44393191686994976  1.0000
  N   N1        1.0  0.5463536019063397  0.4350614049856531  0.12048962448341172  1.0000
  N   N2        1.0  0.36087591821959103  0.30361029539683676  0.2587504026374958  1.0000
  N   N3        1.0  0.11570341240662428  0.2330826533203522  0.1291094010210685  1.0000
  N   N4        1.0  0.2284877181231764  0.3975095180600333  0.0070988514101629  1.0000
  N   N5        1.0  0.4536272758996062  0.06493683166847569  0.6204858622169382  1.0000
  N   N6        1.0  0.6391044097933332  0.19638064839923433  0.7587521537271229  1.0000
  N   N7        1.0  0.8843143687413996  0.26691736153932766  0.6291106588065247  1.0000
  N   N8        1.0  0.7715148026300085  0.1024893678773608  0.5070994037948182  1.0000
  N   N9        1.0  0.45364540016056054  0.5649384886718991  0.8795106922542785  1.0000
  N   N10       1.0  0.6391260026055292  0.6963853454079328  0.7412499140904245  1.0000
  N   N11       1.0  0.8843048364013198  0.7669215273260264  0.87089002987814  1.0000
  N   N12       1.0  0.7715197084499222  0.602489866616601  0.9929032370512729  1.0000
  N   N13       1.0  0.5463656434006053  0.9350630449111532  0.3795126827975182  1.0000
  N   N14       1.0  0.3608807534151808  0.803616543274032  0.2412490488496317  1.0000
  N   N15       1.0  0.1157017563991332  0.7330831128030582  0.37089010087723295  1.0000
  N   N16       1.0  0.22848569009305916  0.8975121278666193  0.4929035705256339  1.0000
  O   O1        1.0  0.41991078911372876  0.057346311535894784  0.4573982938366257  1.0000
  O   O2        1.0  0.19374262527256278  0.08278569008626849  0.5055401746296155  1.0000
  O   O3        1.0  0.09938942019786619  0.34355140062577766  0.2712896237657603  1.0000
  O   O4        1.0  0.5952186566001031  0.24237101227167557  0.2739765730309216  1.0000
  O   O5        1.0  0.7301327570249753  0.0939543479416614  0.35762880672633907  1.0000
  O   O6        1.0  0.9177434227633865  0.01627425660370111  0.3758016985937402  1.0000
  O   O7        1.0  0.8502599160302609  0.2585809561033017  0.154901011963652  1.0000
  O   O8        1.0  0.35423915596362576  0.1722790092880047  0.1215162929176188  1.0000
  O   O9        1.0  0.5800614364251118  0.44265223669209053  0.9573871938760801  1.0000
  O   O10       1.0  0.8062206389082078  0.41721839810168865  0.0055376424338434  1.0000
  O   O11       1.0  0.9005797864572002  0.1564374930612331  0.7712920421541937  1.0000
  O   O12       1.0  0.404764156170792  0.25761900876028687  0.7739751698091553  1.0000
  O   O13       1.0  0.2698806369354116  0.4060583413920327  0.8576253700895862  1.0000
  O   O14       1.0  0.08225324813053447  0.4837316233870226  0.8758014852160514  1.0000
  O   O15       1.0  0.14975275648467348  0.24141554561964537  0.654907929182194  1.0000
  O   O16       1.0  0.6457723341472172  0.327720387679534  0.6215139436281873  1.0000
  O   O17       1.0  0.580097671303619  0.9426520107909439  0.5426060092699956  1.0000
  O   O18       1.0  0.8062629163592874  0.9172168850775082  0.4944605850510015  1.0000
  O   O19       1.0  0.9006123179140814  0.6564431744112367  0.7287120217473274  1.0000
  O   O20       1.0  0.4047890728827283  0.7576230469366082  0.7260224149090675  1.0000
  O   O21       1.0  0.2698968752600237  0.9060610779941458  0.6423799257429293  1.0000
  O   O22       1.0  0.0822616620429173  0.9837256541159289  0.6241968464314098  1.0000
  O   O23       1.0  0.14974909249933432  0.741420563510957  0.8450957613516862  1.0000
  O   O24       1.0  0.6457801957463045  0.8277331920147046  0.8784924395333603  1.0000
  O   O25       1.0  0.4199154561009664  0.5573534538211149  0.04260559305812  1.0000
  O   O26       1.0  0.1937495313465547  0.5827835451414954  0.9944569162015355  1.0000
  O   O27       1.0  0.09940893505167028  0.8435591759731267  0.22871048921255976  1.0000
  O   O28       1.0  0.5952203385959435  0.7423813767844153  0.22601806004578856  1.0000
  O   O29       1.0  0.7301124651291174  0.5939426009850592  0.1423784900817679  1.0000
  O   O30       1.0  0.9177484322469097  0.5162767998582538  0.1241952881128867  1.0000
  O   O31       1.0  0.8502571945445254  0.7585843787678782  0.3450932734240624  1.0000
  O   O32       1.0  0.3542253888899651  0.6722720455819485  0.37849080238150634  1.0000
