data_image0
_chemical_formula_structural       Cd2H44C44N16Cl4
_chemical_formula_sum              "Cd2 H44 C44 N16 Cl4"
_cell_length_a       8.891711329003432
_cell_length_b       10.909088276134856
_cell_length_c       13.512851334129538
_cell_angle_alpha    108.27664685337044
_cell_angle_beta     89.99992586629908
_cell_angle_gamma    90.00008730731922

_space_group_name_H-M_alt    "P 1"
_space_group_IT_number       1

loop_
  _space_group_symop_operation_xyz
  'x, y, z'

loop_
  _atom_site_type_symbol
  _atom_site_label
  _atom_site_symmetry_multiplicity
  _atom_site_fract_x
  _atom_site_fract_y
  _atom_site_fract_z
  _atom_site_occupancy
  Cd  Cd1       1.0  0.999998066795641  0.5000007761142768  1.752304115137643e-07  1.0000
  Cd  Cd2       1.0  0.5000015889524292  0.49999878463172803  0.4999981154088216  1.0000
  H   H1        1.0  0.6636577390411346  0.13785053086325413  0.9322965552283049  1.0000
  H   H2        1.0  0.16366390550329163  0.8621548036266662  0.5677059259013929  1.0000
  H   H3        1.0  0.3363375663630634  0.8621518259498939  0.0677046177407661  1.0000
  H   H4        1.0  0.83633814775699  0.1378456225205937  0.43229474626826186  1.0000
  H   H5        1.0  0.3230584161223575  0.2963286237718065  0.03160482399198369  1.0000
  H   H6        1.0  0.8230656038119335  0.7036716915926815  0.468396775233394  1.0000
  H   H7        1.0  0.676941387852203  0.7036708448635808  0.968394859748535  1.0000
  H   H8        1.0  0.17693982337638664  0.2963277692216336  0.5316036465365597  1.0000
  H   H9        1.0  0.4478633354275772  0.32512016767526575  0.13783558783221384  1.0000
  H   H10       1.0  0.9478661786448582  0.6748793245563077  0.36216421012091604  1.0000
  H   H11       1.0  0.5521330946202455  0.674882196962372  0.8621648471053969  1.0000
  H   H12       1.0  0.05213587461687301  0.325121117238794  0.637834985986501  1.0000
  H   H13       1.0  0.7184165050532414  0.39005951412755024  0.12106065306129919  1.0000
  H   H14       1.0  0.2184238425790994  0.6099407185985867  0.37893879479684495  1.0000
  H   H15       1.0  0.2815754264242258  0.6099457386878413  0.8789412711048639  1.0000
  H   H16       1.0  0.781580459969163  0.39005973102156594  0.6210596632787783  1.0000
  H   H17       1.0  0.7122044463961217  0.4153180643581391  0.8160397678642253  1.0000
  H   H18       1.0  0.21220986884212317  0.5846738672654793  0.6839532743343494  1.0000
  H   H19       1.0  0.28779535757705327  0.5846804311186772  0.18396040350871343  1.0000
  H   H20       1.0  0.787794433705855  0.4153208294663386  0.31603999119352  1.0000
  H   H21       1.0  0.43928272398120777  0.31373435133868094  0.8540146138983429  1.0000
  H   H22       1.0  0.9392950082347152  0.6862577557854904  0.6459834583970119  1.0000
  H   H23       1.0  0.5607170799900062  0.6862612481341728  0.1459848062785127  1.0000
  H   H24       1.0  0.060716042166213006  0.31373785151698286  0.3540152237453497  1.0000
  H   H25       1.0  0.18833162974132733  0.1878209750558284  0.12299434546625317  1.0000
  H   H26       1.0  0.6883358242547998  0.8121762998620736  0.3770073213551938  1.0000
  H   H27       1.0  0.8116614263743074  0.8121794354390347  0.8770078027683323  1.0000
  H   H28       1.0  0.3116651043639679  0.18782509944318806  0.6229928631823822  1.0000
  H   H29       1.0  0.16684516826424564  0.0321102545389564  0.13723647505402425  1.0000
  H   H30       1.0  0.6668474313013988  0.9678889136114889  0.36276718150739357  1.0000
  H   H31       1.0  0.8331512617801593  0.967889198446876  0.8627646847497414  1.0000
  H   H32       1.0  0.33315349731590516  0.032112470045937896  0.637234479092413  1.0000
  H   H33       1.0  0.360647752948644  0.9836934430302192  0.27991788315145516  1.0000
  H   H34       1.0  0.8606440243809034  0.0163069182694215  0.2200829555136606  1.0000
  H   H35       1.0  0.639353175669541  0.0163060334296574  0.720081062557611  1.0000
  H   H36       1.0  0.13935465494994753  0.9836935000522117  0.779918454688129  1.0000
  H   H37       1.0  0.47834069065392265  0.16245131238481747  0.4609139842075221  1.0000
  H   H38       1.0  0.9783365960101306  0.8375520799107574  0.039086059042119765  1.0000
  H   H39       1.0  0.5216636118937642  0.8375472143899425  0.5390832350395981  1.0000
  H   H40       1.0  0.021662083322766493  0.16245027690409589  0.9609151139259421  1.0000
  H   H41       1.0  0.29366682869571986  0.36404166020263057  0.2698994242118501  1.0000
  H   H42       1.0  0.793668733016446  0.6359595985137573  0.23010170500107555  1.0000
  H   H43       1.0  0.7063307259929701  0.6359587659423481  0.7301012479591548  1.0000
  H   H44       1.0  0.20632994631579046  0.36404179296644656  0.7698992175682872  1.0000
  C   C1        1.0  0.468580313602125  0.1336566711613543  0.025715083816699295  1.0000
  C   C2        1.0  0.9685855434142211  0.8663437839419925  0.47428716620925104  1.0000
  C   C3        1.0  0.5314138671585269  0.8663447203165688  0.9742858387540064  1.0000
  C   C4        1.0  0.031414260559607506  0.1336556768694734  0.5257132555623796  1.0000
  C   C5        1.0  0.3761019414287717  0.053987544140405  0.06367212207918267  1.0000
  C   C6        1.0  0.876105144533298  0.9460118831469585  0.436326980859114  1.0000
  C   C7        1.0  0.6238944886170897  0.9460119244932699  0.9363275616623451  1.0000
  C   C8        1.0  0.1238980333711837  0.05399047367017571  0.563674192107598  1.0000
  C   C9        1.0  0.5909382433264978  0.07762204274661849  0.9628100012599458  1.0000
  C   C10       1.0  0.09093783374564171  0.922373580301418  0.5371885434132435  1.0000
  C   C11       1.0  0.4090581867179068  0.9223774102392212  0.0371911585438198  1.0000
  C   C12       1.0  0.9090619702281869  0.0776258805100483  0.4628118783583871  1.0000
  C   C13       1.0  0.4378765444725587  0.27722984159003516  0.053375797932218874  1.0000
  C   C14       1.0  0.937883810295247  0.7227696170451023  0.44662622009938946  1.0000
  C   C15       1.0  0.5621176362879368  0.7227734649093591  0.9466271014981228  1.0000
  C   C16       1.0  0.062119367606548806  0.27722983594415496  0.5533749397023511  1.0000
  C   C17       1.0  0.6811627795651206  0.3840220671516549  0.04318030661985258  1.0000
  C   C18       1.0  0.18116885140920394  0.6159742742826991  0.4568174239440167  1.0000
  C   C19       1.0  0.3188336504799382  0.6159783511688345  0.9568211035826121  1.0000
  C   C20       1.0  0.8188343264955762  0.3840242524914999  0.5431797953034374  1.0000
  C   C21       1.0  0.6737663135724715  0.39274492519644605  0.8843948388070683  1.0000
  C   C22       1.0  0.1737842827685654  0.6072420468957774  0.6156058308089029  1.0000
  C   C23       1.0  0.3262323657584574  0.6072545356144446  0.1156055829649034  1.0000
  C   C24       1.0  0.8262323908400049  0.39274773710595673  0.38439430106407696  1.0000
  C   C25       1.0  0.5380690870880757  0.34324304529296507  0.9023655186503488  1.0000
  C   C26       1.0  0.038066940038802996  0.6567534503582663  0.5976369982693439  1.0000
  C   C27       1.0  0.46192959224219976  0.6567554501832757  0.09763465272292386  1.0000
  C   C28       1.0  0.9619294900041452  0.3432459869797313  0.4023656375966523  1.0000
  C   C29       1.0  0.24893067303471378  0.10810353826955317  0.13912698148568126  1.0000
  C   C30       1.0  0.7489339228994042  0.8918957287665066  0.36087514980816576  1.0000
  C   C31       1.0  0.7510635077244744  0.8918978375605274  0.8608754171472693  1.0000
  C   C32       1.0  0.251067005717978  0.10810469738018469  0.6391255223618227  1.0000
  C   C33       1.0  0.3658225008024374  0.08826526903045108  0.3055285912101623  1.0000
  C   C34       1.0  0.8658193651202878  0.9117350975168462  0.1944722443528376  1.0000
  C   C35       1.0  0.63417505388567  0.9117332342691353  0.6944708421323325  1.0000
  C   C36       1.0  0.13417594028260277  0.0882653286269957  0.805528427818842  1.0000
  C   C37       1.0  0.4237472298041993  0.1770349271028735  0.3936258830994887  1.0000
  C   C38       1.0  0.9237418517898915  0.822968394184734  0.1063756689380781  1.0000
  C   C39       1.0  0.5762559480997849  0.8229645493581402  0.6063730626088953  1.0000
  C   C40       1.0  0.07625570290075251  0.17703492796420048  0.8936257544290168  1.0000
  C   C41       1.0  0.33126466526807263  0.28664058545952287  0.2986352148954622  1.0000
  C   C42       1.0  0.8312667699118136  0.7133607192062711  0.20136515374877453  1.0000
  C   C43       1.0  0.6687362633493095  0.7133598406871613  0.7013654572745337  1.0000
  C   C44       1.0  0.16873415870629316  0.286639714764341  0.7986347803901024  1.0000
  N   N1        1.0  0.5440328191469987  0.33979249451856214  0.0036563763804337876  1.0000
  N   N2        1.0  0.044042270003167495  0.6602056385327302  0.49634193718050296  1.0000
  N   N3        1.0  0.4559636108987917  0.6602079316258482  0.9963442957909119  1.0000
  N   N4        1.0  0.9559654064731404  0.33979384575447813  0.5036562704954122  1.0000
  N   N5        1.0  0.7614085464162129  0.4171961461884948  0.9727137260714823  1.0000
  N   N6        1.0  0.2614142717107839  0.5827977581751681  0.5272805254607816  1.0000
  N   N7        1.0  0.23859013291748005  0.5828052609395441  0.027285720435649793  1.0000
  N   N8        1.0  0.7385900308377842  0.4171988614020491  0.4727139788955909  1.0000
  N   N9        1.0  0.3069858074327314  0.15950784982796756  0.24603400785656493  1.0000
  N   N10       1.0  0.8069846720395191  0.8404924570580905  0.2539668629746997  1.0000
  N   N11       1.0  0.6930106226116736  0.8404916031578648  0.7539671519472004  1.0000
  N   N12       1.0  0.19301288264989583  0.15950797691080962  0.7460330711651862  1.0000
  N   N13       1.0  0.40142431268645135  0.29985209975688315  0.38808528708005946  1.0000
  N   N14       1.0  0.901422069059997  0.7001492916986222  0.11191356344699695  1.0000
  N   N15       1.0  0.5985777405759406  0.7001493073728611  0.6119141594260566  1.0000
  N   N16       1.0  0.0985754856308034  0.29985211542884826  0.8880858830604691  1.0000
  Cl  Cl1       1.0  0.0346021097161895  0.41093463797661656  0.16463328090713955  1.0000
  Cl  Cl2       1.0  0.5346037208889242  0.589064474314071  0.3353630746145979  1.0000
  Cl  Cl3       1.0  0.9653965696182355  0.5890667769753363  0.8353654275688664  1.0000
  Cl  Cl4       1.0  0.4653983323717341  0.4109311642795105  0.6646326554059879  1.0000
