data_image0
_chemical_formula_structural       Cd2H12C14S4N8O4
_chemical_formula_sum              "Cd2 H12 C14 S4 N8 O4"
_cell_length_a       7.758127988337102
_cell_length_b       8.769218797597413
_cell_length_c       8.613617020351493
_cell_angle_alpha    100.1880895604426
_cell_angle_beta     103.3986058700913
_cell_angle_gamma    99.08567823128323

_space_group_name_H-M_alt    "P 1"
_space_group_IT_number       1

loop_
  _space_group_symop_operation_xyz
  'x, y, z'

loop_
  _atom_site_type_symbol
  _atom_site_label
  _atom_site_symmetry_multiplicity
  _atom_site_fract_x
  _atom_site_fract_y
  _atom_site_fract_z
  _atom_site_occupancy
  Cd  Cd1       1.0  0.7388930175945491  0.7162463085420612  0.7971552160397336  1.0000
  Cd  Cd2       1.0  0.2610922327510822  0.2837443342033836  0.20282560207023434  1.0000
  H   H1        1.0  0.8015191533014487  0.42601283464147605  0.026617220608969178  1.0000
  H   H2        1.0  0.1984883633105738  0.57399900240096  0.9733884677102507  1.0000
  H   H3        1.0  0.6710667709294073  0.9864416647641651  0.5547317449949531  1.0000
  H   H4        1.0  0.32894050435525213  0.0135689231831577  0.4452782952820797  1.0000
  H   H5        1.0  0.6272417413982936  0.15215077291395573  0.02457812519587317  1.0000
  H   H6        1.0  0.3727687328691474  0.8478621995530062  0.9754330237596988  1.0000
  H   H7        1.0  0.7900762676317825  0.36413064867546296  0.4635506478863718  1.0000
  H   H8        1.0  0.20992729977828617  0.6358810997875607  0.5364588738182191  1.0000
  H   H9        1.0  0.817361180993835  0.16517593541089334  0.4125670503413302  1.0000
  H   H10       1.0  0.1826426199129614  0.8348370783400726  0.5874369598881657  1.0000
  H   H11       1.0  0.9990505888051118  0.31570741657429124  0.5489465410066358  1.0000
  H   H12       1.0  0.0009537444854004316  0.6843020035628414  0.45106035766862357  1.0000
  C   C1        1.0  0.7641890730707461  0.32807880466257433  0.9204407741693357  1.0000
  C   C2        1.0  0.235815517208394  0.6719318321840079  0.0795640915826894  1.0000
  C   C3        1.0  0.7863902054729195  0.2367566500844589  0.6516697380266547  1.0000
  C   C4        1.0  0.21361704631983974  0.7632539864413562  0.34833682369850993  1.0000
  C   C5        1.0  0.6967803965891904  0.08871271299342003  0.6551517194159969  1.0000
  C   C6        1.0  0.3032252792040779  0.9112966826940792  0.3448577665217697  1.0000
  C   C7        1.0  0.6734696695042288  0.18066237399212784  0.9211006680914905  1.0000
  C   C8        1.0  0.32654264049652687  0.8193470613755239  0.07891015898590577  1.0000
  C   C9        1.0  0.8516982343921313  0.2714507596721064  0.5108597928542054  1.0000
  C   C10       1.0  0.1483076983897647  0.7285598527248497  0.4891476601603201  1.0000
  C   C11       1.0  0.9193834100204727  0.9791850207025523  0.16059064483224722  1.0000
  C   C12       1.0  0.08059178563627263  0.02079417064241081  0.8394393267033421  1.0000
  C   C13       1.0  0.613283073996641  0.5878872111269333  0.38398776192315137  1.0000
  C   C14       1.0  0.3867132883796317  0.41208974423577166  0.6159612663911032  1.0000
  S   S1        1.0  0.7900960202760602  0.8053586905053367  0.13170438449633073  1.0000
  S   S2        1.0  0.2098807329737156  0.19462776871067433  0.8683157085344317  1.0000
  S   S3        1.0  0.5574437459997839  0.47653503630024135  0.19948277026038846  1.0000
  S   S4        1.0  0.4425536235842885  0.5234408398316788  0.8004592830667149  1.0000
  N   N1        1.0  0.6576010689174938  0.672116729107316  0.515783544739925  1.0000
  N   N2        1.0  0.3423756219928221  0.3278493994015578  0.4841640596783491  1.0000
  N   N3        1.0  0.011475399902465705  0.10688881706342812  0.1865158318198965  1.0000
  N   N4        1.0  0.9885121679132214  0.8930870625987668  0.8135043684880471  1.0000
  N   N5        1.0  0.8169323776032088  0.3581142658854546  0.7868057814022646  1.0000
  N   N6        1.0  0.18307221267592413  0.6418963709611277  0.21319908434976037  1.0000
  N   N7        1.0  0.6375947050043821  0.06024617854587433  0.786770726782727  1.0000
  N   N8        1.0  0.3624176206576379  0.9397632244361207  0.21324241932924076  1.0000
  O   O1        1.0  0.5504344404958204  0.9193603946401016  0.784766287635314  1.0000
  O   O2        1.0  0.4495853009153876  0.08064668731049103  0.21524789562153043  1.0000
  O   O3        1.0  0.8991984615340983  0.5005480343930911  0.7867909879307574  1.0000
  O   O4        1.0  0.10079787155427769  0.49946141909201447  0.21320850379050424  1.0000
