data_image0
_chemical_formula_structural       Zn4H32C52S4N4O16
_chemical_formula_sum              "Zn4 H32 C52 S4 N4 O16"
_cell_length_a       8.194009413
_cell_length_b       10.715570985789906
_cell_length_c       15.316
_cell_angle_alpha    90.0
_cell_angle_beta     90.0
_cell_angle_gamma    96.33488387183536

_space_group_name_H-M_alt    "P 1"
_space_group_IT_number       1

loop_
  _space_group_symop_operation_xyz
  'x, y, z'

loop_
  _atom_site_type_symbol
  _atom_site_label
  _atom_site_symmetry_multiplicity
  _atom_site_fract_x
  _atom_site_fract_y
  _atom_site_fract_z
  _atom_site_occupancy
  Zn  Zn1       1.0  0.855707140581252  0.4070133796701043  0.5273779054583445  1.0000
  Zn  Zn2       1.0  0.6442963626613434  0.0929846819049089  0.027373335074429406  1.0000
  Zn  Zn3       1.0  0.14429755279291356  0.5929846213892773  0.4726234003656273  1.0000
  Zn  Zn4       1.0  0.35570453401554397  0.907012380199795  0.9726227474536417  1.0000
  H   H1        1.0  0.5523479020339934  0.3654195652802841  0.4315839644815895  1.0000
  H   H2        1.0  0.9476558721805333  0.1345803742040843  0.9315852703055612  1.0000
  H   H3        1.0  0.4476543505326304  0.6345784357790976  0.5684134238704601  1.0000
  H   H4        1.0  0.052344752494342096  0.8654232605833769  0.0684114651345027  1.0000
  H   H5        1.0  0.2966799535816094  0.2185970999656632  0.4274399320971511  1.0000
  H   H6        1.0  0.2033217146455684  0.281405656382745  0.9274418908331159  1.0000
  H   H7        1.0  0.7033168743959805  0.7814055958671134  0.5725587620788704  1.0000
  H   H8        1.0  0.796681486322818  0.7185989173593939  0.07256137372682053  1.0000
  H   H9        1.0  0.483389724779407  0.0245189235442069  0.6473080438756824  1.0000
  H   H10       1.0  0.01660218021758909  0.47548383280420137  0.1473080438756824  1.0000
  H   H11       1.0  0.5166068322262517  0.9754818943792144  0.35269130321232484  1.0000
  H   H12       1.0  0.9833858339616555  0.5245169851192202  0.8526919561243177  1.0000
  H   H13       1.0  0.7348822460840339  0.1781722841517492  0.6403688952729141  1.0000
  H   H14       1.0  0.7651094595787312  0.3218285942872967  0.14036628362497086  1.0000
  H   H15       1.0  0.2651129550318884  0.8218275948169946  0.3596304518150931  1.0000
  H   H16       1.0  0.2348759783070021  0.6781712846814401  0.8596278401671427  1.0000
  H   H17       1.0  0.2171587946624243  0.9365847578287472  0.5781953512666504  1.0000
  H   H18       1.0  0.2828411223104226  0.5634141216696875  0.07820057456255113  1.0000
  H   H19       1.0  0.7828378978291965  0.0634169990493518  0.4218046487333496  1.0000
  H   H20       1.0  0.717154892751374  0.43658294043501666  0.9218079132932859  1.0000
  H   H21       1.0  0.0642429500220913  0.1317099897490408  0.4642106294071554  1.0000
  H   H22       1.0  0.4357537011040264  0.3682918276446898  0.96421258814312  1.0000
  H   H23       1.0  0.9357540134414676  0.8682936450384204  0.5357893705928447  1.0000
  H   H24       1.0  0.5642432633896062  0.631703356550652  0.03579655262470281  1.0000
  H   H25       1.0  0.1196346849311993  0.848841320944473  0.7021337163750305  1.0000
  H   H26       1.0  0.3803584525929438  0.6511528637805668  0.20214612170279625  1.0000
  H   H27       1.0  0.8803606527007588  0.1511510463868362  0.29785714285714  1.0000
  H   H28       1.0  0.6196363420650711  0.3488441983241373  0.7978649778009912  1.0000
  H   H29       1.0  0.9979991848834117  0.9720087010199662  0.8324562548968402  1.0000
  H   H30       1.0  0.5020029725326722  0.5279967511612256  0.3324653956646628  1.0000
  H   H31       1.0  0.0020033386551431996  0.027991177948777604  0.167539174719245  1.0000
  H   H32       1.0  0.4980052455367669  0.4720087615355979  0.6675437451031598  1.0000
  C   C1        1.0  0.5312094571571038  0.2883877233790599  0.4780425698615858  1.0000
  C   C2        1.0  0.9687907913320686  0.2116131550599931  0.9780432227735718  1.0000
  C   C3        1.0  0.46879076105987133  0.7116130945443615  0.5219561243144426  1.0000
  C   C4        1.0  0.031204816241754  0.7883895407727834  0.021953512666492307  1.0000
  C   C5        1.0  0.38831945589505773  0.20697190207952332  0.4771839905980642  1.0000
  C   C6        1.0  0.11167977152457098  0.2930308542688849  0.9771846435100573  1.0000
  C   C7        1.0  0.6116821182116539  0.7930298547985757  0.5228147035779573  1.0000
  C   C8        1.0  0.8883169209670498  0.7069709026092141  0.0228166623139217  1.0000
  C   C9        1.0  0.363861712575023  0.10938915910939778  0.5388893967093225  1.0000
  C   C10       1.0  0.1361334471753892  0.3906107803749705  0.038891355445287004  1.0000
  C   C11       1.0  0.6361355218604672  0.8906163535874186  0.4611119091146492  1.0000
  C   C12       1.0  0.8638616184545639  0.6093881596390887  0.9611119091146494  1.0000
  C   C13       1.0  0.49302634672081064  0.09870385485737641  0.5982423609297456  1.0000
  C   C14       1.0  0.006968134569696392  0.4012998404457164  0.09824170801775983  1.0000
  C   C15       1.0  0.5069753628718701  0.9012988409754072  0.4017569861582686  1.0000
  C   C16       1.0  0.993022184931128  0.5987000385230274  0.9017582919822403  1.0000
  C   C17       1.0  0.6333223672552394  0.1841158672726024  0.5951364586053813  1.0000
  C   C18       1.0  0.8666719147010369  0.3158859501211282  0.0951344998694168  1.0000
  C   C19       1.0  0.366675410154194  0.815884950650819  0.40486354139461883  1.0000
  C   C20       1.0  0.13331650593611497  0.684117684666333  0.9048622355706473  1.0000
  C   C21       1.0  0.21417507032090546  0.0230410088787707  0.5405791329328835  1.0000
  C   C22       1.0  0.28581900451170833  0.4769598695602824  0.0405817445808339  1.0000
  C   C23       1.0  0.7858214866847532  0.9769598090446507  0.459419561243145  1.0000
  C   C24       1.0  0.7141757901463137  0.5230371925444217  0.9594234787150671  1.0000
  C   C25       1.0  0.0725948577848641  0.0437712502914351  0.4992262992948541  1.0000
  C   C26       1.0  0.42739881058984946  0.456226811283571  0.9992315225907547  1.0000
  C   C27       1.0  0.927399664871153  0.956232384496019  0.5007730477931602  1.0000
  C   C28       1.0  0.5726018151150997  0.5437683729117708  0.0007789240010467  1.0000
  C   C29       1.0  0.9193084108552299  0.6378835562507277  0.6299915121441657  1.0000
  C   C30       1.0  0.5806925271871606  0.8621134453383519  0.129990206320187  1.0000
  C   C31       1.0  0.080693841711394  0.3621144448086611  0.37001044659179894  1.0000
  C   C32       1.0  0.4193045727924414  0.1378826778116746  0.8700091407678272  1.0000
  C   C33       1.0  0.8900921845031036  0.7260232320097231  0.701089057195091  1.0000
  C   C34       1.0  0.6099000752269106  0.7739728306246718  0.2010910159310555  1.0000
  C   C35       1.0  0.10990030483333871  0.2739747690496586  0.2989070253329871  1.0000
  C   C36       1.0  0.39009458394514235  0.2260232925253547  0.7989096369809374  1.0000
  C   C37       1.0  0.9977725535187075  0.8266312869570029  0.7297819273961894  1.0000
  C   C38       1.0  0.5022224179907795  0.6733666535867471  0.22978910942804737  1.0000
  C   C39       1.0  0.0022245464608871995  0.1733648361930165  0.27021154348393855  1.0000
  C   C40       1.0  0.4977776647402266  0.3266332253819897  0.7702161138678534  1.0000
  C   C41       1.0  0.9326527579452204  0.8922614021857953  0.7987842778793424  1.0000
  C   C42       1.0  0.5673502134167377  0.6077412331313496  0.2987921128231933  1.0000
  C   C43       1.0  0.0673474602717548  0.1077394157376261  0.2012098459127714  1.0000
  C   C44       1.0  0.4326622088379607  0.3922595847920647  0.7012124575607217  1.0000
  C   C45       1.0  0.7751190229569997  0.8417747480270065  0.8209303995821386  1.0000
  C   C46       1.0  0.7248828634871529  0.658228826244823  0.3209343170540606  1.0000
  C   C47       1.0  0.2248862123610351  0.1582270088510924  0.1790650300339536  1.0000
  C   C48       1.0  0.275127388931935  0.3417738695879535  0.6790656829459395  1.0000
  C   C49       1.0  0.6693312194078301  0.8869760262952298  0.8892191172629964  1.0000
  C   C50       1.0  0.8306834130179083  0.6130313037953172  0.3892184643510035  1.0000
  C   C51       1.0  0.3306851350301159  0.1130266695375468  0.11077957691303203  1.0000
  C   C52       1.0  0.16933714354514956  0.3869835984482961  0.6107802298250178  1.0000
  S   S1        1.0  0.7084395381687045  0.712834674582318  0.7583735962392242  1.0000
  S   S2        1.0  0.7915563827726257  0.7871613880520769  0.2583729433272381  1.0000
  S   S3        1.0  0.2915581037547597  0.2871652043864259  0.24162444502481156  1.0000
  S   S4        1.0  0.20844207309671248  0.2128356740526272  0.7416224862888472  1.0000
  N   N1        1.0  0.6528003000291206  0.278531516108977  0.536376338469573  1.0000
  N   N2        1.0  0.847198728056284  0.22146936233006898  0.03637437973360851  1.0000
  N   N3        1.0  0.3472024944813654  0.721470240769122  0.4636230086184413  1.0000
  N   N4        1.0  0.1527980999213128  0.7785333335027077  0.9636217027944625  1.0000
  O   O1        1.0  0.8206032718890626  0.537489582970359  0.6236758944894234  1.0000
  O   O2        1.0  0.6793923780803368  0.9625046017546808  0.12367393575345893  1.0000
  O   O3        1.0  0.17939694735798636  0.4625027843609502  0.3763267171585269  1.0000
  O   O4        1.0  0.3205983489084687  0.0374896434859835  0.876322799686605  1.0000
  O   O5        1.0  0.04090105851133069  0.6727056294924267  0.5807155915382582  1.0000
  O   O6        1.0  0.4590975036018534  0.8272838604592181  0.08071363280230062  1.0000
  O   O7        1.0  0.9590937371767652  0.327282982020165  0.4192844084617421  1.0000
  O   O8        1.0  0.5409033941051005  0.1727047510533737  0.9192831026377635  1.0000
  O   O9        1.0  0.5215294404872279  0.8349701434651066  0.8931235309480317  1.0000
  O   O10       1.0  0.9784792254056142  0.6650381255801179  0.3931241838600172  1.0000
  O   O11       1.0  0.47847701420450056  0.1650400640051046  0.10687581613998282  1.0000
  O   O12       1.0  0.021536043084452703  0.3349739597994557  0.606875816139983  1.0000
  O   O13       1.0  0.7356706843152523  0.974214305561972  0.9379661791590481  1.0000
  O   O14       1.0  0.7643467964060093  0.5257873908005024  0.43796748498302673  1.0000
  O   O15       1.0  0.2643439077750571  0.0257846344520942  0.062033167928966314  1.0000
  O   O16       1.0  0.23567484610493483  0.47421812189631396  0.5620344737529379  1.0000
