data_image0
_chemical_formula_structural       Ho4H36C40N16O40
_chemical_formula_sum              "Ho4 H36 C40 N16 O40"
_cell_length_a       9.227069125
_cell_length_b       10.867045675875145
_cell_length_c       14.259
_cell_angle_alpha    104.89251570759565
_cell_angle_beta     90.0
_cell_angle_gamma    90.0

_space_group_name_H-M_alt    "P 1"
_space_group_IT_number       1

loop_
  _space_group_symop_operation_xyz
  'x, y, z'

loop_
  _atom_site_type_symbol
  _atom_site_label
  _atom_site_symmetry_multiplicity
  _atom_site_fract_x
  _atom_site_fract_y
  _atom_site_fract_z
  _atom_site_occupancy
  Ho  Ho1       1.0  0.3737199703703311  0.0422871112857024  0.7645686063317216  1.0000
  Ho  Ho2       1.0  0.8737194759012894  0.45771203611624867  0.7354319981129934  1.0000
  Ho  Ho3       1.0  0.626280124459349  0.9577121357161574  0.23543278906416287  1.0000
  Ho  Ho4       1.0  0.1262806189283836  0.5422891152815197  0.2645683676729078  1.0000
  H   H1        1.0  0.6059616465699803  0.7205786608148301  0.016272219857427224  1.0000
  H   H2        1.0  0.105962141039015  0.779422590182847  0.48372753425673676  1.0000
  H   H3        1.0  0.39403953202745606  0.2794224905829381  0.9837253406826607  1.0000
  H   H4        1.0  0.8940379537906651  0.22058141780879484  0.5162747936714356  1.0000
  H   H5        1.0  0.10911698897671579  0.6850940517364066  0.9251974575554204  1.0000
  H   H6        1.0  0.609118662043187  0.8149062470633127  0.5748035126751959  1.0000
  H   H7        1.0  0.8908820220852077  0.3149070996613688  0.07480290823048112  1.0000
  H   H8        1.0  0.3908825165542495  0.18509490433445563  0.4251975544221551  1.0000
  H   H9        1.0  0.0964975972259197  0.8052785735165955  0.7311111675805935  1.0000
  H   H10       1.0  0.5964981865246415  0.6947226774810815  0.768887885222121  1.0000
  H   H11       1.0  0.9035035813715098  0.19472448227708844  0.26888886990676764  1.0000
  H   H12       1.0  0.4035029920727951  0.3052765695207782  0.23111280886231364  1.0000
  H   H13       1.0  0.4439893041334528  0.40947654419101553  0.8428590966564401  1.0000
  H   H14       1.0  0.9439898934321674  0.0905235554088932  0.657139590360373  1.0000
  H   H15       1.0  0.5560107906962272  0.5905246072067527  0.15714126912946116  1.0000
  H   H16       1.0  0.0560091176297561  0.9094785481868399  0.34286026062052605  1.0000
  H   H17       1.0  0.8415218196384728  0.058603023284810304  0.9487904131382409  1.0000
  H   H18       1.0  0.341523397875271  0.4413989807110141  0.5512093482029385  1.0000
  H   H19       1.0  0.1584771914234437  0.9413981281129651  0.05120855002475376  1.0000
  H   H20       1.0  0.6584766969544091  0.5586021706867541  0.44879101758295564  1.0000
  H   H21       1.0  0.5860636705699348  0.9292252294262582  0.8729402483845308  1.0000
  H   H22       1.0  0.0860619975034567  0.570775069373461  0.6270607218460783  1.0000
  H   H23       1.0  0.41393750802750157  0.0707759219715101  0.12705871477846392  1.0000
  H   H24       1.0  0.9139370135584598  0.4292260820243143  0.3729403452512728  1.0000
  H   H25       1.0  0.5563402560940531  0.0732668718279257  0.934661420356406  1.0000
  H   H26       1.0  0.0563396667953313  0.4267341799699409  0.5653388557897757  1.0000
  H   H27       1.0  0.4436620062711398  0.9267361839657583  0.06533861713096203  1.0000
  H   H28       1.0  0.9436604280343488  0.5732669714278273  0.4346636139304821  1.0000
  H   H29       1.0  0.34642094436460263  0.8912668100546527  0.5592566699162093  1.0000
  H   H30       1.0  0.8464215336633245  0.608731584349151  0.9407432259900332  1.0000
  H   H31       1.0  0.6535769829295573  0.1087314847492422  0.44074383766177055  1.0000
  H   H32       1.0  0.1535785611663556  0.3912686148506594  0.059256251977956316  1.0000
  H   H33       1.0  0.2087098269137542  0.9832472283382786  0.5832634231377016  1.0000
  H   H34       1.0  0.7087114999802253  0.5167530704614407  0.9167368457814649  1.0000
  H   H35       1.0  0.7912902679159259  0.0167529708615319  0.41673675614174505  1.0000
  H   H36       1.0  0.2912907623849605  0.4832480809363346  0.08326422131588632  1.0000
  C   C1        1.0  0.1642233280657237  0.2941396622116699  0.7394209447275629  1.0000
  C   C2        1.0  0.664225001132202  0.2058613895861967  0.7605793314186188  1.0000
  C   C3        1.0  0.8357756829961999  0.7058605369881477  0.26057993586333345  1.0000
  C   C4        1.0  0.3357740099297217  0.7941407140095293  0.23942192218519415  1.0000
  C   C5        1.0  0.2107928285407752  0.417999668107214  0.8047115582478385  1.0000
  C   C6        1.0  0.7107934178394898  0.0819994792947369  0.6952897475083263  1.0000
  C   C7        1.0  0.7892072662889049  0.5819995788946457  0.19528983714804585  1.0000
  C   C8        1.0  0.2892077607579395  0.9180007199050736  0.3047118343940199  1.0000
  C   C9        1.0  0.3431956515227697  0.4622987736767783  0.849575367809763  1.0000
  C   C10       1.0  0.8431951570537278  0.0377013259231234  0.6504233192070503  1.0000
  C   C11       1.0  0.6568044433069105  0.5377014255230321  0.15042411015822676  1.0000
  C   C12       1.0  0.1568038540081957  0.9622988732766872  0.34957545744948254  1.0000
  C   C13       1.0  0.3143923558717248  0.5864930010553522  0.9030947104027974  1.0000
  C   C14       1.0  0.8143929451704395  0.9135034889525357  0.596903409867629  1.0000
  C   C15       1.0  0.6856066551901987  0.41350434155058485  0.09690350673436403  1.0000
  C   C16       1.0  0.1856071496592335  0.0864938536534083  0.4030955085809893  1.0000
  C   C17       1.0  0.4058341765159383  0.6880715747490243  0.9627033085952522  1.0000
  C   C18       1.0  0.9058336820468965  0.8119192020711239  0.5372971991936881  1.0000
  C   C19       1.0  0.5941670020814982  0.3119200546691729  0.0372965947489732  1.0000
  C   C20       1.0  0.0941664127827835  0.1880733795450311  0.4627042932798987  1.0000
  C   C21       1.0  0.14131356147177598  0.1825115912761817  0.9406365795847123  1.0000
  C   C22       1.0  0.6413119832349778  0.3174904127196427  0.559358973887754  1.0000
  C   C23       1.0  0.8586876171256604  0.8174905123195515  0.059359764838930615  1.0000
  C   C24       1.0  0.3586870278269458  0.6825097864801677  0.4406412053916854  1.0000
  C   C25       1.0  0.062580001534343  0.0674756038513493  0.8861913702887777  1.0000
  C   C26       1.0  0.5625784232975519  0.43252449574855234  0.6138073167280427  1.0000
  C   C27       1.0  0.937420093295337  0.9325245953484612  0.11380600374485544  1.0000
  C   C28       1.0  0.4374195039966152  0.5674757034512581  0.3861942651743036  1.0000
  C   C29       1.0  0.9261272332778815  0.015853143791837  0.8981945632234061  1.0000
  C   C30       1.0  0.426124476443654  0.48414600361010685  0.6018088464671225  1.0000
  C   C31       1.0  0.0738728615517985  0.9841480076059312  0.10180510125104557  1.0000
  C   C32       1.0  0.5738756183860261  0.5158551477876614  0.3981922206302287  1.0000
  C   C33       1.0  0.9265434000961789  0.8955126607464551  0.8327490778612872  1.0000
  C   C34       1.0  0.4265460621007335  0.60448954244918  0.6672515640707888  1.0000
  C   C35       1.0  0.07345344343023189  0.10448944284927111  0.16725077311961914  1.0000
  C   C36       1.0  0.5734562002644594  0.3955116089485884  0.3327481004036558  1.0000
  C   C37       1.0  0.8255785121800514  0.7856690087830316  0.812636688825876  1.0000
  C   C38       1.0  0.32558009041684943  0.7143312900166876  0.6873649827161901  1.0000
  C   C39       1.0  0.1744204988818723  0.2143321426147367  0.18736297564857557  1.0000
  C   C40       1.0  0.6744200044128305  0.285667956985165  0.3126357113682446  1.0000
  N   N1        1.0  0.1716373832844766  0.6096923520881107  0.8881794648665108  1.0000
  N   N2        1.0  0.6716379725831985  0.8903088989095665  0.6118195879362035  1.0000
  N   N3        1.0  0.828361627777447  0.3903087993096577  0.11182019960793353  1.0000
  N   N4        1.0  0.32836212224648154  0.10969320468616671  0.38817956173324575  1.0000
  N   N5        1.0  0.1078316404181052  0.5093868670634123  0.8294436916891217  1.0000
  N   N6        1.0  0.6078311459490635  0.990613431736307  0.6705572785414945  1.0000
  N   N7        1.0  0.8921695381793313  0.49061333213639813  0.17055648759032496  1.0000
  N   N8        1.0  0.3921689488806095  0.0093877196614685  0.3294437885558566  1.0000
  N   N9        1.0  0.13812836803690937  0.9853582512097177  0.8159042731271599  1.0000
  N   N10       1.0  0.6381278735678677  0.5146410953920437  0.6840944066626451  1.0000
  N   N11       1.0  0.8618717267927706  0.0146400435941842  0.18409342920501365  1.0000
  N   N12       1.0  0.36187113749404887  0.4853591038077667  0.3159064739282513  1.0000
  N   N13       1.0  0.0553946213121037  0.8830407719011505  0.7851543823496955  1.0000
  N   N14       1.0  0.555396294378582  0.6169595268985688  0.7148444839465642  1.0000
  N   N15       1.0  0.9446033059820634  0.11695847510070932  0.2148442078003896  1.0000
  N   N16       1.0  0.44460380045109815  0.3830416244991994  0.285156583150787  1.0000
  O   O1        1.0  0.0743887350036516  0.2651319036391016  0.0042869362464017955  1.0000
  O   O2        1.0  0.5743882405346099  0.2348672437628423  0.4957101616410498  1.0000
  O   O3        1.0  0.9256113598260284  0.7348692477586667  0.9957092216707795  1.0000
  O   O4        1.0  0.42561077052730667  0.7651320032390103  0.5042912337548416  1.0000
  O   O5        1.0  0.276880986301272  0.186911698037072  0.9189694968280477  1.0000
  O   O6        1.0  0.776877240528961  0.313087449364879  0.5810311076166672  1.0000
  O   O7        1.0  0.723121276063921  0.8130885011627457  0.08102998113994182  1.0000
  O   O8        1.0  0.2231217705329556  0.6869127498349314  0.418970474285679  1.0000
  O   O9        1.0  0.0364904603443108  0.2909183765219652  0.704969949900061  1.0000
  O   O10       1.0  0.5364910496430254  0.20908267527589433  0.795028923623214  1.0000
  O   O11       1.0  0.9635096344853693  0.7090818226778453  0.29502952806792854  1.0000
  O   O12       1.0  0.4635079614188982  0.7909194283198319  0.20497092735769235  1.0000
  O   O13       1.0  0.2479378846097049  0.1992331396051199  0.722327556916291  1.0000
  O   O14       1.0  0.7479384739084195  0.3007679121927467  0.7776713166069842  1.0000
  O   O15       1.0  0.7520632939877316  0.8007680117926554  0.2776714062467036  1.0000
  O   O16       1.0  0.2520616209212605  0.6992332392050216  0.22232975049036705  1.0000
  O   O17       1.0  0.5393131808796311  0.6502083751731504  0.9758761674337536  1.0000
  O   O18       1.0  0.0393093402776472  0.8497862104388219  0.52412298244667  1.0000
  O   O19       1.0  0.4606912490210675  0.349787063036878  0.024120975379048615  1.0000
  O   O20       1.0  0.9606885870165199  0.1502120843650729  0.47587962906566633  1.0000
  O   O21       1.0  0.3573604960936052  0.7969649331510169  0.9945953401870612  1.0000
  O   O22       1.0  0.8573610853923269  0.7030220348773  0.5054002137073326  1.0000
  O   O23       1.0  0.6426406825038313  0.2030238396733068  0.0053983931461730065  1.0000
  O   O24       1.0  0.1426390094373531  0.2969676901449816  0.49459721268961954  1.0000
  O   O25       1.0  0.8796108374228737  0.6794570398289181  0.7668179343188373  1.0000
  O   O26       1.0  0.3796091643564026  0.820543258970801  0.7331816332888721  1.0000
  O   O27       1.0  0.1203903411745628  0.3205431593708923  0.23318224496060946  1.0000
  O   O28       1.0  0.6203909304732775  0.1794550358331009  0.26681887428910767  1.0000
  O   O29       1.0  0.6948501103810683  0.8035760435688672  0.840874475014765  1.0000
  O   O30       1.0  0.1948495210823538  0.6964223508349434  0.6591303300716478  1.0000
  O   O31       1.0  0.3051499844486116  0.1964251078289081  0.15912518945967954  1.0000
  O   O32       1.0  0.8051494899795699  0.3035768961669163  0.34086966270133706  1.0000
  O   O33       1.0  0.513646309114435  0.999912596987734  0.8859273365560159  1.0000
  O   O34       1.0  0.0136446360479638  0.500088654009943  0.6140731188696053  1.0000
  O   O35       1.0  0.4863570370185144  9.04588059498e-05  0.11407270093134513  1.0000
  O   O36       1.0  0.9863532912462033  0.49991249738783244  0.3859272469162961  1.0000
  O   O37       1.0  0.3097256519144125  0.9757724743731231  0.6007901602652128  1.0000
  O   O38       1.0  0.8097262412131343  0.5242268722286383  0.899209922147492  1.0000
  O   O39       1.0  0.6902744429152604  0.0242277248266873  0.39921001901423386  1.0000
  O   O40       1.0  0.19027493738430215  0.4757733269711721  0.10079095844339755  1.0000
