data_image0
_chemical_formula_structural       Zr6H25C50Cl5O34
_chemical_formula_sum              "Zr6 H25 C50 Cl5 O34"
_cell_length_a       14.782881253492103
_cell_length_b       14.786735410914632
_cell_length_c       14.81151758140132
_cell_angle_alpha    60.309774017436894
_cell_angle_beta     59.94969117243693
_cell_angle_gamma    60.09468761659143

_space_group_name_H-M_alt    "P 1"
_space_group_IT_number       1

loop_
  _space_group_symop_operation_xyz
  'x, y, z'

loop_
  _atom_site_type_symbol
  _atom_site_label
  _atom_site_symmetry_multiplicity
  _atom_site_fract_x
  _atom_site_fract_y
  _atom_site_fract_z
  _atom_site_occupancy
  Zr  Zr1       1.0  0.8796318402064569  0.881702573324553  0.6184049736408284  1.0000
  Zr  Zr2       1.0  0.12013284014204119  0.11778200013689138  0.3819819148492627  1.0000
  Zr  Zr3       1.0  0.11805324838663724  0.8814373576310786  0.6184518128123244  1.0000
  Zr  Zr4       1.0  0.8806535479412503  0.12008343252345097  0.379831731296882  1.0000
  Zr  Zr5       1.0  0.1191838904218371  0.881389286487483  0.3787009298072306  1.0000
  Zr  Zr6       1.0  0.8797031746700269  0.12131566146857856  0.618421366633001  1.0000
  H   H1        1.0  0.09262447977305757  0.7190881408286031  0.5928817665059399  1.0000
  H   H2        1.0  0.09510952116237796  0.09373468099477118  0.21791084632502591  1.0000
  H   H3        1.0  0.0937231345175178  0.09396824249461833  0.5941849042900316  1.0000
  H   H4        1.0  0.7170622892431168  0.09546175345487033  0.5933166929500969  1.0000
  H   H5        1.0  0.8503136049269101  0.5853394003036739  0.641450663218045  1.0000
  H   H6        1.0  0.14486145621420127  0.5902386381900085  0.35501698265646553  1.0000
  H   H7        1.0  0.8589087377354898  0.4145882397755543  0.6350451040268867  1.0000
  H   H8        1.0  0.5843631981046897  0.8516932603887426  0.9214873040245453  1.0000
  H   H9        1.0  0.5952057510823179  0.14018254557873175  0.914726491576104  1.0000
  H   H10       1.0  0.4158431219635401  0.8580302992099291  0.09223751887565614  1.0000
  H   H11       1.0  0.14111664639187876  0.8516739980276212  0.08225545568610237  1.0000
  H   H12       1.0  0.8523008109758408  0.14303379113881914  0.09243553862156516  1.0000
  H   H13       1.0  0.13367916492340734  0.8592887112306541  0.9131743980909236  1.0000
  H   H14       1.0  0.5820845829252475  0.4251187716791022  0.6410819960718186  1.0000
  H   H15       1.0  0.5933331331734235  0.41224411323244675  0.3519266443126483  1.0000
  H   H16       1.0  0.4128941865829178  0.594027124404647  0.6333031539647822  1.0000
  H   H17       1.0  0.7427842384341543  0.6281121154582862  0.9592763997648889  1.0000
  H   H18       1.0  0.8300024275888236  0.5428806102660744  0.8735170616522012  1.0000
  H   H19       1.0  0.8300087626701255  0.3735599341788783  0.042278316137931336  1.0000
  H   H20       1.0  0.7426734305840126  0.45883214323790594  0.1279965254013078  1.0000
  H   H21       1.0  0.5834251997084577  0.14151982649145362  0.3514775476806946  1.0000
  H   H22       1.0  0.5928229142448489  0.8535962905875252  0.6411593325522985  1.0000
  H   H23       1.0  0.41367248039886545  0.1332462121997792  0.3598142914500428  1.0000
  H   H24       1.0  0.14917083410076512  0.3505300988701094  0.15523448899393347  1.0000
  H   H25       1.0  0.1476954400867714  0.658154667102245  0.8486855154204421  1.0000
  C   C1        1.0  0.994588984896481  0.700691207262089  0.49719946826495953  1.0000
  C   C2        1.0  0.30814339603061547  0.9989080874802169  0.1998080704115425  1.0000
  C   C3        1.0  0.0007472506513935135  0.30632134213158213  0.4947570510600556  1.0000
  C   C4        1.0  0.6991550137656547  0.996661926306693  0.8056573012017553  1.0000
  C   C5        1.0  0.9954847581212432  0.6994412910113326  0.8066848892521679  1.0000
  C   C6        1.0  0.6993536556712454  0.9988148757619156  0.49457046396217674  1.0000
  C   C7        1.0  0.996614805875751  0.30709731404045465  0.1982124245661794  1.0000
  C   C8        1.0  0.3065499019694896  0.9928668010723172  0.5007368615663951  1.0000
  C   C9        1.0  0.30587786439944836  0.6997418178752852  0.4929322851856099  1.0000
  C   C10       1.0  0.9928540914597547  0.0005904741582866038  0.806292914603226  1.0000
  C   C11       1.0  0.6994035561901342  0.30805514403084516  0.49734486111059073  1.0000
  C   C12       1.0  0.9979161172096477  0.9960084607341314  0.1985198950236085  1.0000
  C   C13       1.0  0.0048536844243827135  0.4067718294922855  0.491968200227248  1.0000
  C   C14       1.0  0.9966466163158143  0.5986275018383792  0.4972913864499874  1.0000
  C   C15       1.0  0.08712933420404322  0.45656708832763837  0.4129403294993352  1.0000
  C   C16       1.0  0.9158153385048207  0.5490648232700791  0.5776524685802471  1.0000
  C   C17       1.0  0.08180243364331823  0.5518708926548044  0.4161498410805748  1.0000
  C   C18       1.0  0.9207079346861916  0.45475320334899255  0.5739668095887467  1.0000
  C   C19       1.0  0.409971083613378  0.001890361634842482  0.09934936543131562  1.0000
  C   C20       1.0  0.5996427035113143  0.9959982977421403  0.9081373476965807  1.0000
  C   C21       1.0  0.46164833600055016  0.08228993682312334  0.0483072775552813  1.0000
  C   C22       1.0  0.5496556466194422  0.9156295600033246  0.95763218385229  1.0000
  C   C23       1.0  0.5556421540636333  0.07831955739731458  0.9537487040382757  1.0000
  C   C24       1.0  0.45641244402033027  0.9194070344473599  0.05184088163450453  1.0000
  C   C25       1.0  0.9896227540615923  0.004040290789255499  0.9073083754654759  1.0000
  C   C26       1.0  0.9964559945323185  0.9969368866011621  0.09780621836429754  1.0000
  C   C27       1.0  0.909899768231959  0.08516158633258898  0.9587819765475487  1.0000
  C   C28       1.0  0.07666772080241206  0.91650857777109  0.047370604902639175  1.0000
  C   C29       1.0  0.9139939269355181  0.08063883996679505  0.05305628959222727  1.0000
  C   C30       1.0  0.07230092831283488  0.9209069451439545  0.9537770292129866  1.0000
  C   C31       1.0  0.4073655170831359  0.5989038765342585  0.4892942598732973  1.0000
  C   C32       1.0  0.5984407051977026  0.4091264753865644  0.49600043269124683  1.0000
  C   C33       1.0  0.4592800163703998  0.5461413850546891  0.4094323858230028  1.0000
  C   C34       1.0  0.5475567435955284  0.45968322715259546  0.5763653164491842  1.0000
  C   C35       1.0  0.5538162684171581  0.4525196435630078  0.4134878429871949  1.0000
  C   C36       1.0  0.45375692824653413  0.5530939287010311  0.5719765293949095  1.0000
  C   C37       1.0  0.9967328247662193  0.6006572087004898  0.9051505185975872  1.0000
  C   C38       1.0  0.9971152952158487  0.40586264203625433  0.09949328112841742  1.0000
  C   C39       1.0  0.9171260737831658  0.5488123232481641  0.9556905135488807  1.0000
  C   C40       1.0  0.07938274337494988  0.45549919511511666  0.05002791099764188  1.0000
  C   C41       1.0  0.9172310592697241  0.4559291989892245  0.04837187224310209  1.0000
  C   C42       1.0  0.07910449680189653  0.5518877571972426  0.9540289986276348  1.0000
  C   C43       1.0  0.8159264358883294  0.5544404488750843  0.9479486935705734  1.0000
  C   C44       1.0  0.8159557240261107  0.4478399203666256  0.05423400821550223  1.0000
  C   C45       1.0  0.40767622298865563  0.9897933571413375  0.5038914204171051  1.0000
  C   C46       1.0  0.5984532562356005  0.9972175835699844  0.4957862963075286  1.0000
  C   C47       1.0  0.4588862230226098  0.910464315962713  0.5843661415621783  1.0000
  C   C48       1.0  0.5482120028306381  0.07711392022329727  0.41600814149322923  1.0000
  C   C49       1.0  0.5534512640162319  0.9148127694940129  0.5793358885544893  1.0000
  C   C50       1.0  0.4543888235752789  0.07245915461233922  0.42081629207710597  1.0000
  Cl  Cl1       1.0  0.19862984187638233  0.40819242775619097  0.3085091765390615  1.0000
  Cl  Cl2       1.0  0.4166135225205848  0.19027273852403678  0.09337117826649431  1.0000
  Cl  Cl3       1.0  0.8033381047145411  0.19459754629442483  0.9130646171757134  1.0000
  Cl  Cl4       1.0  0.41341462113910415  0.5885689582251601  0.3031136520410557  1.0000
  Cl  Cl5       1.0  0.41224189583746806  0.8044298512297628  0.693626415467293  1.0000
  O   O1        1.0  0.9179602622851558  0.7390816559130897  0.574958837963507  1.0000
  O   O2        1.0  0.26566973076426587  0.07366120409251656  0.24283559481959566  1.0000
  O   O3        1.0  0.07629584626082662  0.2632351845143432  0.4201257109943341  1.0000
  O   O4        1.0  0.7369216387807069  0.9206968821367383  0.7654045643837791  1.0000
  O   O5        1.0  0.0739377064917333  0.7400553947540517  0.7651359109885973  1.0000
  O   O6        1.0  0.7373772301829362  0.07652514086707628  0.41868450528480844  1.0000
  O   O7        1.0  0.9209344726674329  0.2659604626836438  0.2383738244966054  1.0000
  O   O8        1.0  0.26381181336577697  0.9181805610968041  0.5753770940071591  1.0000
  O   O9        1.0  0.26419539138199605  0.7422012661217822  0.4176044127087267  1.0000
  O   O10       1.0  0.9187087260633573  0.07634598134044508  0.7635593047434596  1.0000
  O   O11       1.0  0.7373239696789682  0.26906291189137477  0.5748944104375652  1.0000
  O   O12       1.0  0.07601137295532825  0.9200148385831566  0.23591325629379178  1.0000
  O   O13       1.0  0.07065927986799675  0.9226573558289672  0.7686038689296096  1.0000
  O   O14       1.0  0.739231651250961  0.2673602307555425  0.42131052034893207  1.0000
  O   O15       1.0  0.9215374334305292  0.0725694170031231  0.2387084194452954  1.0000
  O   O16       1.0  0.26683302414602394  0.7359791292741704  0.572151414381672  1.0000
  O   O17       1.0  0.9199254078980484  0.7396078344162405  0.7660756046478878  1.0000
  O   O18       1.0  0.26866935560808963  0.07102445959176149  0.4241013786626979  1.0000
  O   O19       1.0  0.07458106624822142  0.2660888998694659  0.2385414535114023  1.0000
  O   O20       1.0  0.7388628092527512  0.9229106746627521  0.5709398366798626  1.0000
  O   O21       1.0  0.7378277150071781  0.07419012987421071  0.7650746096422695  1.0000
  O   O22       1.0  0.07064149936832115  0.7409985400277606  0.42013644907838454  1.0000
  O   O23       1.0  0.2691730955766403  0.9228039760207667  0.2351522034322217  1.0000
  O   O24       1.0  0.9224273885696658  0.26943408869986735  0.5722245347902515  1.0000
  O   O25       1.0  0.7974400464065212  0.06865859910259797  0.5663287791734674  1.0000
  O   O26       1.0  0.06673965764800728  0.06728652590482655  0.5674894339611781  1.0000
  O   O27       1.0  0.06770175429420532  0.06699015505513023  0.2979417803889106  1.0000
  O   O28       1.0  0.06593256026509664  0.7991512288660515  0.5662601612606865  1.0000
  O   O29       1.0  0.14852295618046454  0.9499132982119818  0.45024193385655326  1.0000
  O   O30       1.0  0.9499595729958442  0.9512319639064652  0.4494510219271962  1.0000
  O   O31       1.0  0.9503847489150912  0.14916239707115148  0.4501501605465704  1.0000
  O   O32       1.0  0.9491679824332877  0.951784772043069  0.6479415280780073  1.0000
  O   O33       1.0  0.1614848625968933  0.416470542589181  0.08892720190264215  1.0000
  O   O34       1.0  0.16086134427690252  0.5920555465560611  0.9144233704292972  1.0000
