data_image0
_chemical_formula_structural       Rb2H26C34S2O18
_chemical_formula_sum              "Rb2 H26 C34 S2 O18"
_cell_length_a       6.031337224606151
_cell_length_b       11.517184945271742
_cell_length_c       12.663155255441913
_cell_angle_alpha    91.03965917338337
_cell_angle_beta     98.36473834979255
_cell_angle_gamma    91.57903801024827

_space_group_name_H-M_alt    "P 1"
_space_group_IT_number       1

loop_
  _space_group_symop_operation_xyz
  'x, y, z'

loop_
  _atom_site_type_symbol
  _atom_site_label
  _atom_site_symmetry_multiplicity
  _atom_site_fract_x
  _atom_site_fract_y
  _atom_site_fract_z
  _atom_site_occupancy
  Rb  Rb1       1.0  0.2778851923799266  0.1373198518525456  0.0393217922196385  1.0000
  Rb  Rb2       1.0  0.7221036439289535  0.8626872131564836  0.960679964483738  1.0000
  H   H1        1.0  0.9225283736823543  0.7865242837133407  0.7003145988179612  1.0000
  H   H2        1.0  0.0774678367244022  0.2134731099746361  0.2996890112080735  1.0000
  H   H3        1.0  0.9478630358160132  0.714389361596396  0.2169288516317707  1.0000
  H   H4        1.0  0.05210635955767632  0.2856224526441337  0.7830581967743483  1.0000
  H   H5        1.0  0.15389589624344066  0.9365198613420772  0.49404169992008207  1.0000
  H   H6        1.0  0.8460717055046205  0.06349266692874518  0.5059586636629376  1.0000
  H   H7        1.0  0.4457273517039653  0.0271928004404671  0.40349254933121864  1.0000
  H   H8        1.0  0.5542513629789312  0.9728135225792227  0.596507663177583  1.0000
  H   H9        1.0  0.7861052827480322  0.008114964247710098  0.3211887096757593  1.0000
  H   H10       1.0  0.2139150592903363  0.9918882991735812  0.678812071204014  1.0000
  H   H11       1.0  0.6058863705544297  0.1271048556456194  0.2884229232045072  1.0000
  H   H12       1.0  0.39411598760624134  0.8729037504308008  0.7115830152844538  1.0000
  H   H13       1.0  0.7836847589205364  0.0789889533235524  0.1959781524927777  1.0000
  H   H14       1.0  0.21632109440538727  0.9210197367291  0.8040185646640268  1.0000
  H   H15       1.0  0.6292262535276051  0.7156659065369196  0.2651017607167958  1.0000
  H   H16       1.0  0.3707716800135614  0.28433150868087853  0.7348988158493269  1.0000
  H   H17       1.0  0.1641308304341607  0.5583214894421571  0.4716555837639262  1.0000
  H   H18       1.0  0.835875773305986  0.44166274045355175  0.5283484247759276  1.0000
  H   H19       1.0  0.595554421430144  0.5743907439366821  0.9663586025914412  1.0000
  H   H20       1.0  0.40444380467916125  0.4256100942913931  0.0336460364976361  1.0000
  H   H21       1.0  0.7916483390155022  0.5980730481712796  0.875274228921441  1.0000
  H   H22       1.0  0.20835489473023466  0.4019269247324076  0.12472601152954611  1.0000
  H   H23       1.0  0.6067060016286661  0.47132337526399926  0.8591788479165956  1.0000
  H   H24       1.0  0.39329250197124566  0.5286800788102184  0.140825092200032  1.0000
  H   H25       1.0  0.1538222523137023  0.5444071235410559  0.7553349390825231  1.0000
  H   H26       1.0  0.8461709237800009  0.45559295545400147  0.2446653642569387  1.0000
  C   C1        1.0  0.21336285895791463  0.836005389579462  0.2064612016891516  1.0000
  C   C2        1.0  0.7866479832630732  0.1640040085604753  0.7935437942326898  1.0000
  C   C3        1.0  0.0500956683932898  0.785014265832508  0.2590000477486  1.0000
  C   C4        1.0  0.9498859347237955  0.21498607161956326  0.7409899456867919  1.0000
  C   C5        1.0  0.021337209332635644  0.820502135053147  0.36301681034836963  1.0000
  C   C6        1.0  0.9786524688187512  0.17951199078846966  0.636976510736119  1.0000
  C   C7        1.0  0.16936022015546107  0.9079366556055173  0.4133276439349913  1.0000
  C   C8        1.0  0.8306455418948743  0.0920703689731468  0.5866634932464478  1.0000
  C   C9        1.0  0.3355250638811  0.9592223491921384  0.3619776200406832  1.0000
  C   C10       1.0  0.6644737388042046  0.040782944251532206  0.6380184937988601  1.0000
  C   C11       1.0  0.3586819941022199  0.9248484144121888  0.2577543223563197  1.0000
  C   C12       1.0  0.6413187264927843  0.0751602417384234  0.742249129370947  1.0000
  C   C13       1.0  0.6817525673000587  0.0511520305657172  0.2562968349251094  1.0000
  C   C14       1.0  0.31825288344077046  0.9488531444143502  0.7437029171365097  1.0000
  C   C15       1.0  0.6564256659072356  0.716216320935139  0.35217163800312073  1.0000
  C   C16       1.0  0.34357456726800006  0.2837706432703015  0.6478280333422076  1.0000
  C   C17       1.0  0.8398724400137071  0.7671759322011549  0.4143011979431535  1.0000
  C   C18       1.0  0.16011562209045144  0.2328225394801819  0.5856931625636435  1.0000
  C   C19       1.0  0.8434537500208562  0.7656253105665201  0.5293804037819924  1.0000
  C   C20       1.0  0.15654628186183567  0.23435989610263866  0.47062078501573984  1.0000
  C   C21       1.0  0.6570694683074407  0.707218193175855  0.5674764586268138  1.0000
  C   C22       1.0  0.34294035596077077  0.2927643017849206  0.4325245776517974  1.0000
  C   C23       1.0  0.4798867141364127  0.6550338208824299  0.4963692984655665  1.0000
  C   C24       1.0  0.5201389223233334  0.3449554785969936  0.5036306995907509  1.0000
  C   C25       1.0  0.29843244442094624  0.5967447737303998  0.5295000607871856  1.0000
  C   C26       1.0  0.7015885934283759  0.4032323947473912  0.47050006569101294  1.0000
  C   C27       1.0  0.29764406248583697  0.5897263899566311  0.6393553897205208  1.0000
  C   C28       1.0  0.7023549536397837  0.4102657434946977  0.3606490715521815  1.0000
  C   C29       1.0  0.47315090312947206  0.6389001610592685  0.7143995837648092  1.0000
  C   C30       1.0  0.5268528431419667  0.3610884912215226  0.2856011778422385  1.0000
  C   C31       1.0  0.6504056429704477  0.6998208317682139  0.679283504812858  1.0000
  C   C32       1.0  0.34960151289749314  0.3001678328847958  0.320713555683632  1.0000
  C   C33       1.0  0.6241731381339619  0.5633115782954119  0.8835707694261644  1.0000
  C   C34       1.0  0.3758383690088536  0.43668821584134326  0.11643638461168142  1.0000
  S   S1        1.0  0.24799701050638842  0.7804046620870864  0.07700518185269799  1.0000
  S   S2        1.0  0.7519924663524477  0.21960770621824108  0.9229896566842015  1.0000
  O   O1        1.0  0.2316542152723144  0.8819054996635951  0.005940599711848885  1.0000
  O   O2        1.0  0.7683230753615719  0.11810264119571912  0.994054819979766  1.0000
  O   O3        1.0  0.47267815671245467  0.7311304084574597  0.09082387673036148  1.0000
  O   O4        1.0  0.5273099507006408  0.2688854124740415  0.9091741147739683  1.0000
  O   O5        1.0  0.0644224632173547  0.6951170421982055  0.0477126369630767  1.0000
  O   O6        1.0  0.9355664097638368  0.30489005349826204  0.9522867539310411  1.0000
  O   O7        1.0  0.5146640602567203  0.9711793803154192  0.20126373989468496  1.0000
  O   O8        1.0  0.485337258432736  0.028818026816310304  0.7987347127670503  1.0000
  O   O9        1.0  0.001691627946009116  0.8119378945992111  0.5958803863083233  1.0000
  O   O10       1.0  0.998317885089044  0.18805767852074945  0.4041186113618167  1.0000
  O   O11       1.0  0.48355220740392474  0.6614181032564872  0.3884873056537828  1.0000
  O   O12       1.0  0.5164561345481644  0.3385669553331779  0.6115184309215564  1.0000
  O   O13       1.0  0.8133841618280826  0.7528211554546825  0.749567697465146  1.0000
  O   O14       1.0  0.18661734878323696  0.24717879591917574  0.2504355764457458  1.0000
  O   O15       1.0  0.45078976716373387  0.6300839761482635  0.8208364996095909  1.0000
  O   O16       1.0  0.5492096515469812  0.3699116723756434  0.1791649267582898  1.0000
  O   O17       1.0  0.12426676354865414  0.5344909614280198  0.6770466392786432  1.0000
  O   O18       1.0  0.875740825059438  0.4655028326258303  0.3229569093038193  1.0000
