data_image0
_chemical_formula_structural       Cd2H16C12N20O4
_chemical_formula_sum              "Cd2 H16 C12 N20 O4"
_cell_length_a       7.9437048625598825
_cell_length_b       8.864434677068019
_cell_length_c       10.437532288332813
_cell_angle_alpha    80.17066128640543
_cell_angle_beta     67.6241498475846
_cell_angle_gamma    63.3637077236481

_space_group_name_H-M_alt    "P 1"
_space_group_IT_number       1

loop_
  _space_group_symop_operation_xyz
  'x, y, z'

loop_
  _atom_site_type_symbol
  _atom_site_label
  _atom_site_symmetry_multiplicity
  _atom_site_fract_x
  _atom_site_fract_y
  _atom_site_fract_z
  _atom_site_occupancy
  Cd  Cd1       1.0  0.5672103533239721  0.49998857585114115  0.4999736902550893  1.0000
  Cd  Cd2       1.0  0.8172717526447288  3.4035956886700005e-05  1.3240753574271015e-05  1.0000
  H   H1        1.0  0.6530183599634968  0.4211134664676877  0.043725705509878136  1.0000
  H   H2        1.0  0.11795687623043694  0.5789301889412073  0.9562812463350596  1.0000
  H   H3        1.0  0.8241356867605704  0.0790450861876479  0.5437672683194349  1.0000
  H   H4        1.0  0.446952361304646  0.9208587987233586  0.45618278170551474  1.0000
  H   H5        1.0  0.4088432611653375  0.6638448884780246  0.012841369817095808  1.0000
  H   H6        1.0  0.085417198670612  0.3362498968298198  0.9871289778731909  1.0000
  H   H7        1.0  0.8222879145937085  0.8362817630743539  0.5130825245390936  1.0000
  H   H8        1.0  0.17168253411075082  0.1635710614333306  0.48713197048854795  1.0000
  H   H9        1.0  0.4637870594062718  0.7971479670815571  0.08312379505387207  1.0000
  H   H10       1.0  0.3440416743893378  0.2029003205436055  0.9168724884418609  1.0000
  H   H11       1.0  0.0105313966007329  0.7030052474970744  0.5834439798267611  1.0000
  H   H12       1.0  0.2969994289001504  0.2967954110262879  0.41668782421120903  1.0000
  H   H13       1.0  0.22233805755597302  0.7974191234033938  0.16009565029830242  1.0000
  H   H14       1.0  0.1798522474120787  0.2027183403242887  0.8398587897831861  1.0000
  H   H15       1.0  0.7692566354771985  0.702926183611865  0.660467464124572  1.0000
  H   H16       1.0  0.13237751401199913  0.29712330037968826  0.3398841627972971  1.0000
  C   C1        1.0  0.7123905642893577  0.29692535573744294  0.2179606898688389  1.0000
  C   C2        1.0  0.22725232036349707  0.703114748508007  0.7819975061212716  1.0000
  C   C3        1.0  0.759357041561131  0.20320949099661334  0.7179801857279103  1.0000
  C   C4        1.0  0.6806057470340222  0.7967160522467367  0.28190983155739247  1.0000
  C   C5        1.0  0.4558617933519145  0.5841134018782058  0.21003550341721675  1.0000
  C   C6        1.0  0.24981969991325312  0.4160472033837905  0.7899475460575972  1.0000
  C   C7        1.0  0.7895580993863758  0.9162404400410935  0.7101659008735838  1.0000
  C   C8        1.0  0.41590519187793956  0.0837450971158376  0.28987368845179157  1.0000
  C   C9        1.0  0.3819265245486604  0.7169603306971197  0.10985400759059152  1.0000
  C   C10       1.0  0.2087166911720005  0.28312773483047954  0.8901177304835031  1.0000
  C   C11       1.0  0.8484603439633178  0.7832833043510091  0.6101520385217967  1.0000
  C   C12       1.0  0.24182025314193825  0.2165918389370631  0.39003622378003655  1.0000
  N   N1        1.0  0.8335178089893989  0.12908877949136868  0.3667592275824772  1.0000
  N   N2        1.0  0.3295728973604424  0.8708159743716877  0.6332016530817128  1.0000
  N   N3        1.0  0.7127910396184304  0.3709641857981367  0.8667445770747618  1.0000
  N   N4        1.0  0.9506078234359235  0.6289395842954948  0.13314826156530266  1.0000
  N   N5        1.0  0.705045627300919  0.28872617230591396  0.3493778337862777  1.0000
  N   N6        1.0  0.34315952222764384  0.7112801692993785  0.6505622252569125  1.0000
  N   N7        1.0  0.7439264219659305  0.2113752141253542  0.8493859381456871  1.0000
  N   N8        1.0  0.8046993753274235  0.7885544088086576  0.15049751425650723  1.0000
  N   N9        1.0  0.840811893556115  0.1459016985536934  0.1556551394812117  1.0000
  N   N10       1.0  0.14241780236482532  0.8540953445986191  0.8443183157929397  1.0000
  N   N11       1.0  0.7366772162178991  0.3542307468097192  0.6556713187301992  1.0000
  N   N12       1.0  0.7467161034329665  0.6457072840560513  0.3442363961714462  1.0000
  N   N13       1.0  0.9134658343841553  0.04405386638361361  0.2524073871237959  1.0000
  N   N14       1.0  0.21015244686230236  0.9558592630377944  0.7475646529609818  1.0000
  N   N15       1.0  0.7075819822523288  0.4560338372817512  0.7524026728006205  1.0000
  N   N16       1.0  0.9161776467413535  0.5438934758972775  0.2475070275154889  1.0000
  N   N17       1.0  0.6116768364771304  0.43540359516624966  0.15045106775311004  1.0000
  N   N18       1.0  0.19749183237210122  0.5646785689556212  0.8495215042360017  1.0000
  N   N19       1.0  0.7970365357122874  0.06477895773507208  0.650505124680869  1.0000
  N   N20       1.0  0.5123017528610133  0.9351217797211577  0.3494423848546616  1.0000
  O   O1        1.0  0.38302415448693233  0.6107579741844235  0.33734957461835785  1.0000
  O   O2        1.0  0.3306709731046664  0.38952259414527657  0.6625950093355754  1.0000
  O   O3        1.0  0.7431047772649534  0.8898173536440481  0.837559281315215  1.0000
  O   O4        1.0  0.4703534711414649  0.11037269017563742  0.16253408443527909  1.0000
