data_image0
_chemical_formula_structural       Sr4H20C12O22
_chemical_formula_sum              "Sr4 H20 C12 O22"
_cell_length_a       7.159120163699707
_cell_length_b       8.021161961408673
_cell_length_c       11.588040548208529
_cell_angle_alpha    104.37610281611937
_cell_angle_beta     90.01224669851786
_cell_angle_gamma    116.5001565648843

_space_group_name_H-M_alt    "P 1"
_space_group_IT_number       1

loop_
  _space_group_symop_operation_xyz
  'x, y, z'

loop_
  _atom_site_type_symbol
  _atom_site_label
  _atom_site_symmetry_multiplicity
  _atom_site_fract_x
  _atom_site_fract_y
  _atom_site_fract_z
  _atom_site_occupancy
  Sr  Sr1       1.0  0.22749530946295243  0.8262347023187075  0.5807788045854068  1.0000
  Sr  Sr2       1.0  0.40120697235497726  0.17368752386131803  0.9191971319005813  1.0000
  Sr  Sr3       1.0  0.7725047194535151  0.17376553509543413  0.41922139059756336  1.0000
  Sr  Sr4       1.0  0.5987937815566936  0.8263141635607381  0.08080331775668978  1.0000
  H   H1        1.0  0.6000357676321215  0.9091977719221092  0.7778746174124221  1.0000
  H   H2        1.0  0.6908245088155526  0.09065423578849871  0.7220657837571592  1.0000
  H   H3        1.0  0.3999642654862399  0.09080247419201731  0.22212471632317224  1.0000
  H   H4        1.0  0.3091741190837355  0.9093459929345118  0.2779352727817255  1.0000
  H   H5        1.0  0.947804189452583  0.022001278758708102  0.6390328971611081  1.0000
  H   H6        1.0  0.925781647571121  0.9779938438310866  0.8609360413873545  1.0000
  H   H7        1.0  0.052195839463884466  0.9779989586554337  0.360967298021869  1.0000
  H   H8        1.0  0.07421838134534652  0.0220063935830623  0.1390641537956157  1.0000
  H   H9        1.0  0.772554887609047  0.8366112154370242  0.5533611475131862  1.0000
  H   H10       1.0  0.9358512896364602  0.16329698754454827  0.9466773293705443  1.0000
  H   H11       1.0  0.22744586630262378  0.16339047198502496  0.44663930214408504  1.0000
  H   H12       1.0  0.06414873928000743  0.8367032498695937  0.05332286581243304  1.0000
  H   H13       1.0  0.955676706809257  0.4309539207105503  0.8634073920821945  1.0000
  H   H14       1.0  0.5249073690524213  0.5690253557071401  0.6364816778936343  1.0000
  H   H15       1.0  0.04432332210721058  0.5690463167035986  0.13659280310077554  1.0000
  H   H16       1.0  0.4750947816745351  0.43097633170605576  0.3635187718551123  1.0000
  H   H17       1.0  0.20733918714037708  0.4572933333438272  0.8431419466732635  1.0000
  H   H18       1.0  0.7500331062520403  0.5424355445160387  0.6569522613596276  1.0000
  H   H19       1.0  0.7926594491626986  0.5427069127791525  0.15685738697086288  1.0000
  H   H20       1.0  0.24996619766922382  0.45756324289020267  0.3430476793490413  1.0000
  C   C1        1.0  0.17145210062605543  0.7146926062613943  0.8598182723927009  1.0000
  C   C2        1.0  0.4566368981420937  0.28522387595544535  0.6401514375394014  1.0000
  C   C3        1.0  0.8285486532856225  0.2853090811606549  0.14018217726457746  1.0000
  C   C4        1.0  0.543363126572487  0.7147763527587117  0.3598496190909443  1.0000
  C   C5        1.0  0.08968248258943856  0.49698988843940123  0.8151222701952107  1.0000
  C   C6        1.0  0.5926344560685877  0.5028970671519062  0.6848639927028444  1.0000
  C   C7        1.0  0.9103182755241264  0.5030118076826328  0.184877318014685  1.0000
  C   C8        1.0  0.40736557284788694  0.49710317026223555  0.3151362024801259  1.0000
  C   C9        1.0  0.02411060983035185  0.4018728946063633  0.6811560216595182  1.0000
  C   C10       1.0  0.6221194157542767  0.5979636262520954  0.8188103586815457  1.0000
  C   C11       1.0  0.9758894232880095  0.5981273515077703  0.3188433120760763  1.0000
  C   C12       1.0  0.37788273497267977  0.4020380611611004  0.18119009106720088  1.0000
  O   O1        1.0  0.5624315408343818  0.9999308776674525  0.749945765101174  1.0000
  O   O2        1.0  0.4375670912667999  6.935975554969967e-05  0.2500544299903282  1.0000
  O   O3        1.0  0.9064708349528345  0.8839133155870228  0.6037485634469775  1.0000
  O   O4        1.0  0.022543938014891293  0.116034902679651  0.8963615313083932  1.0000
  O   O5        1.0  0.09352991895883632  0.1160883718350334  0.39625188621029384  1.0000
  O   O6        1.0  0.9774560951034702  0.8839653434344829  0.10363780242720116  1.0000
  O   O7        1.0  0.13773105065351385  0.8059498961140932  0.7943671982212663  1.0000
  O   O8        1.0  0.33162794316079675  0.19395342254618703  0.7055568380410049  1.0000
  O   O9        1.0  0.8622697032581569  0.194051791307956  0.20563325143600508  1.0000
  O   O10       1.0  0.6683728107508741  0.8060482648758693  0.2944436116162663  1.0000
  O   O11       1.0  0.2663002156571467  0.7993757579566038  0.9677294189854919  1.0000
  O   O12       1.0  0.46689240404528937  0.20052379481709443  0.5322753870487844  1.0000
  O   O13       1.0  0.7336998090574269  0.20062447075755332  0.032271637644861115  1.0000
  O   O14       1.0  0.5331062280558924  0.7994764426059076  0.4677248080427176  1.0000
  O   O15       1.0  0.8724733763548188  0.22863828851122756  0.6484288774904954  1.0000
  O   O16       1.0  0.6436608005835823  0.771169814839361  0.851561108235643  1.0000
  O   O17       1.0  0.12752665676354985  0.7713619576029062  0.35157045624509925  1.0000
  O   O18       1.0  0.35633922833288517  0.22883042257478078  0.1484390869473344  1.0000
  O   O19       1.0  0.11823621191090437  0.48883403046387736  0.6049318756348541  1.0000
  O   O20       1.0  0.6292999253958133  0.5109166282194267  0.8949933925156369  1.0000
  O   O21       1.0  0.8817638212074571  0.5111662156502492  0.39506745810074045  1.0000
  O   O22       1.0  0.3707015003359472  0.48908360918586163  0.10500680275880112  1.0000
