data_image0
_chemical_formula_structural       Cu2H8C8N4Cl2
_chemical_formula_sum              "Cu2 H8 C8 N4 Cl2"
_cell_length_a       3.6237411028023288
_cell_length_b       8.376200475022587
_cell_length_c       8.862022038631634
_cell_angle_alpha    90.29707643021223
_cell_angle_beta     94.7974212308446
_cell_angle_gamma    92.27256645105062

_space_group_name_H-M_alt    "P 1"
_space_group_IT_number       1

loop_
  _space_group_symop_operation_xyz
  'x, y, z'

loop_
  _atom_site_type_symbol
  _atom_site_label
  _atom_site_symmetry_multiplicity
  _atom_site_fract_x
  _atom_site_fract_y
  _atom_site_fract_z
  _atom_site_occupancy
  Cu  Cu1       1.0  0.9493265266381954  0.6497945234433189  0.11044212386484276  1.0000
  Cu  Cu2       1.0  0.050689049670850694  0.35020869210239175  0.8895723771835118  1.0000
  H   H1        1.0  0.18454328968518044  0.07355746667477094  0.09717888574751034  1.0000
  H   H2        1.0  0.8154854257404979  0.9264397839012165  0.9028202127491052  1.0000
  H   H3        1.0  0.0530297919847484  0.0116261465762548  0.36135265293022895  1.0000
  H   H4        1.0  0.9469574841841039  0.9883722955495104  0.6386439734223825  1.0000
  H   H5        1.0  0.80911833452884  0.23829017282086806  0.5200296926765373  1.0000
  H   H6        1.0  0.1908153852429137  0.7616999090434364  0.47994821628883927  1.0000
  H   H7        1.0  0.7418837829381176  0.5052231184655653  0.38999922526719616  1.0000
  H   H8        1.0  0.2580843754789655  0.4947789097926004  0.60999002734961  1.0000
  C   C1        1.0  0.08443527157484002  0.16470436549305137  0.17000656197667036  1.0000
  C   C2        1.0  0.9155635050316064  0.8353275284313996  0.8299996504625111  1.0000
  C   C3        1.0  0.010972567570732398  0.1314611718971932  0.3185456677523745  1.0000
  C   C4        1.0  0.9890820989780166  0.8685169620788501  0.6814575564617724  1.0000
  C   C5        1.0  0.8805909425363367  0.2538525569370265  0.4035223033763342  1.0000
  C   C6        1.0  0.11938935332771898  0.7461303517303579  0.5964740100884354  1.0000
  C   C7        1.0  0.8430961672726838  0.40156164984702514  0.3337377535648613  1.0000
  C   C8        1.0  0.1568513517190695  0.598426034531535  0.6662586465685716  1.0000
  N   N1        1.0  0.9276057354272282  0.4302660433930755  0.19158422597798355  1.0000
  N   N2        1.0  0.07242674563678968  0.5697407604943407  0.8084263319619747  1.0000
  N   N3        1.0  0.04197560515446239  0.3090890297752083  0.10704266369605617  1.0000
  N   N4        1.0  0.9580525245365266  0.6909309185617403  0.8929644394954718  1.0000
  Cl  Cl1       1.0  0.48279174689790244  0.782651004499215  0.22644119060009155  1.0000
  Cl  Cl2       1.0  0.5172538060323717  0.21734863730445406  0.7735584696908544  1.0000
