data_image0
_chemical_formula_structural       Gd2H14C16S2O18
_chemical_formula_sum              "Gd2 H14 C16 S2 O18"
_cell_length_a       6.358521095058722
_cell_length_b       8.624199982210428
_cell_length_c       10.599568345830901
_cell_angle_alpha    90.94234037716724
_cell_angle_beta     99.4570891589481
_cell_angle_gamma    107.43407698634944

_space_group_name_H-M_alt    "P 1"
_space_group_IT_number       1

loop_
  _space_group_symop_operation_xyz
  'x, y, z'

loop_
  _atom_site_type_symbol
  _atom_site_label
  _atom_site_symmetry_multiplicity
  _atom_site_fract_x
  _atom_site_fract_y
  _atom_site_fract_z
  _atom_site_occupancy
  Gd  Gd1       1.0  0.1508453814736654  0.24172965205700342  0.6116476813246976  1.0000
  Gd  Gd2       1.0  0.8491554518844425  0.7582706905493879  0.38835267191558387  1.0000
  H   H1        1.0  0.61914641554376  0.41519108697607254  0.1439113580532236  1.0000
  H   H2        1.0  0.38084912136365284  0.5848080342700114  0.8560884553188329  1.0000
  H   H3        1.0  0.6572488687806555  0.3650227837618872  0.9184683832054289  1.0000
  H   H4        1.0  0.3427535585590035  0.6349775583508899  0.08153307067779987  1.0000
  H   H5        1.0  0.1761565084449188  0.15096192961301114  0.053535176628734894  1.0000
  H   H6        1.0  0.8238453490909097  0.8490408496483823  0.9464653124965069  1.0000
  H   H7        1.0  0.530132692062736  0.0821356229953878  0.6770789245326228  1.0000
  H   H8        1.0  0.4698676308179799  0.9178635042925906  0.32291947409643734  1.0000
  H   H9        1.0  0.30672099907631173  0.9503081234044044  0.6071974968512279  1.0000
  H   H10       1.0  0.6932788109098169  0.04968978405153019  0.39280177716972275  1.0000
  H   H11       1.0  0.6527851123975593  0.3512696634859934  0.7094151114733904  1.0000
  H   H12       1.0  0.3472136148901441  0.6487294612865001  0.2905840731814564  1.0000
  H   H13       1.0  0.5823633827538401  0.5024843737618525  0.651637793707593  1.0000
  H   H14       1.0  0.4176374506042677  0.49751596884453875  0.3483625595326885  1.0000
  C   C1        1.0  0.01912856165923672  0.22532729314951894  0.19887871016813113  1.0000
  C   C2        1.0  0.980869595018909  0.774674267267045  0.8011204530630989  1.0000
  C   C3        1.0  0.8664189401261596  0.30525522590387766  0.2261706055052386  1.0000
  C   C4        1.0  0.13358081053353033  0.6947463340190794  0.7738296583689461  1.0000
  C   C5        1.0  0.7368353700581166  0.35307378911766557  0.12296368960333127  1.0000
  C   C6        1.0  0.26316546491145226  0.6469265564978101  0.8770347769682089  1.0000
  C   C7        1.0  0.7591578458688417  0.32557063081146953  0.9966334158646006  1.0000
  C   C8        1.0  0.24084401005552541  0.6744321454408394  0.0033689599293821974  1.0000
  C   C9        1.0  0.9203732288083656  0.2542103267093338  0.9716791721638246  1.0000
  C   C10       1.0  0.07963130782461998  0.7457912392555102  0.028319676967363688  1.0000
  C   C11       1.0  0.04821166609634278  0.20327152771304918  0.07328660910241067  1.0000
  C   C12       1.0  0.9517896793506255  0.7967300332208397  0.9267138120803509  1.0000
  C   C13       1.0  0.8434096385148493  0.34921455489891423  0.36030195280063276  1.0000
  C   C14       1.0  0.15659119484325856  0.650785787707477  0.6396984004396485  1.0000
  C   C15       1.0  0.9784417583817271  0.24154702311284376  0.8419922904895215  1.0000
  C   C16       1.0  0.021561182658253093  0.7584545403365226  0.15800734466745328  1.0000
  S   S1        1.0  0.20983361870771944  0.16831870534419835  0.3186546732533913  1.0000
  S   S2        1.0  0.7901645964911307  0.8316792011007975  0.6813444434589754  1.0000
  O   O1        1.0  0.08482468255035508  0.03383423532446981  0.38909737059939425  1.0000
  O   O2        1.0  0.9151783162045958  0.9661636726487827  0.6109031613730876  1.0000
  O   O3        1.0  0.30945207318994505  0.31252170644015814  0.4129490036068404  1.0000
  O   O4        1.0  0.6905466524862972  0.6874774153232507  0.5870520677167477  1.0000
  O   O5        1.0  0.368119271551997  0.1253531077233063  0.2525330852105157  1.0000
  O   O6        1.0  0.6318793988264702  0.8746496740298467  0.7474642592944605  1.0000
  O   O7        1.0  0.8493132566869406  0.24715771373124076  0.4460509052513543  1.0000
  O   O8        1.0  0.1506891714584454  0.752842629886082  0.5539496052975039  1.0000
  O   O9        1.0  0.8196155703449222  0.48648115818988197  0.38094774773942663  1.0000
  O   O10       1.0  0.1803799657567637  0.5135179615516563  0.6190530089669934  1.0000
  O   O11       1.0  0.1635504823152658  0.2157931768589592  0.8347643114264756  1.0000
  O   O12       1.0  0.8364503510428493  0.784207165747432  0.1652360418138059  1.0000
  O   O13       1.0  0.8509399927849373  0.25937965052609974  0.7393408621715025  1.0000
  O   O14       1.0  0.14905924578589247  0.7406206910693528  0.2606593337602021  1.0000
  O   O15       1.0  0.3782369170156911  0.06854825056102949  0.6316470042233391  1.0000
  O   O16       1.0  0.6217649998465687  0.9314508762333418  0.3683524950486756  1.0000
  O   O17       1.0  0.5280229386266341  0.4004693840342028  0.6942269386127862  1.0000
  O   O18       1.0  0.47197578866106926  0.5995297407382905  0.30577224604206776  1.0000
