data_image0
_chemical_formula_structural       Hg2H32C44Br4N12Cl4O4
_chemical_formula_sum              "Hg2 H32 C44 Br4 N12 Cl4 O4"
_cell_length_a       3.930944783227438
_cell_length_b       14.840718488268413
_cell_length_c       20.496184261538495
_cell_angle_alpha    90.06474088944502
_cell_angle_beta     89.9990637499946
_cell_angle_gamma    90.00076338985268

_space_group_name_H-M_alt    "P 1"
_space_group_IT_number       1

loop_
  _space_group_symop_operation_xyz
  'x, y, z'

loop_
  _atom_site_type_symbol
  _atom_site_label
  _atom_site_symmetry_multiplicity
  _atom_site_fract_x
  _atom_site_fract_y
  _atom_site_fract_z
  _atom_site_occupancy
  Hg  Hg1       1.0  3.1208977588999964e-06  0.999996143764825  0.9999972665930271  1.0000
  Hg  Hg2       1.0  0.4999933204352942  0.5000040193531703  0.49999931801446  1.0000
  H   H1        1.0  0.8534208111728107  0.5769376808883492  0.8255616025170555  1.0000
  H   H2        1.0  0.3533650032714988  0.923068411864804  0.6744450934002302  1.0000
  H   H3        1.0  0.1466039881681027  0.42306494576344983  0.1744409165255547  1.0000
  H   H4        1.0  0.6466038298439544  0.07694025475053219  0.32556183928506505  1.0000
  H   H5        1.0  0.3187775548946874  0.45799121794247794  0.9572970982911784  1.0000
  H   H6        1.0  0.8187458974881066  0.0420163250696106  0.5427031682813706  1.0000
  H   H7        1.0  0.6812192615516748  0.5420087484728808  0.0426990682106521  1.0000
  H   H8        1.0  0.1812178477005517  0.9579802398189726  0.45729884042182795  1.0000
  H   H9        1.0  0.18811873992070358  0.7726713016986222  0.9753217793968502  1.0000
  H   H10       1.0  0.6881638311621926  0.7273355343944271  0.5246869125197406  1.0000
  H   H11       1.0  0.8118806203246509  0.22732797741161187  0.0246768240435244  1.0000
  H   H12       1.0  0.3118507927380918  0.27267652567491746  0.47531564161260326  1.0000
  H   H13       1.0  0.6879979436455771  0.9473002043084404  0.8493432245235155  1.0000
  H   H14       1.0  0.18800988438177768  0.5526938773431525  0.6506566382194094  1.0000
  H   H15       1.0  0.311978521323276  0.052691684363722395  0.1506514482790777  1.0000
  H   H16       1.0  0.8119843882615781  0.44730744749561063  0.3493375817386948  1.0000
  H   H17       1.0  0.8563613241478336  0.27338333815294646  0.7750677892755888  1.0000
  H   H18       1.0  0.35630182485784456  0.22661354044478088  0.7249357325540872  1.0000
  H   H19       1.0  0.14363294792166673  0.7266078362559012  0.2249341993369143  1.0000
  H   H20       1.0  0.6436975357941107  0.7733998969150305  0.2750614598278247  1.0000
  H   H21       1.0  0.38294375431237165  0.29307883706589166  0.9590960272256268  1.0000
  H   H22       1.0  0.8829406970225621  0.20692890781359097  0.5409094013313904  1.0000
  H   H23       1.0  0.6170657816326397  0.7069224608146809  0.0409030716038359  1.0000
  H   H24       1.0  0.11706883895454469  0.7930670211207624  0.4590857743395063  1.0000
  H   H25       1.0  0.1465974651830848  0.19870334792214805  0.8684006603456567  1.0000
  H   H26       1.0  0.6465558482646615  0.3013015281395324  0.6316045391621046  1.0000
  H   H27       1.0  0.8534095266104417  0.8012925459261735  0.13160085789372292  1.0000
  H   H28       1.0  0.3534435124518822  0.6987045296177995  0.36838677098720046  1.0000
  H   H29       1.0  0.5838170111729185  0.8182156103024167  0.7704013923731098  1.0000
  H   H30       1.0  0.08380834237388508  0.6817760524068246  0.7296026984462429  1.0000
  H   H31       1.0  0.416172173027917  0.18177085817358568  0.2295986271524697  1.0000
  H   H32       1.0  0.9161986494894164  0.31822186559061555  0.2703983394193159  1.0000
  C   C1        1.0  0.993558377996564  0.711513138974439  0.886152420368589  1.0000
  C   C2        1.0  0.49353918340097647  0.7884873869884927  0.6138552694309212  1.0000
  C   C3        1.0  0.006476596833891799  0.2884787174204035  0.1138481070154995  1.0000
  C   C4        1.0  0.5064525449035954  0.21151589722906997  0.3861501795071334  1.0000
  C   C5        1.0  0.12556815089526907  0.6192833177157978  0.9029112940235536  1.0000
  C   C6        1.0  0.6255714768889503  0.8807179182872885  0.5970946501800043  1.0000
  C   C7        1.0  0.8744388410943742  0.38071058706483996  0.0970843620252211  1.0000
  C   C8        1.0  0.3744227954644401  0.11928739817970066  0.4029088547114554  1.0000
  C   C9        1.0  0.0539977946313783  0.46065298117621717  0.865209050099331  1.0000
  C   C10       1.0  0.5539684861540836  0.03934484964195661  0.6347915409273526  1.0000
  C   C11       1.0  0.9460193729556535  0.5393429288818937  0.1347895407863859  1.0000
  C   C12       1.0  0.44603341787822615  0.9606557555179902  0.365210970636042  1.0000
  C   C13       1.0  0.9291012057857415  0.4065005039661073  0.8139739621555578  1.0000
  C   C14       1.0  0.42905877210161236  0.09350135111417758  0.6860298329592923  1.0000
  C   C15       1.0  0.0709083300361613  0.5934974194330707  0.1860260999268064  1.0000
  C   C16       1.0  0.5709278687200481  0.9065080244315806  0.3139707596384156  1.0000
  C   C17       1.0  0.2176371412865379  0.41759873226687466  0.9176174551967334  1.0000
  C   C18       1.0  0.7176041513439843  0.08240507136503078  0.5823840973712322  1.0000
  C   C19       1.0  0.782367306794214  0.5824005468525397  0.0823811482355339  1.0000
  C   C20       1.0  0.28236468186052827  0.9175955472281245  0.41761597479706586  1.0000
  C   C21       1.0  0.05331107914075521  0.7829380259250768  0.9294283224745995  1.0000
  C   C22       1.0  0.5533467430425533  0.7170656393161036  0.5705788380507713  1.0000
  C   C23       1.0  0.9466857371291583  0.21705721567661831  0.0705692901591988  1.0000
  C   C24       1.0  0.4466577051456468  0.28294305704778105  0.4294227277924136  1.0000
  C   C25       1.0  0.7785287927928338  0.8791171615912674  0.8593866962115513  1.0000
  C   C26       1.0  0.27854492113233686  0.6208792438502684  0.64061727616145  1.0000
  C   C27       1.0  0.2214425841357084  0.12087134179603248  0.14061089141033287  1.0000
  C   C28       1.0  0.7214493514500546  0.3791254311827358  0.3593803715499035  1.0000
  C   C29       1.0  0.9597937862212406  0.3132914356510098  0.8149744526579498  1.0000
  C   C30       1.0  0.4597560136183887  0.18671121208355146  0.6850277833455678  1.0000
  C   C31       1.0  0.040213205666525205  0.6867058139267286  0.1850256069232188  1.0000
  C   C32       1.0  0.5402560664496293  0.8132968293672603  0.3149703647531937  1.0000
  C   C33       1.0  0.25061162567700995  0.32424991250594803  0.918301751403277  1.0000
  C   C34       1.0  0.7505959965527326  0.17575196708413898  0.5817035915157903  1.0000
  C   C35       1.0  0.7493877344985689  0.6757473424551675  0.0816973324109256  1.0000
  C   C36       1.0  0.24941353927318494  0.8242452851967599  0.41829598017174163  1.0000
  C   C37       1.0  0.1218825902198404  0.2717391926954775  0.8675383683880825  1.0000
  C   C38       1.0  0.6218576658316619  0.2282622305423843  0.6324659216531502  1.0000
  C   C39       1.0  0.878116769824608  0.7282560300207946  0.1324626594686578  1.0000
  C   C40       1.0  0.3781391508031787  0.7717404473318081  0.367527327532251  1.0000
  C   C41       1.0  0.7195837225416851  0.8077566260221403  0.8163346286034497  1.0000
  C   C42       1.0  0.2195768621239509  0.6922368714473278  0.6836695218797288  1.0000
  C   C43       1.0  0.28040800565062807  0.1922311954892989  0.1836644201494337  1.0000
  C   C44       1.0  0.780422498052019  0.3077637418037468  0.316331526019006  1.0000
  Br  Br1       1.0  0.7153147905288363  0.46116140293287333  0.7401231560199051  1.0000
  Br  Br2       1.0  0.21528385216950596  0.03884774777746  0.7598847665618536  1.0000
  Br  Br3       1.0  0.2847023770910795  0.5388358547589363  0.2598754398763106  1.0000
  Br  Br4       1.0  0.7847536669050185  0.9611716892370977  0.24012415765612619  1.0000
  N   N1        1.0  0.007095454480222001  0.5538428597879133  0.8621905614566714  1.0000
  N   N2        1.0  0.5070502566728976  0.9461579460009161  0.6378162487618156  1.0000
  N   N3        1.0  0.9929369764902843  0.4461530341062882  0.13781095674212201  1.0000
  N   N4        1.0  0.4929211201713883  0.05384465087021079  0.3621916371513194  1.0000
  N   N5        1.0  0.8245278794367862  0.7239590763502618  0.829884617003593  1.0000
  N   N6        1.0  0.3245211786714748  0.7760381445362157  0.6701236021335291  1.0000
  N   N7        1.0  0.17548420010993482  0.2760334484229858  0.17011688870142191  1.0000
  N   N8        1.0  0.6754705497189162  0.22396447935735614  0.3298794048514182  1.0000
  N   N9        1.0  0.9441427927673871  0.8660490287351333  0.915698542191393  1.0000
  N   N10       1.0  0.444159181170015  0.6339526936288775  0.5843044313519172  1.0000
  N   N11       1.0  0.055843847876659004  0.13394554712706958  0.0842976042846786  1.0000
  N   N12       1.0  0.5558478109603441  0.3660553343198885  0.41569615620281297  1.0000
  Cl  Cl1       1.0  0.6024314690738847  0.08671802329050139  0.9347092066091208  1.0000
  Cl  Cl2       1.0  0.102427549143485  0.41328201995543157  0.5652883100028774  1.0000
  Cl  Cl3       1.0  0.39756280328635535  0.9132758760700453  0.0652874252390916  1.0000
  Cl  Cl4       1.0  0.8975616356323785  0.5867246738203774  0.4347098331219074  1.0000
  O   O1        1.0  0.32462498349920565  0.608991414904345  0.949113882740285  1.0000
  O   O2        1.0  0.8246097805528266  0.8910138597364536  0.5509002208383933  1.0000
  O   O3        1.0  0.6754252547764777  0.39100379171227223  0.0508900723727024  1.0000
  O   O4        1.0  0.17536414013214596  0.10899477180662127  0.449113054403206  1.0000
