data_image0
_chemical_formula_structural       Cu4H28C20I4N12
_chemical_formula_sum              "Cu4 H28 C20 I4 N12"
_cell_length_a       4.199230026104593
_cell_length_b       11.880582498233544
_cell_length_c       15.02577077117754
_cell_angle_alpha    90.00070933331382
_cell_angle_beta     99.15112746077695
_cell_angle_gamma    90.00005143714584

_space_group_name_H-M_alt    "P 1"
_space_group_IT_number       1

loop_
  _space_group_symop_operation_xyz
  'x, y, z'

loop_
  _atom_site_type_symbol
  _atom_site_label
  _atom_site_symmetry_multiplicity
  _atom_site_fract_x
  _atom_site_fract_y
  _atom_site_fract_z
  _atom_site_occupancy
  Cu  Cu1       1.0  0.716208805781477  0.0368070307436241  0.078912325449437  1.0000
  Cu  Cu2       1.0  0.2837890021383486  0.5368154497378724  0.4210884446910299  1.0000
  Cu  Cu3       1.0  0.28378829363678176  0.9631848684120996  0.9210904105749904  1.0000
  Cu  Cu4       1.0  0.7162126723530589  0.4631899167311246  0.5789091538417138  1.0000
  H   H1        1.0  0.42441669844475877  0.8430255497884288  0.3578954765654174  1.0000
  H   H2        1.0  0.5755638568041092  0.3430180809733087  0.1420995719170151  1.0000
  H   H3        1.0  0.5755681550004254  0.15697644984433617  0.6421027653073068  1.0000
  H   H4        1.0  0.42440402009134454  0.6569729764106427  0.8578959790076653  1.0000
  H   H5        1.0  0.7150025524316205  0.9789474377957177  0.4703142969427105  1.0000
  H   H6        1.0  0.28498420979676087  0.47894481666198635  0.029688979808646796  1.0000
  H   H7        1.0  0.2849921351143223  0.021048669906647905  0.5296883404823589  1.0000
  H   H8        1.0  0.7149813174158266  0.5210504492791799  0.9703078062167023  1.0000
  H   H9        1.0  0.010449696549521497  0.1414281717694976  0.41484913211191804  1.0000
  H   H10       1.0  0.9895658820713249  0.6414298407867776  0.0851547107776227  1.0000
  H   H11       1.0  0.9895715839539605  0.8585654108281134  0.5851559238254964  1.0000
  H   H12       1.0  0.0104310308051438  0.3585687920137916  0.914844024180482  1.0000
  H   H13       1.0  0.0718195326185054  0.179246851556826  0.1790862163637854  1.0000
  H   H14       1.0  0.9281866656936156  0.6792497081891045  0.3209169443006274  1.0000
  H   H15       1.0  0.9282016546107599  0.8207492561536329  0.8209168390362508  1.0000
  H   H16       1.0  0.07181265908172209  0.3207514497413869  0.6790818892905931  1.0000
  H   H17       1.0  0.2166382576897306  0.2207002467420978  0.2871569593264738  1.0000
  H   H18       1.0  0.7833682365172691  0.7206979720885515  0.21284594999792716  1.0000
  H   H19       1.0  0.7833830539317218  0.7792992278278063  0.7128487634904772  1.0000
  H   H20       1.0  0.2166310260686259  0.279303185831374  0.7871515498932666  1.0000
  H   H21       1.0  0.3737784739330721  0.8784705598284223  0.1185350119447932  1.0000
  H   H22       1.0  0.6262239746887558  0.37847447666132433  0.3814592789354165  1.0000
  H   H23       1.0  0.6262305294826901  0.12152807298352289  0.8814648829655951  1.0000
  H   H24       1.0  0.3737823370054868  0.6215292063592345  0.6185345157297206  1.0000
  H   H25       1.0  0.254731199361629  0.8044479237991738  0.2059021056210568  1.0000
  H   H26       1.0  0.7452637716874975  0.3044488162606953  0.2940984827175512  1.0000
  H   H27       1.0  0.745268218701213  0.1955540758567551  0.7940987285244177  1.0000
  H   H28       1.0  0.2547332034016563  0.695555708517439  0.7059015859701104  1.0000
  C   C1        1.0  0.5727359321148667  0.9296332317108593  0.2451641099073711  1.0000
  C   C2        1.0  0.4272646636694474  0.42963086199290496  0.2548339294340636  1.0000
  C   C3        1.0  0.4272633615757113  0.07037045134305941  0.7548340568464909  1.0000
  C   C4        1.0  0.5727346921939755  0.5703686125237368  0.7451655709987292  1.0000
  C   C5        1.0  0.8872900373572818  0.09118221748402532  0.2757569468720007  1.0000
  C   C6        1.0  0.11270810619076599  0.5911824059084908  0.2242423677430949  1.0000
  C   C7        1.0  0.11271432884567639  0.9088155736476363  0.7242467518933252  1.0000
  C   C8        1.0  0.8872910631109574  0.4088187519955613  0.7757531315980657  1.0000
  C   C9        1.0  0.5603096517969915  0.9135615127244281  0.3370116123627582  1.0000
  C   C10       1.0  0.43968116964568077  0.41355853415860383  0.16298587138822998  1.0000
  C   C11       1.0  0.43967758245233296  0.08644301203297998  0.6629860612930614  1.0000
  C   C12       1.0  0.5603036837928598  0.5864417820550186  0.8370123704760531  1.0000
  C   C13       1.0  0.7200683009960683  0.9895305265777949  0.39857044307515826  1.0000
  C   C14       1.0  0.27992333742903236  0.4895349321414457  0.1014324701889464  1.0000
  C   C15       1.0  0.27993841490303584  0.010466422834930704  0.6014320206063815  1.0000
  C   C16       1.0  0.7200615471274715  0.5104712760444627  0.8985664385548873  1.0000
  C   C17       1.0  0.8850449722873533  0.07947813920435459  0.3686018233822992  1.0000
  C   C18       1.0  0.11495555302422387  0.5794819078622171  0.1313988062475886  1.0000
  C   C19       1.0  0.11497383414772598  0.9205179685101824  0.6314018002472963  1.0000
  C   C20       1.0  0.8850268263492325  0.4205217751778889  0.8685980033130959  1.0000
  I   I1        1.0  0.19060891301256078  0.1508521946082482  0.0162947009260392  1.0000
  I   I2        1.0  0.8093969991123443  0.6508542203559387  0.4837068414014212  1.0000
  I   I3        1.0  0.8093978028832254  0.8491439130949061  0.9837077627512868  1.0000
  I   I4        1.0  0.19060476864995474  0.34914777929063934  0.5162927576644805  1.0000
  N   N1        1.0  0.7341566884920636  0.0171348258085473  0.21394921251902588  1.0000
  N   N2        1.0  0.26584804439610105  0.5171335236471037  0.2860483219865699  1.0000
  N   N3        1.0  0.2658620868648923  0.9828654904485532  0.7860537442816522  1.0000
  N   N4        1.0  0.7341510938142123  0.4828684759612401  0.7139465105087979  1.0000
  N   N5        1.0  0.0316115612126069  0.183706738647075  0.2443627594368607  1.0000
  N   N6        1.0  0.968392229290863  0.6837077339995831  0.2556396804544078  1.0000
  N   N7        1.0  0.968402483637412  0.8162902107851694  0.7556420006560671  1.0000
  N   N8        1.0  0.03160941408921761  0.3162934239162709  0.7443572512072337  1.0000
  N   N9        1.0  0.4298980522293688  0.8520010040207071  0.1837586964973354  1.0000
  N   N10       1.0  0.5701043119557737  0.35200302558827445  0.31623799643819694  1.0000
  N   N11       1.0  0.5701061274185262  0.1480001539175149  0.8162410011847995  1.0000
  N   N12       1.0  0.4299022174048659  0.6480014991788751  0.6837604661812478  1.0000
