data_image0
_chemical_formula_structural       Cd2H112C144N8Cl4O24
_chemical_formula_sum              "Cd2 H112 C144 N8 Cl4 O24"
_cell_length_a       14.383222528003692
_cell_length_b       17.58818471000073
_cell_length_c       19.31892273500564
_cell_angle_alpha    89.99996789546225
_cell_angle_beta     90.00008185601243
_cell_angle_gamma    90.0000039955827

_space_group_name_H-M_alt    "P 1"
_space_group_IT_number       1

loop_
  _space_group_symop_operation_xyz
  'x, y, z'

loop_
  _atom_site_type_symbol
  _atom_site_label
  _atom_site_symmetry_multiplicity
  _atom_site_fract_x
  _atom_site_fract_y
  _atom_site_fract_z
  _atom_site_occupancy
  Cd  Cd1       1.0  0.5000010213532846  4.5266377670000006e-07  0.43225780552345594  1.0000
  Cd  Cd2       1.0  0.9999996938898617  0.5000014294235913  0.5677422042854732  1.0000
  H   H1        1.0  0.04923819653480171  0.3071968382955886  0.9982253786165176  1.0000
  H   H2        1.0  0.9507635820716374  0.6928017524525598  0.9982242056633341  1.0000
  H   H3        1.0  0.450762720483489  0.8071975847600186  0.0017754913132251007  1.0000
  H   H4        1.0  0.5492371494962073  0.1928021750895326  0.0017736332389262004  1.0000
  H   H5        1.0  0.0346566176120078  0.44648921565072186  0.985210116110537  1.0000
  H   H6        1.0  0.9653430503013068  0.5535099515048431  0.9852090312281593  1.0000
  H   H7        1.0  0.4653436159482779  0.9464899551081913  0.014791716539122006  1.0000
  H   H8        1.0  0.5346569742160909  0.05350979689725221  0.014788362580503605  1.0000
  H   H9        1.0  0.09989502999184197  0.5118962263731744  0.8808761589253039  1.0000
  H   H10       1.0  0.900105828588458  0.48810414078854336  0.880877109094428  1.0000
  H   H11       1.0  0.40010725252987805  0.011896029871003596  0.11912590003258573  1.0000
  H   H12       1.0  0.599892842224939  0.9881019535638627  0.11912316416975703  1.0000
  H   H13       1.0  0.1808329911534088  0.4369544685578574  0.7902764493060136  1.0000
  H   H14       1.0  0.819167693889156  0.5630442475159184  0.7902767565771571  1.0000
  H   H15       1.0  0.31916793685287814  0.9369533764488622  0.20972435305513676  1.0000
  H   H16       1.0  0.6808302456742084  0.06304568951100718  0.20972270277398056  1.0000
  H   H17       1.0  0.5347420653370206  0.10074653736925399  0.2946983677837595  1.0000
  H   H18       1.0  0.4652583657163446  0.8992530459418544  0.2946981228589466  1.0000
  H   H19       1.0  0.96525935369241  0.6007468606664897  0.7053021071911163  1.0000
  H   H20       1.0  0.0347404733334429  0.3992536123099626  0.7053021815058289  1.0000
  H   H21       1.0  0.28968093588493105  0.029302517470107092  0.3880295468397535  1.0000
  H   H22       1.0  0.7103203691916349  0.9706975781560343  0.3880290082188581  1.0000
  H   H23       1.0  0.21032065285485396  0.5293034509395866  0.6119709501718308  1.0000
  H   H24       1.0  0.7896789954013386  0.47069764684917453  0.6119702388548733  1.0000
  H   H25       1.0  0.44990631933515596  0.1460434525765351  0.19011328668100458  1.0000
  H   H26       1.0  0.5500939113933468  0.8539567623290978  0.19011315574341844  1.0000
  H   H27       1.0  0.05009527928942959  0.6460442575657768  0.8098861142853555  1.0000
  H   H28       1.0  0.949904748059346  0.35395672094379177  0.8098861521207541  1.0000
  H   H29       1.0  0.1949885723954239  0.07230811973514051  0.2891575125556543  1.0000
  H   H30       1.0  0.8050111527902357  0.9276926040423632  0.28915709723117544  1.0000
  H   H31       1.0  0.3050123247306614  0.572308999054684  0.7108419268067225  1.0000
  H   H32       1.0  0.6949882081599907  0.4276920391468337  0.7108411369824099  1.0000
  H   H33       1.0  0.3035371162378979  0.16906460304884527  0.12961138197297836  1.0000
  H   H34       1.0  0.6964623033488309  0.8309350797564861  0.12961090136494147  1.0000
  H   H35       1.0  0.1964637890821592  0.6690653799800259  0.8703885246323471  1.0000
  H   H36       1.0  0.8035363541538842  0.33093556206631547  0.8703879008600314  1.0000
  H   H37       1.0  0.14329977989838477  0.07223480428613976  0.18718699594424495  1.0000
  H   H38       1.0  0.8567011404792666  0.9277648438196878  0.18718663566142626  1.0000
  H   H39       1.0  0.3567018124769419  0.5722350565547956  0.8128134787112632  1.0000
  H   H40       1.0  0.643297525223602  0.4277647830637505  0.8128126337684521  1.0000
  H   H41       1.0  0.23318838674305192  0.31501125666812874  0.745236212866992  1.0000
  H   H42       1.0  0.7668129072800836  0.6849857808606856  0.745233812713771  1.0000
  H   H43       1.0  0.2668111404274995  0.8150118400985205  0.254764135365619  1.0000
  H   H44       1.0  0.7331871283709716  0.18498776728009855  0.25476351263053953  1.0000
  H   H45       1.0  0.2682952636696426  0.1009414078805193  0.7563771776650159  1.0000
  H   H46       1.0  0.7317046611865976  0.8990567600601266  0.7563772167641292  1.0000
  H   H47       1.0  0.23170424537315168  0.6009419960092754  0.24362328204081518  1.0000
  H   H48       1.0  0.768294697340721  0.39905704952006  0.2436231028696839  1.0000
  H   H49       1.0  0.27549732469560684  0.2457079385597821  0.6662308129875643  1.0000
  H   H50       1.0  0.7245038180005352  0.7542914208372198  0.6662304021700935  1.0000
  H   H51       1.0  0.22450358711518695  0.7457079033823463  0.3337695713344716  1.0000
  H   H52       1.0  0.7754976140308328  0.2542922249449191  0.33376947522157263  1.0000
  H   H53       1.0  0.3906494867088951  0.9613560143794118  0.5743968924949672  1.0000
  H   H54       1.0  0.6093500895769495  0.0386439689273601  0.5743962140061499  1.0000
  H   H55       1.0  0.10934866234536139  0.46135618503651443  0.42560337953047894  1.0000
  H   H56       1.0  0.8906499336835765  0.5386444565080383  0.4256032580523766  1.0000
  H   H57       1.0  0.32081748717319397  0.028780490736402004  0.6745087878943041  1.0000
  H   H58       1.0  0.6791822808701581  0.9712188636715099  0.674508733449436  1.0000
  H   H59       1.0  0.17918132050392194  0.5287810265089732  0.3254911917605342  1.0000
  H   H60       1.0  0.8208177790224694  0.4712196753707971  0.3254915486074311  1.0000
  H   H61       1.0  0.41953786554444134  0.1613382963400056  0.4632154509608883  1.0000
  H   H62       1.0  0.5804628882901426  0.8386623225369688  0.4632143250938372  1.0000
  H   H63       1.0  0.08046164861234929  0.6613386991019113  0.536784459667132  1.0000
  H   H64       1.0  0.9195385508858465  0.33866244399953155  0.5367855083632947  1.0000
  H   H65       1.0  0.34677401499922667  0.23763437154764225  0.5575275869047617  1.0000
  H   H66       1.0  0.6532255289758877  0.7623656219255038  0.5575281311849667  1.0000
  H   H67       1.0  0.1532255056184155  0.7376342667642889  0.44247228399351735  1.0000
  H   H68       1.0  0.8467745132307343  0.2623663646137685  0.442472259628673  1.0000
  H   H69       1.0  0.003744080116433699  0.0725441138169032  0.13744449988561772  1.0000
  H   H70       1.0  0.9962567449831851  0.9274532900135171  0.13744428847319065  1.0000
  H   H71       1.0  0.49625612177759837  0.5725443441203453  0.8625575274897062  1.0000
  H   H72       1.0  0.5037433112033368  0.42745489695528244  0.8625560163736382  1.0000
  H   H73       1.0  0.8473345393660024  0.0629200787677888  0.08689969043071243  1.0000
  H   H74       1.0  0.1526661889173866  0.9370767869617608  0.08689805746028872  1.0000
  H   H75       1.0  0.6526654859532284  0.5629202588782007  0.9131028747497612  1.0000
  H   H76       1.0  0.3473340438429985  0.437080657425625  0.9131006743266855  1.0000
  H   H77       1.0  0.9595890037450017  0.19732768919405427  0.8752169629965327  1.0000
  H   H78       1.0  0.0404111487394303  0.8026709756882652  0.8752163156532763  1.0000
  H   H79       1.0  0.5404103376996828  0.6973300436503606  0.12478346168371254  1.0000
  H   H80       1.0  0.45958976789511746  0.3026719163183884  0.12478403900598074  1.0000
  H   H81       1.0  0.7380274968199104  0.0923634327733893  0.9918180943503291  1.0000
  H   H82       1.0  0.2619735742596133  0.9076368675267331  0.9918171108147225  1.0000
  H   H83       1.0  0.7619725309926508  0.5923641645345512  0.008184455497875802  1.0000
  H   H84       1.0  0.2380280465175773  0.4076372971429833  0.008182671558628804  1.0000
  H   H85       1.0  0.7938834491867508  0.1611391822805928  0.8865927772401891  1.0000
  H   H86       1.0  0.2061167250864742  0.8388617500000847  0.8865912523711333  1.0000
  H   H87       1.0  0.7061151939398937  0.6611404159811158  0.11340870153893695  1.0000
  H   H88       1.0  0.2938841946112091  0.3388609822799395  0.11340753056121863  1.0000
  H   H89       1.0  0.38048080842225557  0.15760297169769902  0.0028450408079124007  1.0000
  H   H90       1.0  0.6195190636078395  0.8423973560702223  0.002844989868478401  1.0000
  H   H91       1.0  0.1195194006731981  0.6576030992475167  0.9971553893928661  1.0000
  H   H92       1.0  0.8804802901214612  0.3423971978356092  0.9971553592698686  1.0000
  H   H93       1.0  0.2990326479581782  0.10854873089136419  0.9475581419857524  1.0000
  H   H94       1.0  0.7009669478361572  0.8914515960830441  0.9475576346649395  1.0000
  H   H95       1.0  0.20096686172880135  0.6085488639119491  0.0524423137588101  1.0000
  H   H96       1.0  0.7990324100461379  0.3914514339649883  0.0524416536748404  1.0000
  H   H97       1.0  0.313848341804146  0.0791775838244746  0.03571642382148352  1.0000
  H   H98       1.0  0.6861522884436366  0.9208221555689633  0.03571692067384191  1.0000
  H   H99       1.0  0.1861511653951453  0.5791777350116121  0.9642835295903968  1.0000
  H   H100      1.0  0.8138477671817979  0.42082258188249705  0.9642839052535525  1.0000
  H   H101      1.0  0.13321300249538132  0.9877435260453353  0.8462416164226954  1.0000
  H   H102      1.0  0.8667850087256566  0.012254019172623002  0.8462412259955845  1.0000
  H   H103      1.0  0.36678584404842235  0.48774444388373445  0.15375915948929025  1.0000
  H   H104      1.0  0.6332136217917322  0.5122563614952682  0.15375877743103675  1.0000
  H   H105      1.0  0.09992272679549069  0.0576145815787115  0.7825783531559483  1.0000
  H   H106      1.0  0.9000772482473707  0.9423847076980535  0.7825785491087347  1.0000
  H   H107      1.0  0.40007677857833085  0.557615195167088  0.21742212911158287  1.0000
  H   H108      1.0  0.5999235044580046  0.4423850032802008  0.21742174796352745  1.0000
  H   H109      1.0  0.04922832744203729  0.05921392362864708  0.867674685529565  1.0000
  H   H110      1.0  0.9507711153420998  0.9407847457989433  0.8676749363343749  1.0000
  H   H111      1.0  0.4507704828127287  0.5592145914137561  0.13232579590474816  1.0000
  H   H112      1.0  0.5492289419733253  0.4407856583191503  0.1323253615705084  1.0000
  C   C1        1.0  0.1608555935496909  0.328755111154898  0.8418647470742827  1.0000
  C   C2        1.0  0.8391437997959696  0.6712441423917284  0.8418634664076738  1.0000
  C   C3        1.0  0.3391425442757381  0.828755756974779  0.15813559400069727  1.0000
  C   C4        1.0  0.6608548441824026  0.17124504576698737  0.15813386609190166  1.0000
  C   C5        1.0  0.1228627724188556  0.2913009709850201  0.9015393890379148  1.0000
  C   C6        1.0  0.8771374304836569  0.7086976780335589  0.9015381293529574  1.0000
  C   C7        1.0  0.3771367527443559  0.7913010863875627  0.09846148916874854  1.0000
  C   C8        1.0  0.6228619119212909  0.20869804662796548  0.09845970127104663  1.0000
  C   C9        1.0  0.07737301740020538  0.3356307138824732  0.9526338171452909  1.0000
  C   C10       1.0  0.9226272833710211  0.6643690414693352  0.9526336642717728  1.0000
  C   C11       1.0  0.4226265115164195  0.8356308626908769  0.04736652035020941  1.0000
  C   C12       1.0  0.5773741410435349  0.1643683011186496  0.04736418943701182  1.0000
  C   C13       1.0  0.0696056304274464  0.41342953497412793  0.9451804786101693  1.0000
  C   C14       1.0  0.9303932655585995  0.5865719305601189  0.9451803745247036  1.0000
  C   C15       1.0  0.43039460033121907  0.9134279740462784  0.05481930074653012  1.0000
  C   C16       1.0  0.56960676175796  0.08657004814478599  0.05481648444074242  1.0000
  C   C17       1.0  0.1072216245762192  0.4505686906466124  0.8865115861892083  1.0000
  C   C18       1.0  0.8927757685248352  0.5494311045554736  0.8865114613598312  1.0000
  C   C19       1.0  0.3927772188195319  0.9505687978904401  0.11348920908114486  1.0000
  C   C20       1.0  0.6072214746296538  0.04942975750500981  0.11348645219885613  1.0000
  C   C21       1.0  0.1520793939708014  0.40905276834843823  0.8360284747428897  1.0000
  C   C22       1.0  0.8479185976864724  0.5909459201521656  0.83602672761392  1.0000
  C   C23       1.0  0.3479187506553245  0.9090528425911018  0.16397285977301834  1.0000
  C   C24       1.0  0.6520772584741791  0.0909468195057741  0.16397064669810396  1.0000
  C   C25       1.0  0.4592986065104084  0.0950705668638534  0.29084148875320903  1.0000
  C   C26       1.0  0.5407011219005537  0.9049307244623463  0.290840803636307  1.0000
  C   C27       1.0  0.0407022925436848  0.5950702948931478  0.70915845638352  1.0000
  C   C28       1.0  0.9592982371232066  0.4049313128862194  0.7091584776842483  1.0000
  C   C29       1.0  0.32272355865088537  0.055347289154958894  0.3430415419277112  1.0000
  C   C30       1.0  0.6772769649999971  0.9446534021479277  0.3430409816588168  1.0000
  C   C31       1.0  0.17727872754835514  0.5553470564868803  0.6569584238949704  1.0000
  C   C32       1.0  0.8227223973875581  0.444654582752328  0.6569582789766815  1.0000
  C   C33       1.0  0.41137883190877733  0.1207400881918872  0.23296711150698718  1.0000
  C   C34       1.0  0.5886207856486436  0.8792612380137044  0.23296700844689883  1.0000
  C   C35       1.0  0.08862137406460138  0.6207409212203956  0.7670328202621166  1.0000
  C   C36       1.0  0.9113778759468473  0.3792606516795373  0.767032286240543  1.0000
  C   C37       1.0  0.270168524057624  0.0791792125407653  0.28699542198221917  1.0000
  C   C38       1.0  0.7298318922411012  0.9208209439763165  0.28699493012545224  1.0000
  C   C39       1.0  0.22983237365086498  0.5791812233669305  0.7130045314290714  1.0000
  C   C40       1.0  0.7701660776187182  0.42081981353114634  0.7130038252930435  1.0000
  C   C41       1.0  0.3141676499435562  0.1115435718999152  0.22884260852981708  1.0000
  C   C42       1.0  0.685831959713262  0.8884571882280454  0.22884208664074637  1.0000
  C   C43       1.0  0.18583325050598629  0.6115432708978615  0.7711578456560846  1.0000
  C   C44       1.0  0.8141660074059515  0.3884560252621654  0.7711566856306364  1.0000
  C   C45       1.0  0.2653822782693211  0.13306087549562307  0.16568429338374105  1.0000
  C   C46       1.0  0.7346172104129493  0.8669393541327323  0.16568435231179285  1.0000
  C   C47       1.0  0.23461862400238692  0.6330616763580039  0.8343161495971076  1.0000
  C   C48       1.0  0.7653800596301323  0.366938718864958  0.834314948791331  1.0000
  C   C49       1.0  0.17880569656739445  0.10836077345537379  0.14932930448372161  1.0000
  C   C50       1.0  0.8211951512970967  0.8916383289027647  0.14932944280554494  1.0000
  C   C51       1.0  0.3211958988671596  0.6083615694326454  0.850671151359656  1.0000
  C   C52       1.0  0.6788042066015549  0.39163938449695473  0.8506703630638843  1.0000
  C   C53       1.0  0.21390554706822226  0.20687444168201102  0.795460563300985  1.0000
  C   C54       1.0  0.7860930621395283  0.7931242712677146  0.7954596802646636  1.0000
  C   C55       1.0  0.28609397094512445  0.7068744879252691  0.20453984124216626  1.0000
  C   C56       1.0  0.7139048969063353  0.29312514972258435  0.20453862402196427  1.0000
  C   C57       1.0  0.20576411549524207  0.2854266086931858  0.7903898624000693  1.0000
  C   C58       1.0  0.7942372650174575  0.7145721073127548  0.7903885113181206  1.0000
  C   C59       1.0  0.294236104424506  0.7854266523480006  0.20961050123875688  1.0000
  C   C60       1.0  0.7057634683939468  0.21457298224389376  0.2096093162474802  1.0000
  C   C61       1.0  0.17633613647012678  0.17044826418754158  0.8556642202271906  1.0000
  C   C62       1.0  0.8236632833077806  0.8295504124788166  0.8556633582564789  1.0000
  C   C63       1.0  0.3236633784585975  0.6704483488715951  0.14433620328426144  1.0000
  C   C64       1.0  0.6763346788237213  0.32955189362282056  0.14433596231611295  1.0000
  C   C65       1.0  0.13237038010583999  0.21081853054787555  0.9077887283175773  1.0000
  C   C66       1.0  0.8676298347682588  0.7891801147039175  0.9077889694731954  1.0000
  C   C67       1.0  0.36762983349601097  0.7108192177344461  0.09221167417196342  1.0000
  C   C68       1.0  0.6323695144535791  0.2891810561745912  0.09221037212242322  1.0000
  C   C69       1.0  0.2586819692017812  0.1606070348631405  0.742591709255578  1.0000
  C   C70       1.0  0.7413172339950689  0.8393934156396907  0.7425917896673725  1.0000
  C   C71       1.0  0.2413175448935689  0.6606070466722541  0.2574087193805426  1.0000
  C   C72       1.0  0.7586821194793032  0.3393919905490819  0.2574080434083471  1.0000
  C   C73       1.0  0.28667285594615777  0.18620605793013573  0.6799572726852292  1.0000
  C   C74       1.0  0.7133269225319407  0.8137921560675065  0.6799557837198125  1.0000
  C   C75       1.0  0.213326660316973  0.6862065989470308  0.3200431426205058  1.0000
  C   C76       1.0  0.7866731240280912  0.31379353765280626  0.32004302743255425  1.0000
  C   C77       1.0  0.3285952569150935  0.14057373694689806  0.6254987838039556  1.0000
  C   C78       1.0  0.6714058077607775  0.8594262155622234  0.6254972264045408  1.0000
  C   C79       1.0  0.17140495073880396  0.6405742427353687  0.3745021728916172  1.0000
  C   C80       1.0  0.8285963284265279  0.3594264296071046  0.37450104335887613  1.0000
  C   C81       1.0  0.38064542925997097  0.022855522586503703  0.5734586733942992  1.0000
  C   C82       1.0  0.6193583167552745  0.9771450298494812  0.5734575168596054  1.0000
  C   C83       1.0  0.1193568541888155  0.5228554254591273  0.42654234460228946  1.0000
  C   C84       1.0  0.8806452199106045  0.47714521551978345  0.4265417268589149  1.0000
  C   C85       1.0  0.3416632602770377  0.0611829393653593  0.6290342052548042  1.0000
  C   C86       1.0  0.6583378111716128  0.9388170110127515  0.6290336278433062  1.0000
  C   C87       1.0  0.15833763590790534  0.5611828779707649  0.3709662751554746  1.0000
  C   C88       1.0  0.8416636364856274  0.43881722793889816  0.37096615345996053  1.0000
  C   C89       1.0  0.395818607990293  0.1344173677455913  0.5108956401673626  1.0000
  C   C90       1.0  0.6041822371716777  0.8655832223957701  0.5108940079294799  1.0000
  C   C91       1.0  0.10418020863280468  0.6344178006051635  0.48910480210610546  1.0000
  C   C92       1.0  0.8958185090290272  0.3655833712318498  0.48910529388146545  1.0000
  C   C93       1.0  0.3569720114326315  0.17675827507768094  0.5639969130100015  1.0000
  C   C94       1.0  0.6430303259499225  0.8232417144972645  0.5639953442158261  1.0000
  C   C95       1.0  0.14302819928491317  0.6767581736074817  0.4360035072160359  1.0000
  C   C96       1.0  0.856973197682727  0.32324246166920995  0.4360034620178583  1.0000
  C   C97       1.0  0.0958090908060569  0.17168485289944613  0.9705054665714105  1.0000
  C   C98       1.0  0.9041898536878177  0.8283126174274926  0.9705052086805072  1.0000
  C   C99       1.0  0.4041904242279059  0.6716855799833255  0.029495473923148614  1.0000
  C   C100      1.0  0.5958088035939256  0.32831586885022546  0.029494630163768014  1.0000
  C   C101      1.0  0.15505151546274482  0.15794864495100566  0.025699714641128007  1.0000
  C   C102      1.0  0.8449484003439238  0.842049394788816  0.025699904096924808  1.0000
  C   C103      1.0  0.34494869366145753  0.6579482306567214  0.9743001977525768  1.0000
  C   C104      1.0  0.6550509533560103  0.3420515116371163  0.9743004452220208  1.0000
  C   C105      1.0  0.9996677375206955  0.15145027080773588  0.9749974046772398  1.0000
  C   C106      1.0  0.00033191083217329987  0.8485466282483499  0.9749977259913085  1.0000
  C   C107      1.0  0.5003322952935106  0.6514526830979436  0.02500304389324271  1.0000
  C   C108      1.0  0.49966761917881536  0.348549905569854  0.025003122404832805  1.0000
  C   C109      1.0  0.9668084143931921  0.113615494149947  0.036077548910654414  1.0000
  C   C110      1.0  0.03319152129057559  0.8863819707721489  0.03607685028298142  1.0000
  C   C111      1.0  0.5331909199635447  0.6136162053340468  0.963923954616128  1.0000
  C   C112      1.0  0.4668080119228505  0.3863846803408535  0.9639224255295891  1.0000
  C   C113      1.0  0.02981190811603079  0.09994888978253162  0.09056611634670733  1.0000
  C   C114      1.0  0.9701888271910517  0.9000496794275962  0.09056537379974833  1.0000
  C   C115      1.0  0.47018829609773855  0.5999502274638286  0.9094348615033429  1.0000
  C   C116      1.0  0.5298119219288536  0.4000506910501115  0.9094344276903644  1.0000
  C   C117      1.0  0.12274031662511929  0.12220588030037048  0.08804013929768224  1.0000
  C   C118      1.0  0.8772604138445244  0.8777921218683106  0.08804034457188693  1.0000
  C   C119      1.0  0.37725919421886545  0.6222060739958835  0.9119608269623501  1.0000
  C   C120      1.0  0.622739638136146  0.37779427443244623  0.9119594685078031  1.0000
  C   C121      1.0  0.8717872916799577  0.09208910712277428  0.040452489034628114  1.0000
  C   C122      1.0  0.12821334763776085  0.9079083551627959  0.04045136282393001  1.0000
  C   C123      1.0  0.6282127361088496  0.5920892578364843  0.9595495433293738  1.0000
  C   C124      1.0  0.37178757790803013  0.4079110619111788  0.9595484194070852  1.0000
  C   C125      1.0  0.9351438989884355  0.1678180913695257  0.9214265735977708  1.0000
  C   C126      1.0  0.06485564675308808  0.8321799770996349  0.9214264545633244  1.0000
  C   C127      1.0  0.5648547447033392  0.6678204750788834  0.07857438407592103  1.0000
  C   C128      1.0  0.4351445771264082  0.33218264986618345  0.07857440235600424  1.0000
  C   C129      1.0  0.8109436980760092  0.10835769625193588  0.987376887606992  1.0000
  C   C130      1.0  0.1890573644960796  0.8916409010344565  0.9873753170747793  1.0000
  C   C131      1.0  0.6890563310909954  0.6083589897127837  0.012625653912330403  1.0000
  C   C132      1.0  0.31094425492612743  0.39164303785162247  0.012623956000553004  1.0000
  C   C133      1.0  0.8428634713569636  0.14707177296861573  0.9277446875105331  1.0000
  C   C134      1.0  0.15713608648655245  0.8529268602562398  0.9277446560055086  1.0000
  C   C135      1.0  0.6571351705774687  0.6470735972216063  0.07225576333939193  1.0000
  C   C136      1.0  0.34286413914977487  0.3529283944044153  0.07225619011052943  1.0000
  C   C137      1.0  0.3133331264596109  0.12831057857719946  0.0003717898681117001  1.0000
  C   C138      1.0  0.6866674360871768  0.8716891821179472  0.0003712776001947001  1.0000
  C   C139      1.0  0.18666638490080345  0.6283101399288569  0.9996286555859587  1.0000
  C   C140      1.0  0.8133326153766162  0.3716895871001852  0.9996285386579519  1.0000
  C   C141      1.0  0.1127794254289398  0.0470813576871407  0.8380291772008803  1.0000
  C   C142      1.0  0.8872199605712935  0.9529161924801314  0.8380293539688711  1.0000
  C   C143      1.0  0.38721938379891435  0.5470820039559997  0.16197182817847286  1.0000
  C   C144      1.0  0.6127800977719814  0.4529182279099047  0.16197145524568413  1.0000
  N   N1        1.0  0.40773735652428655  0.058650593716024005  0.5151469384883429  1.0000
  N   N2        1.0  0.5922648872911223  0.9413494252992578  0.5151468069782583  1.0000
  N   N3        1.0  0.09226284419074908  0.5586510284536601  0.48485250798570706  1.0000
  N   N4        1.0  0.9077372558355705  0.4413501459460035  0.4848534906337465  1.0000
  N   N5        1.0  0.4161073623690541  0.06193523664955338  0.34488382519320754  1.0000
  N   N6        1.0  0.5838931648100213  0.9380660221067244  0.34488265121891726  1.0000
  N   N7        1.0  0.08389214337065451  0.561936136856005  0.6551166548243402  1.0000
  N   N8        1.0  0.9161075875286354  0.4380660720566354  0.6551166128478771  1.0000
  Cl  Cl1       1.0  0.3206803215891938  0.8599703801440199  0.4284606905184918  1.0000
  Cl  Cl2       1.0  0.6793196704216272  0.14002912255153177  0.428460551420642  1.0000
  Cl  Cl3       1.0  0.1793178188800937  0.359971035429993  0.571540151928872  1.0000
  Cl  Cl4       1.0  0.8206810566788859  0.6400306552891522  0.5715388678433941  1.0000
  O   O1        1.0  0.18893415115858397  0.0926522861968806  0.8626372032880457  1.0000
  O   O2        1.0  0.8110659772299726  0.9073458177035503  0.8626362873826497  1.0000
  O   O3        1.0  0.3110660524372619  0.5926529429233155  0.13736377836176672  1.0000
  O   O4        1.0  0.6889340772538189  0.4073473037731361  0.13736402793483654  1.0000
  O   O5        1.0  0.2453900996450144  0.1838705962453773  0.021588760752976607  1.0000
  O   O6        1.0  0.7546098082868722  0.8161280145357139  0.021588349816177306  1.0000
  O   O7        1.0  0.25461011167531206  0.6838707428490236  0.9784121733965849  1.0000
  O   O8        1.0  0.7453902384719411  0.316128996966917  0.978411495374353  1.0000
  O   O9        1.0  0.41530308874103367  0.8845362997668003  0.45032634297644614  1.0000
  O   O10       1.0  0.5846969451524088  0.1154671696952434  0.4503266334682509  1.0000
  O   O11       1.0  0.08469574906398947  0.38453639423320846  0.5496755219335655  1.0000
  O   O12       1.0  0.9153030846135476  0.6154658782271908  0.5496727985863716  1.0000
  O   O13       1.0  0.2517180688609598  0.9015704523816981  0.46821700050837495  1.0000
  O   O14       1.0  0.7482806087906368  0.09842618353617637  0.46821643893119386  1.0000
  O   O15       1.0  0.24828007513217187  0.4015734098417737  0.5317848555302762  1.0000
  O   O16       1.0  0.7517180290230667  0.5984311476548283  0.5317824843676534  1.0000
  O   O17       1.0  0.31403717318244156  0.7788926514679133  0.44062442980491323  1.0000
  O   O18       1.0  0.6859677089094588  0.2211062753331561  0.440625290823242  1.0000
  O   O19       1.0  0.18596443669203208  0.2788938830302427  0.5593749019823735  1.0000
  O   O20       1.0  0.8140371965857085  0.7211083835834413  0.5593761567321495  1.0000
  O   O21       1.0  0.3099629035951707  0.8769835279654359  0.354537303822447  1.0000
  O   O22       1.0  0.6900369468204345  0.12301715640921879  0.35453666737665673  1.0000
  O   O23       1.0  0.19003593357024326  0.37698300218760744  0.6454645650207029  1.0000
  O   O24       1.0  0.8099637788393962  0.6230169382886289  0.6454627607465258  1.0000
