data_image0
_chemical_formula_structural       ZnH30C26N4O6
_chemical_formula_sum              "Zn1 H30 C26 N4 O6"
_cell_length_a       6.7822784578123585
_cell_length_b       8.063901042127368
_cell_length_c       12.644653932713767
_cell_angle_alpha    108.22248864316502
_cell_angle_beta     105.56086195575946
_cell_angle_gamma    90.01518037916014

_space_group_name_H-M_alt    "P 1"
_space_group_IT_number       1

loop_
  _space_group_symop_operation_xyz
  'x, y, z'

loop_
  _atom_site_type_symbol
  _atom_site_label
  _atom_site_symmetry_multiplicity
  _atom_site_fract_x
  _atom_site_fract_y
  _atom_site_fract_z
  _atom_site_occupancy
  Zn  Zn1       1.0  0.278094524484203  0.4999179429128517  0.9999855287562339  1.0000
  H   H1        1.0  0.30370914756617395  0.8768263760485764  0.3826367848319946  1.0000
  H   H2        1.0  0.9213838082442578  0.1229915972999294  0.6172954941472069  1.0000
  H   H3        1.0  0.87806997975963  0.6803627570002108  0.25127452038319115  1.0000
  H   H4        1.0  0.6272215765414302  0.3194505948036976  0.7486423490479693  1.0000
  H   H5        1.0  0.40813680552575  0.5910891485669085  0.4028750572574539  1.0000
  H   H6        1.0  0.005707241401303481  0.40852675954256057  0.596823512893934  1.0000
  H   H7        1.0  0.1526958588674674  0.4945971208924433  0.3334422982906986  1.0000
  H   H8        1.0  0.8197925752550147  0.5052139473029699  0.6662237947279407  1.0000
  H   H9        1.0  0.8665730407309554  0.6108242189923773  0.4380116113133851  1.0000
  H   H10       1.0  0.42921678911656613  0.3894087090059273  0.5618603689916597  1.0000
  H   H11       1.0  0.9390484308278744  0.781527191039146  0.5732047910232225  1.0000
  H   H12       1.0  0.3659156139344546  0.21868825730162908  0.4266973402035603  1.0000
  H   H13       1.0  0.0224943393121677  0.9881869168417199  0.47759773349158496  1.0000
  H   H14       1.0  0.5445950036040871  0.011838049711705899  0.522172568464697  1.0000
  H   H15       1.0  0.766744844822462  0.8898580328357968  0.409671781953314  1.0000
  H   H16       1.0  0.3570944111218424  0.110407576242082  0.5902166150644064  1.0000
  H   H17       1.0  0.21845621661456252  0.5792353663997859  0.5473632949075764  1.0000
  H   H18       1.0  0.6715886053781687  0.420544838402428  0.4523558216530289  1.0000
  H   H19       1.0  0.30001627642414525  0.7961378098817349  0.5646892711397625  1.0000
  H   H20       1.0  0.7353713072082685  0.2035696369274191  0.4350177013128089  1.0000
  H   H21       1.0  0.6312485805409837  0.8783255879641061  0.22167466070381886  1.0000
  H   H22       1.0  0.40997664968491426  0.1213745885292212  0.7782178307078381  1.0000
  H   H23       1.0  0.9210373676716301  0.1954085850414771  0.1396003743196701  1.0000
  H   H24       1.0  0.782047497180116  0.8046460073508044  0.8605125325359353  1.0000
  H   H25       1.0  0.34828578960727435  0.025716707990163495  0.18004126779468518  1.0000
  H   H26       1.0  0.1691426586180853  0.9746741122108703  0.8206504891594405  1.0000
  H   H27       1.0  0.18170542072179788  0.2382841268348983  0.08826763474625207  1.0000
  H   H28       1.0  0.09448204235204116  0.7621049409119323  0.9124869349348327  1.0000
  H   H29       1.0  0.7316448077948083  0.4032875417076198  0.05028101600984775  1.0000
  H   H30       1.0  0.6821829029665095  0.5968905735999853  0.95000150247062  1.0000
  C   C1        1.0  0.27157648801250633  0.6936594815423051  0.21679782420595467  1.0000
  C   C2        1.0  0.05501746496894809  0.30633934157076936  0.7830944383469072  1.0000
  C   C3        1.0  0.2047627581386351  0.7565197085779262  0.32706910407153333  1.0000
  C   C4        1.0  0.8779966178649729  0.24333979389403032  0.6727644632178027  1.0000
  C   C5        1.0  0.9807530051654112  0.7991039201704099  0.3074685972458227  1.0000
  C   C6        1.0  0.6735215455523901  0.20076865611176234  0.6923310317346605  1.0000
  C   C7        1.0  0.2460320431932814  0.6184050695713877  0.38969883380668335  1.0000
  C   C8        1.0  0.8567197785539663  0.3813348730318609  0.6099967841007653  1.0000
  C   C9        1.0  0.972477594184092  0.7297156362644516  0.48898177482969624  1.0000
  C   C10       1.0  0.48374987536214326  0.2703512408846862  0.5108702270877074  1.0000
  C   C11       1.0  0.9289498195098106  0.8632710296885338  0.4244615057264483  1.0000
  C   C12       1.0  0.5045506996110519  0.136809688684032  0.5753920146958008  1.0000
  C   C13       1.0  0.19387114219756538  0.6811813937056145  0.5054863560522306  1.0000
  C   C14       1.0  0.6886400277972412  0.3185858564348081  0.4942261298573243  1.0000
  C   C15       1.0  0.9406014824006945  0.9391613751354414  0.24884087360479865  1.0000
  C   C16       1.0  0.6920271900965177  0.060621899220613784  0.7509492041987613  1.0000
  C   C17       1.0  0.6498809160467901  0.08806510332755832  0.16428343559497455  1.0000
  C   C18       1.0  0.48623260303428145  0.9120183448520154  0.8359452464606177  1.0000
  C   C19       1.0  0.7572989405812011  0.20016343181697485  0.12840208535663322  1.0000
  C   C20       1.0  0.6295354454983837  0.7999487323464365  0.8717966664137434  1.0000
  C   C21       1.0  0.43872058623020393  0.104404440286828  0.15071874255586687  1.0000
  C   C22       1.0  0.2888183939252471  0.8958464123556525  0.8497934564896922  1.0000
  C   C23       1.0  0.3452062783853265  0.22382492448542016  0.10037632191325226  1.0000
  C   C24       1.0  0.24576679789702635  0.7765096000663404  0.9002181917734616  1.0000
  C   C25       1.0  0.6503317024031787  0.3163446450138707  0.07873613454035677  1.0000
  C   C26       1.0  0.5723835667508865  0.6838036205474082  0.9215664117368191  1.0000
  N   N1        1.0  0.73550774451261  0.962471671720941  0.2114806743574177  1.0000
  N   N2        1.0  0.5244223092894345  0.037295688397541896  0.7884261219486673  1.0000
  N   N3        1.0  0.4467344412731933  0.328427399265408  0.0631883525381483  1.0000
  N   N4        1.0  0.38437299058272595  0.6717531247862142  0.9372288726593396  1.0000
  O   O1        1.0  0.4574683300606565  0.7212896162378898  0.22152467154521813  1.0000
  O   O2        1.0  0.23623690339734793  0.27873787695440194  0.7785131787388122  1.0000
  O   O3        1.0  0.13467319732943386  0.6045337695239112  0.12265706370133239  1.0000
  O   O4        1.0  0.012081411032959007  0.3955943096782307  0.8771497871158546  1.0000
  O   O5        1.0  0.079475712552302  0.029406867027034895  0.2402801808891724  1.0000
  O   O6        1.0  0.8395070048674143  0.9704714387120319  0.75949600512331  1.0000
