data_image0
_chemical_formula_structural       Mn2H36C54N8O10
_chemical_formula_sum              "Mn2 H36 C54 N8 O10"
_cell_length_a       10.163601186602278
_cell_length_b       11.350830323293359
_cell_length_c       11.908
_cell_angle_alpha    116.84692232441623
_cell_angle_beta     105.9055906435593
_cell_angle_gamma    100.44192792007671

_space_group_name_H-M_alt    "P 1"
_space_group_IT_number       1

loop_
  _space_group_symop_operation_xyz
  'x, y, z'

loop_
  _atom_site_type_symbol
  _atom_site_label
  _atom_site_symmetry_multiplicity
  _atom_site_fract_x
  _atom_site_fract_y
  _atom_site_fract_z
  _atom_site_occupancy
  Mn  Mn1       1.0  0.6155415247215146  0.1583393614381379  0.22192279017436792  1.0000
  Mn  Mn2       1.0  0.384465113989954  0.8416725228878406  0.7780801836114223  1.0000
  H   H1        1.0  0.9412856759867766  0.351630137124495  0.2987971878567848  1.0000
  H   H2        1.0  0.05871877244720741  0.6483785779633777  0.7012047490923409  1.0000
  H   H3        1.0  0.06807676882250037  0.597912686772446  0.35643574725502697  1.0000
  H   H4        1.0  0.9319202298405926  0.4020896898392081  0.6435591992513991  1.0000
  H   H5        1.0  0.9311011583091188  0.7618320201029505  0.3862552470713112  1.0000
  H   H6        1.0  0.0689006099774474  0.23817775139761474  0.6137523961355669  1.0000
  H   H7        1.0  0.5267964451024696  0.9498502399932464  0.40154658362830287  1.0000
  H   H8        1.0  0.47319529406721733  0.0501489673803022  0.5984508069879126  1.0000
  H   H9        1.0  0.24733399928235403  0.5303064994903153  0.37353172392319317  1.0000
  H   H10       1.0  0.7526559386783518  0.469690595057827  0.6264718937971593  1.0000
  H   H11       1.0  0.1515546523501854  0.2769238000716996  0.3083744184631811  1.0000
  H   H12       1.0  0.848449709419576  0.7230680124129307  0.6916185424754318  1.0000
  H   H13       1.0  0.3068478656603446  0.1285379591125348  0.251093038337963  1.0000
  H   H14       1.0  0.6931484556671705  0.8714570226102013  0.748898566399113  1.0000
  H   H15       1.0  0.5433534966118927  0.3745722517755041  0.054854250288698836  1.0000
  H   H16       1.0  0.45665528904494584  0.6254343504869624  0.9451452723284957  1.0000
  H   H17       1.0  0.6438867466921679  0.6001586201770621  0.06883954986019351  1.0000
  H   H18       1.0  0.35613163568094564  0.3998490384981039  0.931168550660594  1.0000
  H   H19       1.0  0.8257053072404335  0.622157358285115  0.9675210772449745  1.0000
  H   H20       1.0  0.174315899413628  0.3778524132154502  0.03249027296290312  1.0000
  H   H21       1.0  0.9118532556488645  0.4237281912158579  0.8661320833146603  1.0000
  H   H22       1.0  0.08815767695335097  0.5762731289830967  0.13387070630659542  1.0000
  H   H23       1.0  0.7962070055036464  0.1751849183854546  0.6591114030714564  1.0000
  H   H24       1.0  0.20378882595393577  0.8248142889880938  0.34088778453162405  1.0000
  H   H25       1.0  0.9540923534924917  0.0398542255985603  0.585015480663884  1.0000
  H   H26       1.0  0.04590167675610251  0.9601428689495819  0.41497817724118147  1.0000
  H   H27       1.0  0.08591535148000419  0.039970430995794  0.9596867084590951  1.0000
  H   H28       1.0  0.9140868633443804  0.9600266635523553  0.040308024104945286  1.0000
  H   H29       1.0  0.9215198967288174  0.1696482594138686  0.031849951352128904  1.0000
  H   H30       1.0  0.0784848974415553  0.830353060785086  0.9681488831314624  1.0000
  H   H31       1.0  0.7435358084668664  0.8872271514268135  0.3742577324848569  1.0000
  H   H32       1.0  0.25645656470629064  0.11277099953403541  0.6257410312102037  1.0000
  H   H33       1.0  0.6495770826312182  0.215830397097875  0.49903716777087226  1.0000
  H   H34       1.0  0.35040808570600745  0.7841593025613562  0.5009554327921961  1.0000
  H   H35       1.0  0.7554575546143881  0.1443102007545534  0.4299646150873356  1.0000
  H   H36       1.0  0.24453019306882604  0.8556837245554902  0.5700371260247721  1.0000
  C   C1        1.0  0.8868587193869074  0.4288676390114645  0.31637868610594916  1.0000
  C   C2        1.0  0.11315176667748973  0.5711463581399202  0.6836328153002356  1.0000
  C   C3        1.0  0.955644347171429  0.5641571317029772  0.3452319508095485  1.0000
  C   C4        1.0  0.04435868912207751  0.43585052697218885  0.6547683612960356  1.0000
  C   C5        1.0  0.8799996083619988  0.6563027296416593  0.36367350526056436  1.0000
  C   C6        1.0  0.11999933564361243  0.3437049290335068  0.6363283689444756  1.0000
  C   C7        1.0  0.7367580901307846  0.612792259681207  0.35457622779600234  1.0000
  C   C8        1.0  0.2632407097412894  0.3872122297558533  0.6454276074947671  1.0000
  C   C9        1.0  0.645179273817206  0.6951132194905654  0.36940721708283064  1.0000
  C   C10       1.0  0.3548160677704431  0.3048902135337883  0.6306003931578346  1.0000
  C   C11       1.0  0.5431174253059723  0.8558770480799681  0.39624603820364274  1.0000
  C   C12       1.0  0.456874558798674  0.1441200464681742  0.6037563785811813  1.0000
  C   C13       1.0  0.5103925566438079  0.653150394138656  0.3757737574600882  1.0000
  C   C14       1.0  0.4896112144545981  0.3468509260602985  0.6242315558923436  1.0000
  C   C15       1.0  0.4483530934653571  0.5154469984228953  0.3508251414644619  1.0000
  C   C16       1.0  0.5516443950676688  0.48455115253794656  0.64917649829286  1.0000
  C   C17       1.0  0.30998717567059947  0.46134070906061453  0.3472119741758277  1.0000
  C   C18       1.0  0.6900115808693672  0.5386553290748282  0.6527856935665213  1.0000
  C   C19       1.0  0.2578252871007791  0.3226284392143697  0.3121425184532002  1.0000
  C   C20       1.0  0.7421696220862515  0.6773654860956739  0.687855019384571  1.0000
  C   C21       1.0  0.3442910331146365  0.2390080917814501  0.2812397621150495  1.0000
  C   C22       1.0  0.6556963255000738  0.7609847771158869  0.7187538752846762  1.0000
  C   C23       1.0  0.5304875852809801  0.42480256293387  0.3218135073392645  1.0000
  C   C24       1.0  0.4695119927281013  0.5752040393285967  0.6781922592593687  1.0000
  C   C25       1.0  0.6766681273214985  0.4751459102513564  0.3290189872389816  1.0000
  C   C26       1.0  0.32333198388962364  0.5248649176619153  0.6709962810726395  1.0000
  C   C27       1.0  0.5879368695796715  0.1385855003219945  0.9389323696203603  1.0000
  C   C28       1.0  0.412053457449538  0.8614126506388544  0.06106003706598534  1.0000
  C   C29       1.0  0.6707556658556726  0.2732907967892615  0.9549684395471157  1.0000
  C   C30       1.0  0.3292419234787758  0.7267020721080755  0.045027590890811146  1.0000
  C   C31       1.0  0.6252406540761584  0.3875851434396864  0.014505869249411866  1.0000
  C   C32       1.0  0.37476604210462483  0.6124130075211554  0.9854886867548913  1.0000
  C   C33       1.0  0.6804777472854368  0.5129242848903388  0.02072607873281384  1.0000
  C   C34       1.0  0.3195404909541324  0.4870802045467215  0.9792823033305353  1.0000
  C   C35       1.0  0.7817220079536611  0.5251776158217325  0.964300523530241  1.0000
  C   C36       1.0  0.2182935501384904  0.4748279300280344  0.03570600684662391  1.0000
  C   C37       1.0  0.8290946719222491  0.4131049050837703  0.9063126937395366  1.0000
  C   C38       1.0  0.1709216643069098  0.5869027535913958  0.09369408840203165  1.0000
  C   C39       1.0  0.7780471272892414  0.2875048296957061  0.903143529341385  1.0000
  C   C40       1.0  0.22195445353167292  0.7124933212651428  0.09685570854489368  1.0000
  C   C41       1.0  0.8496138611766355  0.183878138510849  0.851214209289111  1.0000
  C   C42       1.0  0.15038835364774883  0.8161189560372932  0.14878388236125792  1.0000
  C   C43       1.0  0.8585105234933154  0.1439267229436965  0.7242234728807373  1.0000
  C   C44       1.0  0.14148633103623348  0.856072484429852  0.2757767937977392  1.0000
  C   C45       1.0  0.9477818440013479  0.0692214423036077  0.6834319311164307  1.0000
  C   C46       1.0  0.0522132093192269  0.9307756522445417  0.3165611263208703  1.0000
  C   C47       1.0  0.0329219585175693  0.0334248978937239  0.76874958647533  1.0000
  C   C48       1.0  0.9670783109642969  0.9665669145909136  0.23124157747642493  1.0000
  C   C49       1.0  0.0194595387690342  0.0672322171855981  0.8929428134988696  1.0000
  C   C50       1.0  0.9805434541923649  0.9327669901879574  0.1070530106014545  1.0000
  C   C51       1.0  0.9279244873504241  0.1404226020109078  0.9331872548269613  1.0000
  C   C52       1.0  0.07207787160750462  0.8595776617753473  0.06680803596610485  1.0000
  C   C53       1.0  0.13890731504884002  0.9656214252225511  0.7267264585962749  1.0000
  C   C54       1.0  0.8610895969500236  0.0343640487858679  0.27326035167123314  1.0000
  N   N1        1.0  0.7521178560778026  0.3859709448309161  0.3089864581573848  1.0000
  N   N2        1.0  0.24788824943162524  0.61403671384425  0.6910305275197145  1.0000
  N   N3        1.0  0.47654780592895213  0.2889742997642983  0.28667197541651745  1.0000
  N   N4        1.0  0.5234497834054963  0.7110185691330386  0.7133206959350815  1.0000
  N   N5        1.0  0.6623859998356636  0.8239004920007957  0.38126960630486195  1.0000
  N   N6        1.0  0.3376048603955867  0.1761018846108584  0.6187297827797167  1.0000
  N   N7        1.0  0.4498979126997967  0.7569059676731698  0.3959933437666622  1.0000
  N   N8        1.0  0.5500954835453272  0.24309218328767912  0.6040115376332906  1.0000
  O   O1        1.0  0.5453608447380135  0.1486890314046576  0.032795503797352465  1.0000
  O   O2        1.0  0.45462432359921934  0.8513006682545736  0.9671996160804567  1.0000
  O   O3        1.0  0.5536731665320076  0.0223811595062102  0.8265142044298058  1.0000
  O   O4        1.0  0.44631867343910164  0.9776127658038334  0.17347253823751882  1.0000
  O   O5        1.0  0.7079210634422284  0.2171477437373639  0.4440314766879609  1.0000
  O   O6        1.0  0.2920767133578721  0.7828567456996964  0.5559788374716419  1.0000
  O   O7        1.0  0.19515437716935216  0.9074014647983759  0.7872181926155192  1.0000
  O   O8        1.0  0.8048370737332534  0.09259140409896101  0.2127764019994842  1.0000
  O   O9        1.0  0.16630008179765807  0.9703383079373253  0.6293564749834744  1.0000
  O   O10       1.0  0.8336959512627757  0.0296503353091992  0.37063149398081646  1.0000
