data_image0
_chemical_formula_structural       Cu3H10C16S3N7
_chemical_formula_sum              "Cu3 H10 C16 S3 N7"
_cell_length_a       5.74187224358106
_cell_length_b       8.316364055048732
_cell_length_c       10.053897585500343
_cell_angle_alpha    86.86889616296504
_cell_angle_beta     84.24022956890023
_cell_angle_gamma    79.83006881260481

_space_group_name_H-M_alt    "P 1"
_space_group_IT_number       1

loop_
  _space_group_symop_operation_xyz
  'x, y, z'

loop_
  _atom_site_type_symbol
  _atom_site_label
  _atom_site_symmetry_multiplicity
  _atom_site_fract_x
  _atom_site_fract_y
  _atom_site_fract_z
  _atom_site_occupancy
  Cu  Cu1       1.0  0.4694454947640023  0.4968247177548691  0.4829930424903708  1.0000
  Cu  Cu2       1.0  0.7118073076097459  0.6511698323061097  0.8340835434828903  1.0000
  Cu  Cu3       1.0  0.8076884954403453  0.7675928070051937  0.16557863400058176  1.0000
  H   H1        1.0  0.8083175512532607  0.4033634440853859  0.24945797875678008  1.0000
  H   H2        1.0  0.8599252559432455  0.8833157404124633  0.638853317894437  1.0000
  H   H3        1.0  0.23449758505407906  0.8818406112480802  0.8819965150592279  1.0000
  H   H4        1.0  0.027727990005779194  0.1270927221915201  0.7567729427290004  1.0000
  H   H5        1.0  0.24925903170318967  0.2496337871181993  0.5618205061788117  1.0000
  H   H6        1.0  0.027273556746628427  0.9359122977791331  0.4288506902074118  1.0000
  H   H7        1.0  0.09880302471784567  0.35165658655924403  0.0679081697457349  1.0000
  H   H8        1.0  0.47644913189234467  0.29493701193775473  0.9192927814606193  1.0000
  H   H9        1.0  0.7855334246827398  0.056061638913760696  0.9734724393981364  1.0000
  H   H10       1.0  0.3785351768478548  0.9330817467460761  0.314392853798985  1.0000
  C   C1        1.0  0.6753117166215005  0.9412946628566771  0.6608763504446671  1.0000
  C   C2        1.0  0.3259965185146498  0.9402516490158488  0.7975085127971652  1.0000
  C   C3        1.0  0.2126369881143191  0.07575619859157709  0.727195678218244  1.0000
  C   C4        1.0  0.33651659642963233  0.144933185463799  0.6190384868803276  1.0000
  C   C5        1.0  0.5754680636561602  0.07709685612503138  0.5841305941179513  1.0000
  C   C6        1.0  0.7201936863832898  0.1384363267897939  0.4711997593549738  1.0000
  C   C7        1.0  0.9346512906733225  0.057891991732610414  0.4062102451136269  1.0000
  C   C8        1.0  0.9989393521379738  0.16404366816729515  0.30210223990316354  1.0000
  C   C9        1.0  0.2065266668095944  0.14509321418557874  0.20493251097961715  1.0000
  C   C10       1.0  0.2358983766135054  0.24845808908346362  0.091630811593987  1.0000
  C   C11       1.0  0.4463647228431498  0.2174749339540583  0.008019367551440799  1.0000
  C   C12       1.0  0.6198383970536269  0.08481575945372553  0.03723211043541849  1.0000
  C   C13       1.0  0.39197721417432524  0.014915536536300103  0.22665709684827107  1.0000
  C   C14       1.0  0.2478496696170182  0.5441755992343006  0.7644955844493211  1.0000
  C   C15       1.0  0.3404489926647756  0.6577601797273259  0.09898334159279898  1.0000
  C   C16       1.0  0.9504459037423773  0.6206357494188877  0.43526316329597137  1.0000
  S   S1        1.0  0.5281690383491267  0.4806888738771207  0.7124701457508706  1.0000
  S   S2        1.0  0.6234026107652754  0.5877361061219092  0.0569924399767885  1.0000
  S   S3        1.0  0.68269385493425  0.6968240107767086  0.3950217872603829  1.0000
  N   N1        1.0  0.5551854537451033  0.8731641909326131  0.7644956450776589  1.0000
  N   N2        1.0  0.6569901111970535  0.2879300261344327  0.41092283037986016  1.0000
  N   N3        1.0  0.8251961825772512  0.2986801809352144  0.3086652849473808  1.0000
  N   N4        1.0  0.5929535271119448  0.9831142035927342  0.14519020108870248  1.0000
  N   N5        1.0  0.045343497294041336  0.5892376739480626  0.7995656227875614  1.0000
  N   N6        1.0  0.13749347671460296  0.7102937607580058  0.12738167464764422  1.0000
  N   N7        1.0  0.1460080545858417  0.5664935884614195  0.4601401249538029  1.0000
