data_image0
_chemical_formula_structural       Cd4H24C48O16
_chemical_formula_sum              "Cd4 H24 C48 O16"
_cell_length_a       7.252739258405754
_cell_length_b       7.1957847211674135
_cell_length_c       18.858685607469152
_cell_angle_alpha    90.00259732031944
_cell_angle_beta     95.31829635653294
_cell_angle_gamma    89.99882916486622

_space_group_name_H-M_alt    "P 1"
_space_group_IT_number       1

loop_
  _space_group_symop_operation_xyz
  'x, y, z'

loop_
  _atom_site_type_symbol
  _atom_site_label
  _atom_site_symmetry_multiplicity
  _atom_site_fract_x
  _atom_site_fract_y
  _atom_site_fract_z
  _atom_site_occupancy
  Cd  Cd1       1.0  0.6527826957754569  0.15736042777073314  0.4503994801304004  1.0000
  Cd  Cd2       1.0  0.8472246460439762  0.657376436920778  0.5496052488587821  1.0000
  Cd  Cd3       1.0  0.3472168192138483  0.8426260297059257  0.5496002395630414  1.0000
  Cd  Cd4       1.0  0.1527789726402986  0.3426002925117544  0.4503930070953217  1.0000
  H   H1        1.0  0.5217393367568874  0.1381164531216186  0.7006460844232406  1.0000
  H   H2        1.0  0.9782725467546883  0.6380922995782614  0.29936056878216283  1.0000
  H   H3        1.0  0.47825872633448796  0.861886680673294  0.2993514692036854  1.0000
  H   H4        1.0  0.021736711040212194  0.3619024961257793  0.7006410439714941  1.0000
  H   H5        1.0  0.4316103153996166  0.1435332707342738  0.823914643361455  1.0000
  H   H6        1.0  0.06839067814254918  0.6435113232929838  0.176091182427399  1.0000
  H   H7        1.0  0.5683919518670563  0.8564823704412274  0.1760846316280862  1.0000
  H   H8        1.0  0.9316130241750996  0.35649597974845887  0.8239097278808175  1.0000
  H   H9        1.0  0.5083101931888692  0.08460549448098219  0.9524970268176531  1.0000
  H   H10       1.0  0.9916720682621899  0.5845933865547933  0.04750617878843849  1.0000
  H   H11       1.0  0.49168792007327505  0.9154170952412811  0.0475021194312006  1.0000
  H   H12       1.0  0.008328831121580992  0.41542364436541135  0.9524935840984412  1.0000
  H   H13       1.0  0.8113457449996986  0.9393373528493001  0.9962936708224177  1.0000
  H   H14       1.0  0.6886359158542772  0.43933383716905894  0.0037083123778458953  1.0000
  H   H15       1.0  0.18864961577691017  0.060681067819110986  0.0037059203432008004  1.0000
  H   H16       1.0  0.31136498352949354  0.5606831937511458  0.9962914505090339  1.0000
  H   H17       1.0  0.0415054643579467  0.8641711057440916  0.9108557388824039  1.0000
  H   H18       1.0  0.45849165539848247  0.36416239883084234  0.0891474722722094  1.0000
  H   H19       1.0  0.9584885622065327  0.1358348077056135  0.0891454016998807  1.0000
  H   H20       1.0  0.541510628703577  0.6358462938629472  0.9108523334769815  1.0000
  H   H21       1.0  0.13657958956796526  0.8723357778439647  0.7871917709154062  1.0000
  H   H22       1.0  0.36343409411007593  0.3723100546803337  0.21281474834375302  1.0000
  H   H23       1.0  0.8634074803703697  0.1276492900638004  0.2128080931855507  1.0000
  H   H24       1.0  0.6365723440427756  0.6276861306566985  0.7871851860988244  1.0000
  C   C1        1.0  0.744934476763909  0.1009627357641136  0.5958053292514549  1.0000
  C   C2        1.0  0.755078092113443  0.600955300870801  0.4042028150449752  1.0000
  C   C3        1.0  0.2550650213900099  0.8990306701942502  0.4041938596823229  1.0000
  C   C4        1.0  0.24492836286322014  0.3990353256870236  0.5957976501690823  1.0000
  C   C5        1.0  0.7880954774654755  0.050456662540327095  0.6727600272373877  1.0000
  C   C6        1.0  0.7119179153360234  0.5504411200111434  0.3272467265985028  1.0000
  C   C7        1.0  0.21189708068951765  0.9495339640393681  0.3272384161875976  1.0000
  C   C8        1.0  0.2880885396059512  0.4495536756541724  0.672753738651032  1.0000
  C   C9        1.0  0.6572229165640948  0.08343419570842771  0.7198385627365553  1.0000
  C   C10       1.0  0.8427844055553705  0.5834160881140348  0.2801691114143168  1.0000
  C   C11       1.0  0.3427710597139607  0.9165661588389112  0.2801609853420572  1.0000
  C   C12       1.0  0.15722069826969684  0.4165814870292833  0.7198323725631823  1.0000
  C   C13       1.0  0.6951636785148236  0.0447126589484483  0.7934799377088595  1.0000
  C   C14       1.0  0.8048415020495198  0.5446908943028674  0.2065264607161339  1.0000
  C   C15       1.0  0.3048358195350076  0.9552932543324032  0.2065192513313505  1.0000
  C   C16       1.0  0.19516218352526235  0.45531223960029626  0.793473918737817  1.0000
  C   C17       1.0  0.5650687052197509  0.0839078668391622  0.8431917070581108  1.0000
  C   C18       1.0  0.9349288326283655  0.58388463520361  0.156813020483817  1.0000
  C   C19       1.0  0.43493077601782193  0.916102215518407  0.1568069511987886  1.0000
  C   C20       1.0  0.065073468262824  0.4161226678184703  0.8431873160723385  1.0000
  C   C21       1.0  0.608042168823985  0.049458105569541985  0.9147863062396483  1.0000
  C   C22       1.0  0.8919463001043368  0.5494468437733033  0.08521912702036621  1.0000
  C   C23       1.0  0.39195177377172996  0.9505575356437177  0.08521218033146741  1.0000
  C   C24       1.0  0.10805736865818721  0.45056045920656357  0.9147807216502742  1.0000
  C   C25       1.0  0.7802777523821617  0.9688738807471607  0.9396927509259285  1.0000
  C   C26       1.0  0.7197130927015323  0.46886105506772685  0.060309504597178404  1.0000
  C   C27       1.0  0.2197189930317762  0.0311459296123218  0.060306883184793506  1.0000
  C   C28       1.0  0.28028919137739183  0.5311504170310641  0.9396903011756664  1.0000
  C   C29       1.0  0.9088054617277235  0.9272954942941921  0.8924751467935509  1.0000
  C   C30       1.0  0.5911889285371997  0.42728798233044785  0.1075291411045498  1.0000
  C   C31       1.0  0.09118714663273411  0.07271041910535558  0.1075248892178848  1.0000
  C   C32       1.0  0.40881195411527216  0.5727234897489809  0.8924700909162339  1.0000
  C   C33       1.0  0.8712246543009668  0.9666006979382188  0.8187558477486476  1.0000
  C   C34       1.0  0.6287815605200392  0.46657601373922114  0.18125002616451266  1.0000
  C   C35       1.0  0.1287707401695499  0.033401046361774406  0.1812448049126374  1.0000
  C   C36       1.0  0.37122212505474284  0.5334271201639424  0.8187503532894383  1.0000
  C   C37       1.0  0.0026232036374622945  0.9331425155455407  0.7693151735936539  1.0000
  C   C38       1.0  0.4973880832928613  0.4331189620770672  0.23069233763249034  1.0000
  C   C39       1.0  0.9973666187864152  0.0668467214160842  0.23068424559053818  1.0000
  C   C40       1.0  0.5026183716491133  0.5668758335882486  0.7693081276170517  1.0000
  C   C41       1.0  0.9637556443422071  0.9735259405800462  0.6978283700326884  1.0000
  C   C42       1.0  0.5362615659657592  0.47350054617196236  0.3021790268402427  1.0000
  C   C43       1.0  0.036236947356336195  0.026466075763721602  0.3021711350417036  1.0000
  C   C44       1.0  0.4637449225429008  0.5264928598524321  0.697822500035052  1.0000
  C   C45       1.0  0.1023950901556177  0.9258690424822548  0.6474883843802814  1.0000
  C   C46       1.0  0.3976245921434014  0.4258491983588684  0.3525181990508059  1.0000
  C   C47       1.0  0.897597501612317  0.0741146356465237  0.3525111206231486  1.0000
  C   C48       1.0  0.6023804949619345  0.5741414282411625  0.6474827540487738  1.0000
  O   O1        1.0  0.6454249743299483  0.9857196499213784  0.5554868863674614  1.0000
  O   O2        1.0  0.8545795878411298  0.4857086231430613  0.4445208625742012  1.0000
  O   O3        1.0  0.3545648983456572  0.014279315050103502  0.4445141253558802  1.0000
  O   O4        1.0  0.1454309875271136  0.5142820033189109  0.5554786698020919  1.0000
  O   O5        1.0  0.8021875343965804  0.2500535756989493  0.5713368531007462  1.0000
  O   O6        1.0  0.6978349309104601  0.7500487567684144  0.428671560929665  1.0000
  O   O7        1.0  0.19782439207700964  0.7499356609875247  0.4286616605594205  1.0000
  O   O8        1.0  0.302163283329321  0.2499363111711119  0.5713307699126206  1.0000
  O   O9        1.0  0.0434028828481416  0.8995197676284903  0.580815686279962  1.0000
  O   O10       1.0  0.45661583649802395  0.39951068235111364  0.4191898750471453  1.0000
  O   O11       1.0  0.9565869731655495  0.1004653002872189  0.4191847945063287  1.0000
  O   O12       1.0  0.5433919863152922  0.6004841132719959  0.5808101023168746  1.0000
  O   O13       1.0  0.2718457727472412  0.9105095508213593  0.668147514827055  1.0000
  O   O14       1.0  0.22817554993164885  0.410479588351869  0.331858850045009  1.0000
  O   O15       1.0  0.7281468022662664  0.08947134787163688  0.3318514593339401  1.0000
  O   O16       1.0  0.7718295707403655  0.5895096486072403  0.6681431646803234  1.0000
