data_image0
_chemical_formula_structural       Zn2H34C40S2N6Cl4O8
_chemical_formula_sum              "Zn2 H34 C40 S2 N6 Cl4 O8"
_cell_length_a       10.073377795739455
_cell_length_b       10.072138567576506
_cell_length_c       12.62428268778762
_cell_angle_alpha    99.24277081169852
_cell_angle_beta     105.07457059089285
_cell_angle_gamma    118.22874827594539

_space_group_name_H-M_alt    "P 1"
_space_group_IT_number       1

loop_
  _space_group_symop_operation_xyz
  'x, y, z'

loop_
  _atom_site_type_symbol
  _atom_site_label
  _atom_site_symmetry_multiplicity
  _atom_site_fract_x
  _atom_site_fract_y
  _atom_site_fract_z
  _atom_site_occupancy
  Zn  Zn1       1.0  0.1430091459641289  0.7202268723941573  0.1693428079726189  1.0000
  Zn  Zn2       1.0  0.5509301414803998  0.9738045734449087  0.8307124820676532  1.0000
  H   H1        1.0  0.99030577236357  0.8112042996138201  0.02250093817463041  1.0000
  H   H2        1.0  0.7887593265084971  0.9679784874174115  0.9775295337372681  1.0000
  H   H3        1.0  0.5043033902193699  0.5629130675374512  0.2172665026740432  1.0000
  H   H4        1.0  0.3456604499050897  0.287091352036569  0.7827110186900368  1.0000
  H   H5        1.0  0.2862050082341839  0.9873417086544126  0.05228828756287387  1.0000
  H   H6        1.0  0.935315761329413  0.23415443218688384  0.947811762044324  1.0000
  H   H7        1.0  0.3585435985787058  0.792713707220784  0.4067900114374723  1.0000
  H   H8        1.0  0.3860362389024487  0.9517095175343471  0.593288977715673  1.0000
  H   H9        1.0  0.6489086528887783  0.8829665991580314  0.5149168871668408  1.0000
  H   H10       1.0  0.36824658146416306  0.1338266627509768  0.4850029089598704  1.0000
  H   H11       1.0  0.7401742599835756  0.9681567866457358  0.20870256865624262  1.0000
  H   H12       1.0  0.7593453733820538  0.5316056042228751  0.7912896046566117  1.0000
  H   H13       1.0  0.4463002599626051  0.8782025966343808  0.11421892427951966  1.0000
  H   H14       1.0  0.764027161546302  0.3323449415496287  0.8858707120528138  1.0000
  H   H15       1.0  0.9277133861859423  0.9268603102067844  0.3716303537638835  1.0000
  H   H16       1.0  0.5552658798629082  0.5560203442060684  0.6282910592291415  1.0000
  H   H17       1.0  0.9050536684445729  0.9472533633744505  0.5077405604637235  1.0000
  H   H18       1.0  0.4396245138684306  0.3972901912318676  0.4921373578335133  1.0000
  H   H19       1.0  0.008184570141239111  0.2011707025753537  0.3891240699983101  1.0000
  H   H20       1.0  0.8121732811318195  0.6192493436630001  0.6109079230510231  1.0000
  H   H21       1.0  0.13559204325758153  0.19360346351823673  0.5101584837345782  1.0000
  H   H22       1.0  0.6835570359746299  0.6255957608150525  0.48986865023177006  1.0000
  H   H23       1.0  0.8511284824898692  0.23657154810437928  0.503298343286154  1.0000
  H   H24       1.0  0.7334218203280684  0.3479820173096399  0.4967257764428652  1.0000
  H   H25       1.0  0.9633147878591826  0.2140415782572944  0.6222910905729291  1.0000
  H   H26       1.0  0.5918467745250383  0.3411324107707756  0.3777470958929853  1.0000
  H   H27       1.0  0.9869449160895768  0.48403731669645117  0.7159030130098781  1.0000
  H   H28       1.0  0.7680017538816414  0.2709332653506706  0.2841170398069223  1.0000
  H   H29       1.0  0.2111280140517451  0.7695039513749364  0.8120443237215725  1.0000
  H   H30       1.0  0.9572241554992473  0.39883747980240963  0.1878982648535938  1.0000
  H   H31       1.0  0.4561080946356882  0.73046129904197  0.603342359677292  1.0000
  H   H32       1.0  0.12710413128026216  0.8527506557366208  0.39651621106441576  1.0000
  H   H33       1.0  0.24079654897948902  0.4441687390733265  0.4968205916848801  1.0000
  H   H34       1.0  0.9474528630428124  0.7441085868697997  0.503077372661366  1.0000
  C   C1        1.0  0.47320127564826453  0.22470454742122567  0.07420913485798045  1.0000
  C   C2        1.0  0.15079090126112502  0.3992104939248407  0.9259033262158025  1.0000
  C   C3        1.0  0.5326789266162065  0.38796422696908195  0.12042612045119229  1.0000
  C   C4        1.0  0.26775940260012016  0.4124159378619225  0.8796497682487469  1.0000
  C   C5        1.0  0.4584955198718604  0.43646138059229866  0.18322782407739163  1.0000
  C   C6        1.0  0.2533277004455812  0.2753625247931097  0.8167920277354098  1.0000
  C   C7        1.0  0.32661567851511814  0.323842411235688  0.20244594999726215  1.0000
  C   C8        1.0  0.12144852262559883  0.12427429167434673  0.7975597590176164  1.0000
  C   C9        1.0  0.2631418223376727  0.15985079452703127  0.15610411248959363  1.0000
  C   C10       1.0  0.0038795694790323128  0.10719383584020653  0.8439514278860614  1.0000
  C   C11       1.0  0.3365618048100671  0.114164655549736  0.09151398411425757  1.0000
  C   C12       1.0  0.022898443929754795  0.24527471418966232  0.9086003808681156  1.0000
  C   C13       1.0  0.5470941207972827  0.16116214809402152  0.007917822453286793  1.0000
  C   C14       1.0  0.1535491731438938  0.5394118232894556  0.9921944015862465  1.0000
  C   C15       1.0  0.4481564699694544  0.8358540740053967  0.36717014862218617  1.0000
  C   C16       1.0  0.4688778326244573  0.080976913038775  0.6328588086746477  1.0000
  C   C17       1.0  0.6089202909814162  0.8842440400814269  0.42617010865279065  1.0000
  C   C18       1.0  0.45831364900439536  0.18267600376280063  0.5737566929031955  1.0000
  C   C19       1.0  0.7184367232866719  0.9324970100938402  0.37009750384777357  1.0000
  C   C20       1.0  0.5625753033534693  0.3483215405579898  0.6297998173578634  1.0000
  C   C21       1.0  0.6599302693938897  0.9329422493426096  0.25647379363017825  1.0000
  C   C22       1.0  0.6765139300029688  0.40354068749601174  0.7435125949439366  1.0000
  C   C23       1.0  0.49756122297818456  0.8843679354658392  0.20358931145187137  1.0000
  C   C24       1.0  0.6808434616129801  0.29411332142912283  0.7964725463700261  1.0000
  C   C25       1.0  0.8927233103262607  0.984614752739816  0.4304539798862876  1.0000
  C   C26       1.0  0.5542779628864383  0.46226513088269894  0.5694442073493988  1.0000
  C   C27       1.0  0.011119531862007601  0.16595655668332654  0.46740759941252447  1.0000
  C   C28       1.0  0.6987090552590941  0.5438697747868417  0.5325824731489276  1.0000
  C   C29       1.0  0.9730536917021834  0.2593153780745894  0.5488256998851568  1.0000
  C   C30       1.0  0.7106388204837443  0.42435975559008204  0.45117963577495596  1.0000
  C   C31       1.0  0.09534802490733085  0.4366670586474228  0.5986340820235938  1.0000
  C   C32       1.0  0.8380676607467024  0.4967578061668052  0.4013185988207296  1.0000
  C   C33       1.0  0.08627153036930214  0.5339053998778452  0.6854026237057838  1.0000
  C   C34       1.0  0.8484460893073517  0.40077505203642266  0.3145737986682845  1.0000
  C   C35       1.0  0.21037627234098016  0.6941826540147248  0.7395699442152831  1.0000
  C   C36       1.0  0.9544507705744107  0.4706278891667069  0.26036985921782463  1.0000
  C   C37       1.0  0.34696325921100873  0.6720383443634929  0.6226674946345767  1.0000
  C   C38       1.0  0.04934273110463749  0.7242582119223613  0.37721796219428677  1.0000
  C   C39       1.0  0.22713949875470263  0.5114094943744547  0.5649732381939501  1.0000
  C   C40       1.0  0.946467823219507  0.6622283397855141  0.43492290617945156  1.0000
  S   S1        1.0  0.0961897632034407  0.0082732367650991  0.180904400361861  1.0000
  S   S2        1.0  0.8273700634422667  0.9154537725170899  0.8191102454681738  1.0000
  N   N1        1.0  0.0534781969071929  0.840488102399874  0.10967659749618261  1.0000
  N   N2        1.0  0.7309286127705404  0.944084034978367  0.890365522632635  1.0000
  N   N3        1.0  0.3919983245555726  0.8349559398098805  0.2576923672384552  1.0000
  N   N4        1.0  0.5773663918262101  0.13440127553477052  0.7423882741041083  1.0000
  N   N5        1.0  0.34145557008105226  0.7623202953044271  0.7105447134035925  1.0000
  N   N6        1.0  0.05164503386080817  0.6307613118995834  0.2893592222305585  1.0000
  Cl  Cl1       1.0  0.6928525055769229  0.5371421866159594  0.10006924419786857  1.0000
  Cl  Cl2       1.0  0.4372752266953199  0.5929790160927269  0.8999789611660487  1.0000
  Cl  Cl3       1.0  0.24617810754009636  0.39450873144684817  0.28437479380714586  1.0000
  Cl  Cl4       1.0  0.10999643986797737  0.9618212123084645  0.7155374769872295  1.0000
  O   O1        1.0  0.6961866955192023  0.24103911369085307  0.028160678242571197  1.0000
  O   O2        1.0  0.2131589477575701  0.6682747518767228  0.9719401112651126  1.0000
  O   O3        1.0  0.44442309903564586  0.019443462545275705  0.9312750665595998  1.0000
  O   O4        1.0  0.08843455889775242  0.5133444318053791  0.06878140123964731  1.0000
  O   O5        1.0  0.9616850486842733  0.031916997031068206  0.14053777685493418  1.0000
  O   O6        1.0  0.8912522018070417  0.8212113096746023  0.8594619439557929  1.0000
  O   O7        1.0  0.1639320645150235  0.03363746506978771  0.3051295633517697  1.0000
  O   O8        1.0  0.72849547075122  0.8590473430403592  0.6948853850861595  1.0000
