data_image0
_chemical_formula_structural       Sm2Cu4H16C16N18O24
_chemical_formula_sum              "Sm2 Cu4 H16 C16 N18 O24"
_cell_length_a       7.3057911980831785
_cell_length_b       11.202896995344855
_cell_length_c       11.879447766132202
_cell_angle_alpha    101.89379572041821
_cell_angle_beta     90.00012736836011
_cell_angle_gamma    89.99945292545407

_space_group_name_H-M_alt    "P 1"
_space_group_IT_number       1

loop_
  _space_group_symop_operation_xyz
  'x, y, z'

loop_
  _atom_site_type_symbol
  _atom_site_label
  _atom_site_symmetry_multiplicity
  _atom_site_fract_x
  _atom_site_fract_y
  _atom_site_fract_z
  _atom_site_occupancy
  Sm  Sm1       1.0  0.49816413340176524  0.250000333525101  0.49999875618503614  1.0000
  Sm  Sm2       1.0  0.5018370050208888  0.7499979938921443  0.5000003737232249  1.0000
  Cu  Cu1       1.0  0.1375817343658667  0.8882160577662718  0.07461829682927867  1.0000
  Cu  Cu2       1.0  0.1375893858189841  0.6117885534892125  0.9253845477183946  1.0000
  Cu  Cu3       1.0  0.8624139289085448  0.11178775525738159  0.9253811288317807  1.0000
  Cu  Cu4       1.0  0.862411752563972  0.3882143988910585  0.07461133196721191  1.0000
  H   H1        1.0  0.7737810611210277  0.04907509622639592  0.4209290604224947  1.0000
  H   H2        1.0  0.773775661438627  0.45092466345914084  0.5790762440498584  1.0000
  H   H3        1.0  0.22622144608991593  0.9509231410740075  0.5790759439145604  1.0000
  H   H4        1.0  0.22622547697454112  0.5490763230768536  0.4209284885616783  1.0000
  H   H5        1.0  0.6988504155731761  0.034767870462602005  0.5422696252257495  1.0000
  H   H6        1.0  0.6988498478823927  0.4652287553842598  0.4577315521702233  1.0000
  H   H7        1.0  0.3011507228384004  0.9652331289466219  0.4577342681816887  1.0000
  H   H8        1.0  0.30115813445453904  0.5347658977878639  0.5422684995085874  1.0000
  H   H9        1.0  0.6779277094246227  0.2846661734665973  0.2706501352104881  1.0000
  H   H10       1.0  0.677931774306643  0.21533426879044987  0.7293492774081899  1.0000
  H   H11       1.0  0.322076166545969  0.715333066061561  0.7293491838575861  1.0000
  H   H12       1.0  0.3220666265633482  0.7846649063884855  0.2706542376798637  1.0000
  H   H13       1.0  0.7289334678251861  0.1472029404115247  0.2753871616246997  1.0000
  H   H14       1.0  0.7289341324451754  0.35279899794507236  0.7246134777895963  1.0000
  H   H15       1.0  0.2710717769225468  0.8527962991124057  0.7246121574434952  1.0000
  H   H16       1.0  0.27107111230893116  0.6472001900859398  0.2753891980949916  1.0000
  C   C1        1.0  0.2014559189192795  0.3575149422902087  0.30794929710061336  1.0000
  C   C2        1.0  0.20146639325698604  0.14248934435767785  0.6920510572611606  1.0000
  C   C3        1.0  0.798542481904697  0.6424906305975924  0.6920547029003005  1.0000
  C   C4        1.0  0.7985374827215708  0.8575098308043324  0.30795245782739766  1.0000
  C   C5        1.0  0.2812907452862419  0.039820092214426915  0.2745589626851554  1.0000
  C   C6        1.0  0.2813076332212389  0.4601855251778488  0.7254417845100676  1.0000
  C   C7        1.0  0.7186898614523187  0.9601827572434658  0.7254436306313538  1.0000
  C   C8        1.0  0.7186948739833099  0.5398119029890155  0.27455631703465855  1.0000
  C   C9        1.0  0.13686125225179072  0.24666348349465755  0.22506945529521266  1.0000
  C   C10       1.0  0.1368649229881171  0.25333950693995183  0.7749221169627347  1.0000
  C   C11       1.0  0.8631303047006966  0.7533385310493942  0.7749279136381518  1.0000
  C   C12       1.0  0.8631348466843676  0.7466551591307821  0.22507709551123165  1.0000
  C   C13       1.0  0.18304878618852874  0.12261143684654742  0.21264628764344448  1.0000
  C   C14       1.0  0.1830588959833079  0.3773893408494686  0.7873516283254817  1.0000
  C   C15       1.0  0.8169427707909663  0.8773877769732225  0.7873547098317034  1.0000
  C   C16       1.0  0.8169449799999812  0.6226080744399314  0.21264731242346363  1.0000
  N   N1        1.0  0.0227118694663773  0.2542315591907355  0.1368740799334773  1.0000
  N   N2        1.0  0.0227050158912192  0.24577947243056295  0.8631164672357274  1.0000
  N   N3        1.0  0.9772837937588364  0.745778677288243  0.8631241522322456  1.0000
  N   N4        1.0  0.9772947537431662  0.7542198057299746  0.13688033421968276  1.0000
  N   N5        1.0  0.09661761499798162  0.06344900472675623  0.1163233208880783  1.0000
  N   N6        1.0  0.09661488283299488  0.4365532579958399  0.8836722509140318  1.0000
  N   N7        1.0  0.9033780482907191  0.9365529711849166  0.8836765656579503  1.0000
  N   N8        1.0  0.9033889931010891  0.5634505807488921  0.11632549633958433  1.0000
  N   N9        1.0  0.0012036057958511  0.1431416315652001  0.0732296181688596  1.0000
  N   N10       1.0  0.0011898764576727997  0.3568640345613758  0.9267614685403842  1.0000
  N   N11       1.0  0.9987975325807883  0.8568630935609107  0.9267699966522616  1.0000
  N   N12       1.0  0.9988126307135233  0.6431371064491387  0.07323319362211579  1.0000
  N   N13       1.0  0.3033871127766901  0.7500049656613187  0.9999905280024354  1.0000
  N   N14       1.0  0.6966126568116522  0.24999984958162713  3.2123898918950117e-06  1.0000
  N   N15       1.0  0.46920993996551635  0.7500019369538293  1.369541429577162e-06  1.0000
  N   N16       1.0  0.530800779870127  0.24999919115807506  0.9999941318259148  1.0000
  N   N17       1.0  0.6279196496690531  0.7500004055944204  9.586849301987253e-06  1.0000
  N   N18       1.0  0.3720801199827761  0.24999614908121973  0.9999858079233166  1.0000
  O   O1        1.0  0.30627031461920506  0.3380203646556411  0.3881014549939651  1.0000
  O   O2        1.0  0.30628295454864235  0.16197596427920763  0.6118982443505274  1.0000
  O   O3        1.0  0.6937321925980625  0.6619760998989292  0.6118998142075753  1.0000
  O   O4        1.0  0.6937277653441924  0.8380195366376884  0.38810619250858025  1.0000
  O   O5        1.0  0.34611322510987463  0.0733904225070177  0.3741590915306716  1.0000
  O   O6        1.0  0.3461357243579286  0.4266129442023897  0.6258429675386524  1.0000
  O   O7        1.0  0.6538687503963274  0.9266142254389395  0.6258455585132836  1.0000
  O   O8        1.0  0.6538681516459518  0.5733808612291966  0.3741526989597332  1.0000
  O   O9        1.0  0.7259927271809589  0.09707260352392671  0.4960330603769308  1.0000
  O   O10       1.0  0.7259905002042757  0.4029229166903365  0.5039696112019103  1.0000
  O   O11       1.0  0.2740084112671042  0.9029229360422663  0.5039688588690154  1.0000
  O   O12       1.0  0.2740147445768031  0.5970726099899367  0.49603314724851094  1.0000
  O   O13       1.0  0.6395902146960922  0.21204890539347337  0.29984518019089285  1.0000
  O   O14       1.0  0.6395903735035162  0.2879526730932725  0.7001552538214497  1.0000
  O   O15       1.0  0.36041776760276184  0.787951220494911  0.7001560064453117  1.0000
  O   O16       1.0  0.36041487124421673  0.7120465664306581  0.2998440652467452  1.0000
  O   O17       1.0  0.1522626505125046  0.4616256137491135  0.294625184780422  1.0000
  O   O18       1.0  0.1522692230997791  0.038378989857186206  0.7053743214337092  1.0000
  O   O19       1.0  0.8477343815327316  0.5383799720161518  0.7053779760162726  1.0000
  O   O20       1.0  0.8477346528771577  0.9616193375515965  0.2946248084748008  1.0000
  O   O21       1.0  0.2877830975673562  0.9273527326609001  0.21963690363122623  1.0000
  O   O22       1.0  0.2877949108750002  0.5726518107844429  0.7803695141989311  1.0000
  O   O23       1.0  0.712197509171233  0.07265097742345722  0.7803692356612331  1.0000
  O   O24       1.0  0.7122089650987533  0.4273465423707989  0.21962793730138236  1.0000
