data_image0
_chemical_formula_structural       Cd4H38C54S8N10O2F24
_chemical_formula_sum              "Cd4 H38 C54 S8 N10 O2 F24"
_cell_length_a       11.397466878982694
_cell_length_b       12.313397073467872
_cell_length_c       14.627
_cell_angle_alpha    115.54014054670631
_cell_angle_beta     99.51793352118864
_cell_angle_gamma    102.76427181773444

_space_group_name_H-M_alt    "P 1"
_space_group_IT_number       1

loop_
  _space_group_symop_operation_xyz
  'x, y, z'

loop_
  _atom_site_type_symbol
  _atom_site_label
  _atom_site_symmetry_multiplicity
  _atom_site_fract_x
  _atom_site_fract_y
  _atom_site_fract_z
  _atom_site_occupancy
  Cd  Cd1       1.0  0.8623313194576242  0.3640581659951962  0.8737760904355196  1.0000
  Cd  Cd2       1.0  0.1376717643447662  0.6359416017764801  0.12622641035095933  1.0000
  Cd  Cd3       1.0  0.6462564145807761  0.1514906289908424  0.5863479857295316  1.0000
  Cd  Cd4       1.0  0.35374724954341735  0.8485081858537528  0.41365014196355077  1.0000
  H   H1        1.0  0.19467383848012082  0.2930174524743236  0.11284974132433229  1.0000
  H   H2        1.0  0.8053286266963866  0.7069804094431973  0.8871519880283711  1.0000
  H   H3        1.0  0.0580277068291508  0.1524321209420023  0.16261359813982773  1.0000
  H   H4        1.0  0.9419711998083572  0.8475657409755186  0.8373869890391176  1.0000
  H   H5        1.0  0.7352323942033793  0.1849583808294284  0.9860918062919807  1.0000
  H   H6        1.0  0.264770147581288  0.8150451986505445  0.01391064077437682  1.0000
  H   H7        1.0  0.8105938775155439  0.5070887084047087  0.5843359806345134  1.0000
  H   H8        1.0  0.1894023985217999  0.4929120122940418  0.4156680398572802  1.0000
  H   H9        1.0  0.03450920502255881  0.5842243435041112  0.589390203816599  1.0000
  H   H10       1.0  0.9654852151371358  0.4157706596321802  0.41060534936916326  1.0000
  H   H11       1.0  0.13772806037979993  0.4718713824544595  0.8252838875406141  1.0000
  H   H12       1.0  0.8622747141096456  0.5281274323901357  0.17471412552583127  1.0000
  H   H13       1.0  0.0703846757113169  0.1222614967866065  0.7265267374530495  1.0000
  H   H14       1.0  0.9296189501088037  0.8777344592767591  0.2734689803816437  1.0000
  H   H15       1.0  0.2002203077898557  0.1551031755362189  0.6122261289973706  1.0000
  H   H16       1.0  0.7997797977953526  0.8448956393083762  0.3877681218531918  1.0000
  H   H17       1.0  0.8823673071503749  0.1981935849889425  0.4406751351875896  1.0000
  H   H18       1.0  0.11762653268750974  0.8018023710744303  0.5593241074243664  1.0000
  H   H19       1.0  0.4484137199549495  0.9128793627692248  0.17863125328375423  1.0000
  H   H20       1.0  0.5515891311426557  0.0871251696378295  0.8213674774963449  1.0000
  H   H21       1.0  0.38542674929161086  0.0800677917124659  0.14967107679990477  1.0000
  H   H22       1.0  0.6145758307971292  0.9199386465487365  0.8503289944545144  1.0000
  H   H23       1.0  0.5443336742826901  0.3357009620655589  0.4877047247318201  1.0000
  H   H24       1.0  0.4556646903370947  0.6643007115602657  0.5122971760613808  1.0000
  H   H25       1.0  0.5919047560597122  0.39757832882296645  0.8377485808972975  1.0000
  H   H26       1.0  0.4081012293517077  0.602416674313325  0.16225393177233371  1.0000
  H   H27       1.0  0.362008345104357  0.170481512689804  0.9054150131188334  1.0000
  H   H28       1.0  0.6379903288283728  0.8295211138630947  0.09459069172721252  1.0000
  H   H29       1.0  0.3835781230500501  0.3193868505232729  0.016885977487149324  1.0000
  H   H30       1.0  0.6164208984997047  0.6806195877379295  0.9831177372638392  1.0000
  H   H31       1.0  0.5131876422867663  0.2591513771179379  0.003001875673049894  1.0000
  H   H32       1.0  0.4868107223330185  0.7408502965078867  0.9970061781248701  1.0000
  H   H33       1.0  0.341786361303015  0.4386590150722611  0.9181148123499269  1.0000
  H   H34       1.0  0.6582173028211785  0.561339799772334  0.08188399901035129  1.0000
  H   H35       1.0  0.2886763056337074  0.2884214851864471  0.8009444867487616  1.0000
  H   H36       1.0  0.7113306077165404  0.7115763767310739  0.19905371373400965  1.0000
  H   H37       1.0  0.41144554140704065  0.41654062470963993  0.8126181085005084  1.0000
  H   H38       1.0  0.5885640408474444  0.5834572372078739  0.1873824868637612  1.0000
  C   C1        1.0  0.03699925551697452  0.3096041011603603  0.020628885944852033  1.0000
  C   C2        1.0  0.9630017780070549  0.6903975724654643  0.9793733587282744  1.0000
  C   C3        1.0  0.09269685926469153  0.2650919245101448  0.08506261259039151  1.0000
  C   C4        1.0  0.9073050255900059  0.7349068903344502  0.9149387041853599  1.0000
  C   C5        1.0  0.0165098010880271  0.1875017431954547  0.11278810746537  1.0000
  C   C6        1.0  0.9834882159147328  0.8124961187220663  0.887212365086931  1.0000
  C   C7        1.0  0.8850429609927846  0.1550745877239379  0.07641321120886603  1.0000
  C   C8        1.0  0.1149565642706136  0.8449251800477384  0.9235881474038476  1.0000
  C   C9        1.0  0.8359494439537302  0.20386064231031747  0.01464959296939844  1.0000
  C   C10       1.0  0.16405158957030613  0.7961410313155071  0.9853512843693507  1.0000
  C   C11       1.0  0.8010842904836084  0.0709730556984738  0.10482343792377691  1.0000
  C   C12       1.0  0.19891496377093185  0.9290286179273509  0.8951792611632567  1.0000
  C   C13       1.0  0.8559919397611324  0.45027519612953176  0.7028828699851175  1.0000
  C   C14       1.0  0.14400758550226567  0.5497245716421446  0.29711985596198076  1.0000
  C   C15       1.0  0.8856024328789547  0.5002638446859038  0.6359324970853066  1.0000
  C   C16       1.0  0.1143953131149473  0.4997359230857654  0.364068632274126  1.0000
  C   C17       1.0  0.009923409165231992  0.5427596276431643  0.6388340440607718  1.0000
  C   C18       1.0  0.9900716296203457  0.4572372813472825  0.3611643315603316  1.0000
  C   C19       1.0  0.10410406657641863  0.5326281069704066  0.7066620542233863  1.0000
  C   C20       1.0  0.8958924421657103  0.4673678490929589  0.2933327465981606  1.0000
  C   C21       1.0  0.06883589420426972  0.4816731903588973  0.7703894513155517  1.0000
  C   C22       1.0  0.9311651010156794  0.5183256244856977  0.22960901616480095  1.0000
  C   C23       1.0  0.24000926771642384  0.5765275515107078  0.7138882707576002  1.0000
  C   C24       1.0  0.7599872410257049  0.4234684045526578  0.286103795395185  1.0000
  C   C25       1.0  0.9085010417059609  0.1433145146781811  0.6438287969873143  1.0000
  C   C26       1.0  0.0915014234705396  0.8566833472393399  0.35617156503100483  1.0000
  C   C27       1.0  0.032763265854853806  0.1401708082542328  0.6629275526883232  1.0000
  C   C28       1.0  0.9672380003739607  0.8598261007362141  0.33706889065052076  1.0000
  C   C29       1.0  0.10459711592579171  0.1591378687762912  0.5999087677914969  1.0000
  C   C30       1.0  0.8954026803464643  0.8408599931412297  0.400086464676562  1.0000
  C   C31       1.0  0.05211099858782121  0.1817098524271117  0.5188404307076553  1.0000
  C   C32       1.0  0.9478834598759533  0.8182880094904021  0.481156165002119  1.0000
  C   C33       1.0  0.9282079271294138  0.1827094729299077  0.5036867264626179  1.0000
  C   C34       1.0  0.07178800129091199  0.817287436060532  0.49631313111950687  1.0000
  C   C35       1.0  0.1257982232669548  0.20866434770077552  0.4509954309069499  1.0000
  C   C36       1.0  0.8741941849184585  0.7913354200708937  0.5489995413551014  1.0000
  C   C37       1.0  0.5295033242591957  0.035952985652969  0.3482165410502986  1.0000
  C   C38       1.0  0.4704992175254716  0.9640505938270039  0.65178317134729  1.0000
  C   C39       1.0  0.4693953161941948  0.0079235886375031  0.24458246074225085  1.0000
  C   C40       1.0  0.5306078442163482  0.9920818966966252  0.7554173394219175  1.0000
  C   C41       1.0  0.43306420287721187  0.1004651957757048  0.22913276597933668  1.0000
  C   C42       1.0  0.5669368689508971  0.8995393366313494  0.7708684702162357  1.0000
  C   C43       1.0  0.45749594944826555  0.2204225148923769  0.31653614426709  1.0000
  C   C44       1.0  0.5425048130668985  0.7795810645875961  0.6834653898787834  1.0000
  C   C45       1.0  0.5205784313407449  0.2437473109332942  0.41658711471970367  1.0000
  C   C46       1.0  0.4794223311744191  0.7562562685466787  0.5834151030933653  1.0000
  C   C47       1.0  0.4125453256759428  0.3193944739398873  0.3031718397384608  1.0000
  C   C48       1.0  0.5874530389438489  0.6806071996859373  0.6968286937203629  1.0000
  C   C49       1.0  0.5766637782044343  0.3453865128667175  0.8823180927413218  1.0000
  C   C50       1.0  0.42334371546761673  0.6546103961237293  0.11768872432467958  1.0000
  C   C51       1.0  0.42928913910586897  0.2664317399790974  0.9604778822062484  1.0000
  C   C52       1.0  0.5707116234093021  0.7335718395008755  0.03952707027558238  1.0000
  C   C53       1.0  0.37199492873653384  0.3717406640824521  0.8561249042076751  1.0000
  C   C54       1.0  0.628011094978966  0.6282571978350617  0.14387523265002503  1.0000
  S   S1        1.0  0.12364494509917993  0.40391052924344  0.9789411738856018  1.0000
  S   S2        1.0  0.8763590283379585  0.5960892385282364  0.021061441527514446  1.0000
  S   S3        1.0  0.7043882839638158  0.4010669948484491  0.708475459938377  1.0000
  S   S4        1.0  0.2956132915779436  0.5989308670690718  0.291528889456444  1.0000
  S   S5        1.0  0.8097429236857963  0.1185660455856166  0.7166838298902505  1.0000
  S   S6        1.0  0.19026224869902827  0.881434675113134  0.2833179185320134  1.0000
  S   S7        1.0  0.5700119111292281  0.9248490797717183  0.3793083901027217  1.0000
  S   S8        1.0  0.4299915202901801  0.0751544997082618  0.6206900695871267  1.0000
  N   N1        1.0  0.9099167782252737  0.2785672662928249  0.987865389627643  1.0000
  N   N2        1.0  0.09008634388118963  0.7214353602600738  0.012136786348463649  1.0000
  N   N3        1.0  0.9492622499385064  0.4429357517896548  0.7690254357083501  1.0000
  N   N4        1.0  0.0507408338638839  0.5570640159820215  0.23097638141093302  1.0000
  N   N5        1.0  0.8588048808840156  0.1639434800209045  0.5639386167809233  1.0000
  N   N6        1.0  0.1411937164405543  0.8360534289695423  0.4360622683483227  1.0000
  N   N7        1.0  0.5559093805982442  0.1543103402089301  0.43113211697431086  1.0000
  N   N8        1.0  0.44409227155167497  0.84569323927105  0.5688681644638293  1.0000
  N   N9        1.0  0.46586167363529546  0.3326697010365862  0.90267469919781  1.0000
  N   N10       1.0  0.5341419904889051  0.6673291138080089  0.0973275304984185  1.0000
  O   O1        1.0  0.6593685483902193  0.3048308894363387  0.9111377885682683  1.0000
  O   O2        1.0  0.34063635298574724  0.6951717371165671  0.08887213700022303  1.0000
  F   F1        1.0  0.6762106185638929  0.0357538238940762  0.05288076184385909  1.0000
  F   F2        1.0  0.32378952532539534  0.9642478497317484  0.94712136820263  1.0000
  F   F3        1.0  0.8120835623886011  0.1267335835545964  0.21136567937752904  1.0000
  F   F4        1.0  0.18791576847409175  0.8732738076336873  0.7886363700887741  1.0000
  F   F5        1.0  0.8284366444881286  0.9601998155126097  0.080692113992221  1.0000
  F   F6        1.0  0.1715629573834221  0.0398056698215186  0.9193161153388658  1.0000
  F   F7        1.0  0.3109097003168202  0.6775911854901864  0.8120657894250839  1.0000
  F   F8        1.0  0.6890892063206948  0.3224066764273346  0.18792249174442324  1.0000
  F   F9        1.0  0.2937102814830724  0.4829958531404799  0.6985189203538338  1.0000
  F   F10       1.0  0.7062876589115348  0.5169962912145891  0.30147536514728296  1.0000
  F   F11       1.0  0.2585469225344426  0.6148857251036759  0.6412126865180666  1.0000
  F   F12       1.0  0.7414452941305714  0.3850997487618529  0.3587736547879459  1.0000
  F   F13       1.0  0.14696518911225107  0.3322647070292604  0.4698500546868515  1.0000
  F   F14       1.0  0.853022770899429  0.6677350607424088  0.5301450281091746  1.0000
  F   F15       1.0  0.240536124466324  0.19360905282597682  0.46799507852725947  1.0000
  F   F16       1.0  0.7594577919797274  0.8063926207998479  0.5319959941248698  1.0000
  F   F17       1.0  0.0633455792932978  0.1331277242350097  0.34472738476763  1.0000
  F   F18       1.0  0.9366420714054372  0.8668710906095853  0.6552679959786969  1.0000
  F   F19       1.0  0.47710508752209085  0.4393851455042252  0.3842119204167885  1.0000
  F   F20       1.0  0.5228909175063947  0.5606174810486806  0.6157886548789903  1.0000
  F   F21       1.0  0.2872726288993235  0.2989246474188647  0.29819437857559444  1.0000
  F   F22       1.0  0.7127254264075233  0.7010760732798786  0.7018057691663415  1.0000
  F   F23       1.0  0.4218611815935063  0.3188999047874077  0.21059041324219407  1.0000
  F   F24       1.0  0.5781374923392235  0.6811027217654981  0.7894111896006988  1.0000
