data_image0
_chemical_formula_structural       Zn2H35C54N4Cl5O17
_chemical_formula_sum              "Zn2 H35 C54 N4 Cl5 O17"
_cell_length_a       9.601173601710837
_cell_length_b       10.742030841792065
_cell_length_c       27.422786905614156
_cell_angle_alpha    89.46029126849628
_cell_angle_beta     90.85715083213263
_cell_angle_gamma    89.77893339821819

_space_group_name_H-M_alt    "P 1"
_space_group_IT_number       1

loop_
  _space_group_symop_operation_xyz
  'x, y, z'

loop_
  _atom_site_type_symbol
  _atom_site_label
  _atom_site_symmetry_multiplicity
  _atom_site_fract_x
  _atom_site_fract_y
  _atom_site_fract_z
  _atom_site_occupancy
  Zn  Zn1       1.0  0.3679042232935075  0.48841746377885203  0.4996845945394881  1.0000
  Zn  Zn2       1.0  0.6662151530972125  0.4774674356795572  0.4988575001835827  1.0000
  H   H1        1.0  0.3635961592398615  0.6758974759651012  0.6239691966868011  1.0000
  H   H2        1.0  0.734266413755286  0.8521503377043161  0.8717566307851357  1.0000
  H   H3        1.0  0.3413115301085696  0.6627073759313263  0.3619232193281406  1.0000
  H   H4        1.0  0.31583558828810965  0.7203906259712342  0.2735785895051706  1.0000
  H   H5        1.0  0.7469915057000521  0.8250562113210906  0.12282905994316451  1.0000
  H   H6        1.0  0.73492854368466  0.8554357775659938  0.0333492150938355  1.0000
  H   H7        1.0  0.7313087999014698  0.8632831255572531  0.9617688329440883  1.0000
  H   H8        1.0  0.1202660639317443  0.5550714994891237  0.868913257683424  1.0000
  H   H9        1.0  0.12196386506581554  0.541602031087372  0.0292905773550913  1.0000
  H   H10       1.0  0.14365475988894616  0.511902534383438  0.1186258173341486  1.0000
  H   H11       1.0  0.6550290088755233  0.47269759614798096  0.2414678629659335  1.0000
  H   H12       1.0  0.1093362525821533  0.564344557268619  0.9589320445430831  1.0000
  H   H13       1.0  0.30593239411029316  0.8637406638523685  0.5264425270942752  1.0000
  H   H14       1.0  0.7169938832103001  0.8988912082206398  0.4728743134267717  1.0000
  H   H15       1.0  0.2973057125326335  0.0864338009306778  0.4655691366814808  1.0000
  H   H16       1.0  0.5174129637896739  0.07364358996189682  0.4215379185591032  1.0000
  H   H17       1.0  0.2957151983607318  0.07936884786259671  0.5298928810257806  1.0000
  H   H18       1.0  0.6789491016595691  0.10756551390504401  0.4505323900662148  1.0000
  H   H19       1.0  0.5007733566706706  0.8830108343798033  0.5780743911318496  1.0000
  H   H20       1.0  0.6728233611168479  0.87460030337175  0.5564089164935596  1.0000
  H   H21       1.0  0.5248871124817001  0.09957513552235751  0.5781283294096511  1.0000
  H   H22       1.0  0.6834648892093753  0.09281458677356373  0.5467654308103747  1.0000
  H   H23       1.0  0.8733527324974519  0.667789312788358  0.5209516702512502  1.0000
  H   H24       1.0  0.11025226985241691  0.6811783991406912  0.5031301271325006  1.0000
  H   H25       1.0  0.8855202044066104  0.4400066982558998  0.4274522751164725  1.0000
  H   H26       1.0  0.1309140877009085  0.4069051605946612  0.4355293385664751  1.0000
  H   H27       1.0  0.9002098610033968  0.5985766736351084  0.44228094838972964  1.0000
  H   H28       1.0  0.1446266766993887  0.5707540108683702  0.43336092684153743  1.0000
  H   H29       1.0  0.9242517619451719  0.29303440427558775  0.48919764697217966  1.0000
  H   H30       1.0  0.16103853392476  0.2970494112690716  0.5083647843748409  1.0000
  H   H31       1.0  0.7503659559398842  0.37082704168494024  0.30436261797535014  1.0000
  H   H32       1.0  0.8021608378459675  0.5490416227581535  0.5882497176089814  1.0000
  H   H33       1.0  0.09779585500579911  0.5960435969756972  0.5985410191154799  1.0000
  H   H34       1.0  0.9340458512500406  0.3346384883914055  0.5890574110922344  1.0000
  H   H35       1.0  0.23554797866085414  0.3878591714050261  0.5831979862604015  1.0000
  C   C1        1.0  0.5246190939105944  0.7197297018182951  0.503890407259  1.0000
  C   C2        1.0  0.5172004220929197  0.4853334032279903  0.5961732795841072  1.0000
  C   C3        1.0  0.5012753641793353  0.24594968508412762  0.4971392444671423  1.0000
  C   C4        1.0  0.5173021328299542  0.5100652225236787  0.4054959099608482  1.0000
  C   C5        1.0  0.5566618914674708  0.7356256314929654  0.8130037194317552  1.0000
  C   C6        1.0  0.3294650384134812  0.6201519516135293  0.8125853879464274  1.0000
  C   C7        1.0  0.5568416330380686  0.5185179215206689  0.7340606553632513  1.0000
  C   C8        1.0  0.5738627258874872  0.4717755265152732  0.6868626759500671  1.0000
  C   C9        1.0  0.4195509271121409  0.634016890931747  0.6549279024068754  1.0000
  C   C10       1.0  0.4065399826838743  0.6823240089274734  0.7015883691093165  1.0000
  C   C11       1.0  0.47349436004122947  0.6243072199314313  0.7414360432059154  1.0000
  C   C12       1.0  0.4291783944850067  0.7002814865921893  0.8916236697370792  1.0000
  C   C13       1.0  0.5434467168820732  0.7514065786488832  0.8662747586903734  1.0000
  C   C14       1.0  0.6483766217770253  0.8118742221413487  0.8920649411000099  1.0000
  C   C15       1.0  0.3194946497289379  0.6420038301377033  0.8654608665020759  1.0000
  C   C16       1.0  0.5035906176881539  0.5296640156373229  0.6476868432317602  1.0000
  C   C17       1.0  0.510834689516173  0.5368700706555244  0.35186693917470546  1.0000
  C   C18       1.0  0.5419077007855295  0.7553159028274905  0.023121213286174197  1.0000
  C   C19       1.0  0.31562320709247876  0.6415224658630692  0.021821919367724305  1.0000
  C   C20       1.0  0.4328322190474341  0.6911528945004975  0.0477696488500001  1.0000
  C   C21       1.0  0.6515245959304252  0.8045845958172466  0.0510735874439519  1.0000
  C   C22       1.0  0.6598393649108659  0.7879761719738313  0.1016333155064331  1.0000
  C   C23       1.0  0.5582288140601436  0.7210979080677477  0.12599403236369972  1.0000
  C   C24       1.0  0.4426582723793403  0.673598249102419  0.09952694697680901  1.0000
  C   C25       1.0  0.3379159446028552  0.6069539672827916  0.12436912774544603  1.0000
  C   C26       1.0  0.3500681332582047  0.5801280023554085  0.17726757624160433  1.0000
  C   C27       1.0  0.5741411759391469  0.6989371677007624  0.17918865655435207  1.0000
  C   C28       1.0  0.3952692229641954  0.6543611179971052  0.2860063488522542  1.0000
  C   C29       1.0  0.4090555900564681  0.6215494369492803  0.3349249174682143  1.0000
  C   C30       1.0  0.6016126090445867  0.48380934320346825  0.3177177825050208  1.0000
  C   C31       1.0  0.5862941374967363  0.5146756308739244  0.26814946857035693  1.0000
  C   C32       1.0  0.48428903475758034  0.5991050492255853  0.252802187658915  1.0000
  C   C33       1.0  0.5387583874684552  0.7618110422587776  0.9697535773111099  1.0000
  C   C34       1.0  0.42580258874025406  0.7051336323535298  0.9437385108779281  1.0000
  C   C35       1.0  0.3108752334042819  0.650607653880698  0.9685826368344407  1.0000
  C   C36       1.0  0.6455306876198463  0.8171064478254876  0.9429410379116163  1.0000
  C   C37       1.0  0.2044293689024244  0.5972500481756456  0.890080674483478  1.0000
  C   C38       1.0  0.21231382438465832  0.5800011920560664  0.0482157408594333  1.0000
  C   C39       1.0  0.2231981320728806  0.5623952173191853  0.0986169229307094  1.0000
  C   C40       1.0  0.2001698318188687  0.6024559092365608  0.9408706332396761  1.0000
  C   C41       1.0  0.36126289378945137  0.9067074962112189  0.4960464311653254  1.0000
  C   C42       1.0  0.6095764704765259  0.9165104216694148  0.4604701801168432  1.0000
  C   C43       1.0  0.35379189584961784  0.05001045084247829  0.4976677067208329  1.0000
  C   C44       1.0  0.5809697990373694  0.056462655103132406  0.454570984382201  1.0000
  C   C45       1.0  0.5694215413696498  0.9151200189683808  0.5488335420196222  1.0000
  C   C46       1.0  0.5133905657836025  0.8611623784523134  0.4995254561714049  1.0000
  C   C47       1.0  0.5012203223560762  0.1043499320613606  0.4992783820522959  1.0000
  C   C48       1.0  0.5758835740866317  0.0587148217467828  0.5463617814610018  1.0000
  C   C49       1.0  0.9304909986548824  0.5852196123939848  0.5347929732233041  1.0000
  C   C50       1.0  0.0904575650523043  0.6045264448327006  0.5289538772752564  1.0000
  C   C51       1.0  0.9450258589419818  0.355660409548797  0.5199746883148464  1.0000
  C   C52       1.0  0.10516819050484834  0.371272635847916  0.5275952117488742  1.0000
  C   C53       1.0  0.9356562605950389  0.5046721961652524  0.4529047464802645  1.0000
  C   C54       1.0  0.09598024114196592  0.49309540742115127  0.45288091363603666  1.0000
  N   N1        1.0  0.4511622701475347  0.6649095318057476  0.7901749532696982  1.0000
  N   N2        1.0  0.46919968770856724  0.62736980888522  0.2014116801738339  1.0000
  N   N3        1.0  0.8831865930676842  0.47925401633589376  0.5030080478264907  1.0000
  N   N4        1.0  0.15114393516816452  0.49129416007117754  0.5041091316931556  1.0000
  Cl  Cl1       1.0  0.6348192472198876  0.44535606496531716  0.7833535171772682  1.0000
  Cl  Cl2       1.0  0.26608711752906095  0.8495628144893602  0.44293174788759165  1.0000
  Cl  Cl3       1.0  0.6008800808483772  0.8414455749321379  0.4019083086853428  1.0000
  Cl  Cl4       1.0  0.3053776617224031  0.8126971869126297  0.7103681146183263  1.0000
  Cl  Cl5       1.0  0.6745134202842636  0.34183267574529447  0.6771420917308646  1.0000
  O   O1        1.0  0.4168750115467788  0.6631668938200193  0.5186605339363126  1.0000
  O   O2        1.0  0.6409732200587754  0.6694827453529442  0.49471865220212413  1.0000
  O   O3        1.0  0.410383912043649  0.43865290453112493  0.5757551524448274  1.0000
  O   O4        1.0  0.6328175345057688  0.5045542239360472  0.575615806536085  1.0000
  O   O5        1.0  0.386993137095466  0.30243407288820373  0.48777464006943216  1.0000
  O   O6        1.0  0.6183312875876795  0.29699340137498353  0.5048602571682466  1.0000
  O   O7        1.0  0.4044133483929074  0.5291260978458467  0.4284410466394775  1.0000
  O   O8        1.0  0.631897337644979  0.4737595682530298  0.4246778229011596  1.0000
  O   O9        1.0  0.6546778474076049  0.7761358368813022  0.7894649020620719  1.0000
  O   O10       1.0  0.6735197647736301  0.7385018822158784  0.2031259729268413  1.0000
  O   O11       1.0  0.24187266997191872  0.5622621036938399  0.7889834900783015  1.0000
  O   O12       1.0  0.2634129489598607  0.5182625270947413  0.19936445980500392  1.0000
  O   O13       1.0  0.7016084958875766  0.40047202574410795  0.3329507695410997  1.0000
  O   O14       1.0  0.9038681193071839  0.5621071527281174  0.5840252261261298  1.0000
  O   O15       1.0  0.15546496055227976  0.6333974632666255  0.5730413785197754  1.0000
  O   O16       1.0  0.8810413275310652  0.3052632144880931  0.5606134145374284  1.0000
  O   O17       1.0  0.13548815913469534  0.36910846812822484  0.577653701466069  1.0000
