data_image0
_chemical_formula_structural       CoCuH14C14N2O12
_chemical_formula_sum              "Co1 Cu1 H14 C14 N2 O12"
_cell_length_a       7.706983907232133
_cell_length_b       7.759941066207747
_cell_length_c       7.68846919030551
_cell_angle_alpha    114.08215331799421
_cell_angle_beta     96.12878151502842
_cell_angle_gamma    92.63383328174133

_space_group_name_H-M_alt    "P 1"
_space_group_IT_number       1

loop_
  _space_group_symop_operation_xyz
  'x, y, z'

loop_
  _atom_site_type_symbol
  _atom_site_label
  _atom_site_symmetry_multiplicity
  _atom_site_fract_x
  _atom_site_fract_y
  _atom_site_fract_z
  _atom_site_occupancy
  Co  Co1       1.0  0.4999996055212251  0.500001081012222  0.999998840315186  1.0000
  Cu  Cu1       1.0  0.999999137580339  0.4999979777240924  0.4999971985289804  1.0000
  H   H1        1.0  0.005552499288903301  0.8394547645149899  0.08605555894969542  1.0000
  H   H2        1.0  0.9944453656948229  0.16055285106616424  0.9139483323830504  1.0000
  H   H3        1.0  0.3982487988451666  0.4614834470223883  0.3045242790468379  1.0000
  H   H4        1.0  0.6017501539167825  0.5385212817696896  0.6954746844631573  1.0000
  H   H5        1.0  0.5718761539793392  0.6033903581638426  0.38986965053126715  1.0000
  H   H6        1.0  0.4281212632690767  0.39661150012059215  0.6101266975250041  1.0000
  H   H7        1.0  0.37975521968024145  0.10318377541869245  0.6071497540911537  1.0000
  H   H8        1.0  0.6202453886727143  0.8968096967892836  0.39284882201936006  1.0000
  H   H9        1.0  0.5912106525277708  0.8310012637657777  0.0015380894774707295  1.0000
  H   H10       1.0  0.40879351348070264  0.16900355905917053  0.998464100766384  1.0000
  H   H11       1.0  0.28207889785418433  0.8415885384984352  0.6955043326110301  1.0000
  H   H12       1.0  0.7179228038331614  0.1584020258211751  0.30448800709807955  1.0000
  H   H13       1.0  0.39070897523079406  0.8386246854993473  0.03778432052745714  1.0000
  H   H14       1.0  0.609295420201498  0.16138299487467125  0.962220332775978  1.0000
  C   C1        1.0  0.021023729385071018  0.7107848687880322  0.2861931712160198  1.0000
  C   C2        1.0  0.978973436214872  0.2892142163444902  0.7138059480952849  1.0000
  C   C3        1.0  0.07070432128703172  0.8460742851804  0.22178384115436953  1.0000
  C   C4        1.0  0.9292929729152348  0.1539261759784338  0.7782132382400918  1.0000
  C   C5        1.0  0.2029064609269682  0.9899502581061699  0.3357951082751782  1.0000
  C   C6        1.0  0.7970934287862335  0.010050292267678196  0.6642062016435162  1.0000
  C   C7        1.0  0.2790295758216105  0.9926073602992106  0.5105666201160375  1.0000
  C   C8        1.0  0.7209725736010385  0.007388961317118999  0.4894332628695467  1.0000
  C   C9        1.0  0.22596839725468956  0.8479882972418125  0.5623331041570836  1.0000
  C   C10       1.0  0.7740310336108749  0.15200653803390196  0.4376632796424503  1.0000
  C   C11       1.0  0.873667293805916  0.5572553224165021  0.18396424311861637  1.0000
  C   C12       1.0  0.12633390199699326  0.44274524091591877  0.8160372191942216  1.0000
  C   C13       1.0  0.26393297952910905  0.13207373523361102  0.26219254768760447  1.0000
  C   C14       1.0  0.7360667871379364  0.8679254180146432  0.7378094935692802  1.0000
  N   N1        1.0  0.09934241586442032  0.7109344037202092  0.45194311882812604  1.0000
  N   N2        1.0  0.9006558319575859  0.28906181572252626  0.5480523812390815  1.0000
  O   O1        1.0  0.8568584172523471  0.42824627271942717  0.24689298234297744  1.0000
  O   O2        1.0  0.14314375439496277  0.5717499644997448  0.7531016663279857  1.0000
  O   O3        1.0  0.7730661428286396  0.565895756178115  0.04812537931209701  1.0000
  O   O4        1.0  0.22692972779391596  0.43410327379725544  0.9518709704477646  1.0000
  O   O5        1.0  0.2765219571148094  0.06333933869989751  0.08360499519858422  1.0000
  O   O6        1.0  0.7234833808248953  0.9366641421566086  0.9164006959349038  1.0000
  O   O7        1.0  0.298584207004943  0.30534526318086114  0.37986489600686474  1.0000
  O   O8        1.0  0.7014160351782267  0.6946595418676581  0.6201381456332272  1.0000
  O   O9        1.0  0.47227087085909153  0.5593172284896825  0.2842214385094125  1.0000
  O   O10       1.0  0.5277252291872827  0.4406846590347513  0.7157773743100294  1.0000
  O   O11       1.0  0.49896918790427947  0.7829213871278144  0.059199650984211885  1.0000
  O   O12       1.0  0.5010322484347824  0.21708199155510505  0.9408016572308996  1.0000
