data_image0
_chemical_formula_structural       Cu4H8C10S2Br2N2
_chemical_formula_sum              "Cu4 H8 C10 S2 Br2 N2"
_cell_length_a       3.9185491700337076
_cell_length_b       7.875679270231471
_cell_length_c       11.428235514285209
_cell_angle_alpha    89.99988080665025
_cell_angle_beta     95.58348259848191
_cell_angle_gamma    90.00092527832935

_space_group_name_H-M_alt    "P 1"
_space_group_IT_number       1

loop_
  _space_group_symop_operation_xyz
  'x, y, z'

loop_
  _atom_site_type_symbol
  _atom_site_label
  _atom_site_symmetry_multiplicity
  _atom_site_fract_x
  _atom_site_fract_y
  _atom_site_fract_z
  _atom_site_occupancy
  Cu  Cu1       1.0  0.4330639307220566  0.6314099929698431  0.1670309547479434  1.0000
  Cu  Cu2       1.0  0.4330509592073001  0.3685900669688138  0.6670325715383498  1.0000
  Cu  Cu3       1.0  0.8719201732041884  0.5149555796950481  0.3702379946327455  1.0000
  Cu  Cu4       1.0  0.8719287152978412  0.48504000871241  0.8702400551427871  1.0000
  H   H1        1.0  0.10266610988858105  0.3186444416070628  0.1831007792671713  1.0000
  H   H2        1.0  0.1026909592302445  0.6813680188830774  0.6831039004239017  1.0000
  H   H3        1.0  0.16425725651320994  0.018222439018288104  0.1268350284308752  1.0000
  H   H4        1.0  0.16425257742598381  0.9817932368157258  0.6268307722332054  1.0000
  H   H5        1.0  0.7182917218047393  0.8781158836488957  0.4446820374299776  1.0000
  H   H6        1.0  0.7182425635176274  0.12187058215108244  0.9446733524311384  1.0000
  H   H7        1.0  0.6826480047023722  0.18840754277702132  0.4902925472560895  1.0000
  H   H8        1.0  0.6826407153724221  0.8115772261829407  0.9902893301972213  1.0000
  C   C1        1.0  0.021320517419795196  0.21812316669663548  0.2395224705034877  1.0000
  C   C2        1.0  0.021309793284508802  0.7818782924394866  0.7395200732424457  1.0000
  C   C3        1.0  0.0548356790071907  0.049753112796736304  0.2081433919523192  1.0000
  C   C4        1.0  0.054814690248811415  0.9502728411531862  0.7081395952688183  1.0000
  C   C5        1.0  0.9420000122485986  0.9224281536064467  0.28098941257118787  1.0000
  C   C6        1.0  0.9419598691516388  0.07757843135851769  0.7809836688437813  1.0000
  C   C7        1.0  0.808306580174616  0.9726618419170306  0.3851266671584668  1.0000
  C   C8        1.0  0.8082726676812442  0.027334437340321902  0.885122919391101  1.0000
  C   C9        1.0  0.7866417643350305  0.1447229720001602  0.4102725663854869  1.0000
  C   C10       1.0  0.7866254408171403  0.8552565482390831  0.9102664083855956  1.0000
  S   S1        1.0  0.9533131004787594  0.7083019722796776  0.2354123603544735  1.0000
  S   S2        1.0  0.9532823520255888  0.2917035645683725  0.7354127083773534  1.0000
  Br  Br1       1.0  0.4382755535134493  0.42940352708007623  0.0117012309494982  1.0000
  Br  Br2       1.0  0.4382917268875488  0.5705944669243408  0.5117007617165683  1.0000
  N   N1        1.0  0.8883214704922653  0.26789382837292663  0.3389166448605678  1.0000
  N   N2        1.0  0.8883169521955312  0.7320956365000769  0.83891536709001  1.0000
