data_image0
_chemical_formula_structural       CdH32C46S2N8O14F6
_chemical_formula_sum              "Cd1 H32 C46 S2 N8 O14 F6"
_cell_length_a       9.591347497327485
_cell_length_b       11.83156835669369
_cell_length_c       13.121737744576725
_cell_angle_alpha    102.71427555046458
_cell_angle_beta     95.40934120953524
_cell_angle_gamma    107.10807160127325

_space_group_name_H-M_alt    "P 1"
_space_group_IT_number       1

loop_
  _space_group_symop_operation_xyz
  'x, y, z'

loop_
  _atom_site_type_symbol
  _atom_site_label
  _atom_site_symmetry_multiplicity
  _atom_site_fract_x
  _atom_site_fract_y
  _atom_site_fract_z
  _atom_site_occupancy
  Cd  Cd1       1.0  2.7957600678943024e-07  0.4999992436123862  0.4999999251027276  1.0000
  H   H1        1.0  0.19036347571956463  0.7646905884614271  0.6892820352034408  1.0000
  H   H2        1.0  0.8096362295806827  0.23530894901116992  0.3107185233586875  1.0000
  H   H3        1.0  0.9890025868181314  0.0390386552854096  0.6539372881468921  1.0000
  H   H4        1.0  0.010997479650662056  0.9609617972701516  0.346062714096263  1.0000
  H   H5        1.0  0.8265341068610254  0.8873908553227776  0.48782820765460144  1.0000
  H   H6        1.0  0.17346700551957636  0.11260959378838463  0.5121718649263158  1.0000
  H   H7        1.0  0.8578860348352749  0.6830524825993154  0.43151399271782515  1.0000
  H   H8        1.0  0.14211507754532704  0.3169479665118473  0.5684860798630922  1.0000
  H   H9        1.0  0.45566542067965804  0.062779324393226  0.9589827477551296  1.0000
  H   H10       1.0  0.5443339198942994  0.9372192962977267  0.041016842357457575  1.0000
  H   H11       1.0  0.48780024114326176  0.22560719997059664  0.8737110257281557  1.0000
  H   H12       1.0  0.5121994623781134  0.7743923366526602  0.12628877044971187  1.0000
  H   H13       1.0  0.2799153608796346  0.0468504906666425  0.0888100205644164  1.0000
  H   H14       1.0  0.7200850685365837  0.953150877821223  0.911190187744019  1.0000
  H   H15       1.0  0.0520310054924167  0.10321750530552984  0.046992013284864215  1.0000
  H   H16       1.0  0.9479690609763834  0.8967829472500315  0.9530079889582838  1.0000
  H   H17       1.0  0.0777154711058259  0.266507088768563  0.944779154424225  1.0000
  H   H18       1.0  0.9222856412747762  0.7334933603425997  0.05522091815669239  1.0000
  H   H19       1.0  0.3290530157084604  0.3590833857891625  0.9034134387224951  1.0000
  H   H20       1.0  0.6709480948932764  0.640917062472653  0.09658587147417566  1.0000
  H   H21       1.0  0.5219031470165588  0.22141541802395895  0.12730435670786022  1.0000
  H   H22       1.0  0.47809796358517076  0.7785850302378563  0.8726949534888035  1.0000
  H   H23       1.0  0.5426838862520071  0.3764296728906872  0.03690568644771733  1.0000
  H   H24       1.0  0.45731758729714034  0.6235716913034323  0.9630938298142339  1.0000
  H   H25       1.0  0.1537063924363409  0.3854498679847325  0.3265541523202344  1.0000
  H   H26       1.0  0.846294719944261  0.6145505811264301  0.67344592026069  1.0000
  H   H27       1.0  0.34697448380252643  0.6858996515129265  0.5860736956814705  1.0000
  H   H28       1.0  0.6530241755859123  0.31409988940406214  0.4139267925428882  1.0000
  H   H29       1.0  0.5779256976974523  0.7482209322483584  0.5111058143002368  1.0000
  H   H30       1.0  0.42207400760278807  0.25177860522423867  0.48889474426189145  1.0000
  H   H31       1.0  0.595279378922129  0.619290349606054  0.3334672221879701  1.0000
  H   H32       1.0  0.40472032637811844  0.3807091878665431  0.6665333363741511  1.0000
  C   C1        1.0  0.11303776064737282  0.7960180020718467  0.6457164212017332  1.0000
  C   C2        1.0  0.8869619428740025  0.20398153455140997  0.3542833749761343  1.0000
  C   C3        1.0  0.10509488866540555  0.91417494081351  0.6809875344657713  1.0000
  C   C4        1.0  0.8949048148559698  0.08582459580974701  0.3190122617120963  1.0000
  C   C5        1.0  0.9990202866370269  0.9484778572959061  0.6262515551639396  1.0000
  C   C6        1.0  0.0009801016276043014  0.0515207607999955  0.37374886767067755  1.0000
  C   C7        1.0  0.9083469871150527  0.864655416516442  0.5354153180104221  1.0000
  C   C8        1.0  0.09165271818519469  0.1353441209561552  0.46458524055170614  1.0000
  C   C9        1.0  0.9247858799150849  0.7498222499473286  0.5035194142126755  1.0000
  C   C10       1.0  0.0752141883325805  0.25017820345757263  0.496481350414733  1.0000
  C   C11       1.0  0.24018636692970582  0.96939289204191  0.8666590732291937  1.0000
  C   C12       1.0  0.7598133365916696  0.03060664458134711  0.1333407229486809  1.0000
  C   C13       1.0  0.35203428474255827  0.0826974165369947  0.941827440939953  1.0000
  C   C14       1.0  0.647965418778817  0.9173021200862548  0.05817235523791451  1.0000
  C   C15       1.0  0.37270931041852867  0.18428376157994822  0.8832709751141152  1.0000
  C   C16       1.0  0.6272900301554217  0.8157148591109974  0.116728614998472  1.0000
  C   C17       1.0  0.2816509801414782  0.12140054304159523  0.7736116590864199  1.0000
  C   C18       1.0  0.7183494063442809  0.8785980742049587  0.22638800136393664  1.0000
  C   C19       1.0  0.2946162134223513  0.119066325945866  0.0469908325899908  1.0000
  C   C20       1.0  0.7053834900990241  0.880933210677391  0.9530089635878768  1.0000
  C   C21       1.0  0.154222144936071  0.1477620737964287  0.021562815313700415  1.0000
  C   C22       1.0  0.8457779179749849  0.852238377060445  0.9784356621609335  1.0000
  C   C23       1.0  0.1677933139010221  0.23414050247635745  0.9683413886211625  1.0000
  C   C24       1.0  0.8322077949218354  0.765859944936118  0.031657159191247904  1.0000
  C   C25       1.0  0.32099430291869174  0.28862235624726656  0.9462126004599086  1.0000
  C   C26       1.0  0.6790068076830379  0.7113780920145488  0.05378670973675533  1.0000
  C   C27       1.0  0.41616137420436433  0.23833143531153678  0.11192525858157865  1.0000
  C   C28       1.0  0.5838386904855641  0.7616690163946774  0.8880739812773087  1.0000
  C   C29       1.0  0.3811117740688559  0.2888329785417341  0.21929811275246894  1.0000
  C   C30       1.0  0.6188879294525124  0.7111665580815228  0.7807016834253986  1.0000
  C   C31       1.0  0.40258849194125906  0.443323801018849  0.13028871869931893  1.0000
  C   C32       1.0  0.597408433234378  0.5566766601712061  0.8697095477620067  1.0000
  C   C33       1.0  0.43027873500184194  0.3393612518045188  0.05333302744138993  1.0000
  C   C34       1.0  0.5697213314669584  0.6606392007510424  0.9466669748017581  1.0000
  C   C35       1.0  0.37707837175864256  0.4910570081184531  0.3209345481729359  1.0000
  C   C36       1.0  0.6229206470194769  0.5089434470321593  0.6790646213481893  1.0000
  C   C37       1.0  0.24994565078452513  0.46445397491556406  0.3663579170753906  1.0000
  C   C38       1.0  0.7500540527368501  0.5355455617076927  0.6336418791024769  1.0000
  C   C39       1.0  0.3572556377878583  0.6338066738501739  0.5092513478171129  1.0000
  C   C40       1.0  0.6427440657335167  0.36619286277308294  0.49074844836075465  1.0000
  C   C41       1.0  0.4863402590764423  0.6677520367779692  0.46688414500081177  1.0000
  C   C42       1.0  0.5136594444449328  0.3322474998452806  0.5331156511770558  1.0000
  C   C43       1.0  0.4970156401000382  0.596105017069199  0.3702404237939661  1.0000
  C   C44       1.0  0.5029844281476274  0.4038954363357023  0.6297603408334426  1.0000
  C   C45       1.0  0.9110199970590217  0.44764077294308185  0.1253923405445647  1.0000
  C   C46       1.0  0.08898075415302739  0.5523587610851167  0.8746082883553328  1.0000
  S   S1        1.0  0.8218319748600964  0.4747841555123388  0.24471210387041253  1.0000
  S   S2        1.0  0.1781688210612771  0.5252181306065112  0.7552898352718175  1.0000
  N   N1        1.0  0.023537146360688214  0.7152592570761342  0.5586272181315763  1.0000
  N   N2        1.0  0.9764632401250709  0.2847393601704198  0.44137244231878014  1.0000
  N   N3        1.0  0.2048246254523606  0.9984051874181364  0.7710280805932967  1.0000
  N   N4        1.0  0.7951747151215898  0.001593433272816501  0.22897150951929043  1.0000
  N   N5        1.0  0.38483940752751533  0.40974821234270575  0.22603084078475894  1.0000
  N   N6        1.0  0.6151606571624059  0.5902522393635081  0.7739683990741356  1.0000
  N   N7        1.0  0.24004707784088444  0.5349770374917993  0.4589664143596296  1.0000
  N   N8        1.0  0.7599526256804907  0.46502249913145016  0.541033381818238  1.0000
  O   O1        1.0  0.18652633300484206  0.8699255927115815  0.8842337101575312  1.0000
  O   O2        1.0  0.8134733722953983  0.1300739447610155  0.11576684840459711  1.0000
  O   O3        1.0  0.27435244564738775  0.16443982407047741  0.6975757318850029  1.0000
  O   O4        1.0  0.7256479408383711  0.8355587931760768  0.30242392856535366  1.0000
  O   O5        1.0  0.35471303142195154  0.236614976371186  0.2894971481937816  1.0000
  O   O6        1.0  0.6452863503035929  0.7633863947117236  0.710502227392631  1.0000
  O   O7        1.0  0.3965663099455483  0.5404792709835887  0.11634887714988913  1.0000
  O   O8        1.0  0.6034312999733444  0.45952027167911075  0.8836500159681793  1.0000
  O   O9        1.0  0.9521826266992051  0.5289667630704714  0.3302127043078117  1.0000
  O   O10       1.0  0.04781748270004014  0.4710364407263937  0.6697878457934152  1.0000
  O   O11       1.0  0.7268814329518705  0.3546521788647042  0.24785432774962154  1.0000
  O   O12       1.0  0.2731225024837798  0.6453500977703044  0.7521485847901772  1.0000
  O   O13       1.0  0.7457931758811185  0.5599141866781424  0.22651144670533804  1.0000
  O   O14       1.0  0.2542068888088096  0.44008626502807163  0.7734877931535564  1.0000
  F   F1        1.0  0.9888701396030584  0.556838270793165  0.10998910404896388  1.0000
  F   F2        1.0  0.011130250440444819  0.44316034815207667  0.8900120811699068  1.0000
  F   F3        1.0  0.8069459213385671  0.3841058803761754  0.038178960500992835  1.0000
  F   F4        1.0  0.19305451163538123  0.6158954898103702  0.9618227725759497  1.0000
  F   F5        1.0  0.005557675026537435  0.3842636078060126  0.13693165415786987  1.0000
  F   F6        1.0  0.99444203027371  0.6157359296665845  0.8630689044042582  1.0000
