data_image0
_chemical_formula_structural       Zr6H8C50Cl2O32F20
_chemical_formula_sum              "Zr6 H8 C50 Cl2 O32 F20"
_cell_length_a       14.871729062927312
_cell_length_b       14.886982316818182
_cell_length_c       14.881792673752146
_cell_angle_alpha    59.95805386785096
_cell_angle_beta     60.00172743254884
_cell_angle_gamma    59.973168797553555

_space_group_name_H-M_alt    "P 1"
_space_group_IT_number       1

loop_
  _space_group_symop_operation_xyz
  'x, y, z'

loop_
  _atom_site_type_symbol
  _atom_site_label
  _atom_site_symmetry_multiplicity
  _atom_site_fract_x
  _atom_site_fract_y
  _atom_site_fract_z
  _atom_site_occupancy
  Zr  Zr1       1.0  0.8803959085263244  0.880762443257524  0.6193748315237285  1.0000
  Zr  Zr2       1.0  0.11771368451536555  0.11899081734372174  0.3812952072560947  1.0000
  Zr  Zr3       1.0  0.11801231819256945  0.8821656088818627  0.6180924114613474  1.0000
  Zr  Zr4       1.0  0.880259393826101  0.12011676368936743  0.37993666873305904  1.0000
  Zr  Zr5       1.0  0.11744941985695323  0.8815328654056886  0.38072450556022347  1.0000
  Zr  Zr6       1.0  0.8795289874804479  0.11949892012203397  0.6186476557601708  1.0000
  H   H1        1.0  0.09209719896821161  0.7199022051160143  0.5941380371003291  1.0000
  H   H2        1.0  0.0918052987058644  0.09492692378805151  0.21905743749073284  1.0000
  H   H3        1.0  0.09271487847158254  0.09390529531737003  0.5929157914739847  1.0000
  H   H4        1.0  0.7178825784443815  0.09391741529890414  0.5933194603084857  1.0000
  H   H5        1.0  0.7522542476653699  0.6292575159717659  0.9569239194273608  1.0000
  H   H6        1.0  0.8382828047520332  0.5447598437403871  0.8726107358854589  1.0000
  H   H7        1.0  0.8378247070520716  0.374818932149907  0.0424888259333257  1.0000
  H   H8        1.0  0.7517499079426031  0.4590444922806185  0.12704801573772057  1.0000
  C   C1        1.0  0.9960730298756741  0.701259102635888  0.4972150087879824  1.0000
  C   C2        1.0  0.30373832553350155  0.9972958403158149  0.20131361090321312  1.0000
  C   C3        1.0  0.9965686089078144  0.30450760643019265  0.4976303574686724  1.0000
  C   C4        1.0  0.700558067692114  0.9965556713983762  0.8050190735123834  1.0000
  C   C5        1.0  0.9978467725534443  0.7017382611038132  0.804337695905815  1.0000
  C   C6        1.0  0.7006275128983431  0.9976972684500257  0.49649167195131827  1.0000
  C   C7        1.0  0.9972985482446575  0.3050923602248617  0.20080664243479146  1.0000
  C   C8        1.0  0.30428358093976715  0.9975277977255389  0.49626218583054527  1.0000
  C   C9        1.0  0.3038219208350342  0.7021078124298797  0.49642546237526364  1.0000
  C   C10       1.0  0.99673310553559  0.998501871390737  0.8035450065358274  1.0000
  C   C11       1.0  0.7003858451759087  0.3056068083656101  0.4958682578737663  1.0000
  C   C12       1.0  0.9958947494719579  0.9977930717797964  0.200614424278896  1.0000
  C   C13       1.0  0.9971990779096059  0.40488364244505015  0.49829169166940074  1.0000
  C   C14       1.0  0.9968692143351632  0.5995244788458934  0.4979720545035916  1.0000
  C   C15       1.0  0.07800555549840736  0.4546242024964899  0.4186118532221101  1.0000
  C   C16       1.0  0.917209642807677  0.5486480672029759  0.5787261925925833  1.0000
  C   C17       1.0  0.0777028232008376  0.5488030129188104  0.41825774427255163  1.0000
  C   C18       1.0  0.9172316485162992  0.4547965880439479  0.5788195038055476  1.0000
  C   C19       1.0  0.4050187706860767  0.9970213392024904  0.10042958744051575  1.0000
  C   C20       1.0  0.5995392829169645  0.9966356945374387  0.9060903768223838  1.0000
  C   C21       1.0  0.4556343085343713  0.0769551318816469  0.05017793409238177  1.0000
  C   C22       1.0  0.5487371198217946  0.9168874568214845  0.9562377344239932  1.0000
  C   C23       1.0  0.5494318415067883  0.07696575645181289  0.9561449562686233  1.0000
  C   C24       1.0  0.4547550643261998  0.917101420087029  0.04995893116787877  1.0000
  C   C25       1.0  0.9971116173298638  0.9989510787950384  0.9041485031513614  1.0000
  C   C26       1.0  0.9966052949066649  0.9984507185384787  0.09896887095744931  1.0000
  C   C27       1.0  0.916989867830331  0.07940115562265511  0.954109134157676  1.0000
  C   C28       1.0  0.0774203117808412  0.9186677792915392  0.04833997864274389  1.0000
  C   C29       1.0  0.9169095104986765  0.0792278716331795  0.048052128436367414  1.0000
  C   C30       1.0  0.07783182328532245  0.9191222610278659  0.9540348584809519  1.0000
  C   C31       1.0  0.4049116664515183  0.6010330354668268  0.49631750025222465  1.0000
  C   C32       1.0  0.5993167125952964  0.4065758186943145  0.4960326167900532  1.0000
  C   C33       1.0  0.45450030283225107  0.5505531084230528  0.41643210286374455  1.0000
  C   C34       1.0  0.5492570044239997  0.45654877583093906  0.5764244786671212  1.0000
  C   C35       1.0  0.5484549777091772  0.4567595899676747  0.41626925655882  1.0000
  C   C36       1.0  0.45550448467164967  0.550649073569602  0.5763655764578814  1.0000
  C   C37       1.0  0.003918422651579897  0.6006906367510397  0.9037296431800214  1.0000
  C   C38       1.0  0.0035749244059745393  0.4044910654315855  0.099775222598879  1.0000
  C   C39       1.0  0.9254068907557097  0.5493786957629542  0.9544236958916981  1.0000
  C   C40       1.0  0.08635476512695546  0.4535661782067352  0.048811944093607375  1.0000
  C   C41       1.0  0.9251828184137522  0.45565775994592184  0.04812504526088176  1.0000
  C   C42       1.0  0.08650101369973119  0.5493314597506187  0.9531795760347137  1.0000
  C   C43       1.0  0.8243435602143734  0.5553149406261112  0.9470561969478837  1.0000
  C   C44       1.0  0.8240600966164066  0.44901914855284286  0.05331851382959466  1.0000
  C   C45       1.0  0.40501803533927444  0.9978995931296953  0.49651436232500146  1.0000
  C   C46       1.0  0.599320667675997  0.9980191975368201  0.4966294991111652  1.0000
  C   C47       1.0  0.4549728871567707  0.917951412730524  0.5771408323025823  1.0000
  C   C48       1.0  0.5487499920766011  0.07860502007309135  0.41658646916611985  1.0000
  C   C49       1.0  0.548819636129551  0.9180240018412535  0.5772052565283018  1.0000
  C   C50       1.0  0.4549092475735391  0.078499469228568  0.41652021465090167  1.0000
  Cl  Cl1       1.0  0.1916057425719516  0.39971797170534973  0.09864261698737652  1.0000
  Cl  Cl2       1.0  0.1917296446934741  0.5988703207842221  0.8999944503169318  1.0000
  O   O1        1.0  0.9201493477658927  0.7400115190372393  0.5735405572305154  1.0000
  O   O2        1.0  0.264368194556468  0.07380000463523835  0.23978915627935035  1.0000
  O   O3        1.0  0.07367040048501389  0.2647282301465809  0.4225154843671461  1.0000
  O   O4        1.0  0.7395943479089622  0.9204143091138167  0.7660700513396532  1.0000
  O   O5        1.0  0.06991098377763912  0.7471321104163521  0.761503386946238  1.0000
  O   O6        1.0  0.7392004306104524  0.0742134525682659  0.42063990986859784  1.0000
  O   O7        1.0  0.9202959621274116  0.26820188565922387  0.23498191525015955  1.0000
  O   O8        1.0  0.26510763761140754  0.9216365579256875  0.5726520388790702  1.0000
  O   O9        1.0  0.2641532153126532  0.7405424902255078  0.4209073357959596  1.0000
  O   O10       1.0  0.9198446473884446  0.07387713401862347  0.765112970949886  1.0000
  O   O11       1.0  0.7385261911969818  0.2657271404957628  0.5728395923629604  1.0000
  O   O12       1.0  0.07204568526859123  0.9216354355074897  0.2396602314912142  1.0000
  O   O13       1.0  0.07399775673187012  0.9235038425575511  0.7636826385923781  1.0000
  O   O14       1.0  0.7394778472718142  0.2667462710723927  0.419655317293376  1.0000
  O   O15       1.0  0.9198956504264687  0.0740715022473711  0.2393743561087405  1.0000
  O   O16       1.0  0.26471177054277467  0.7407580305686283  0.5727360905207561  1.0000
  O   O17       1.0  0.9207527872677518  0.7361509879244041  0.7674111813771984  1.0000
  O   O18       1.0  0.2648775804620414  0.07391251144022705  0.4204635073883622  1.0000
  O   O19       1.0  0.06919903754155145  0.26224692955122453  0.2464599853130025  1.0000
  O   O20       1.0  0.7393459152391628  0.9217414881639742  0.5729280121023519  1.0000
  O   O21       1.0  0.7386601061540644  0.07349872644233117  0.765156475842275  1.0000
  O   O22       1.0  0.07205001583656673  0.7403985099598317  0.4209214769184726  1.0000
  O   O23       1.0  0.26418925816281547  0.9217430043593069  0.23975983300958587  1.0000
  O   O24       1.0  0.919665319299284  0.266163474170398  0.57295716381185  1.0000
  O   O25       1.0  0.7976996364820437  0.06740392421807692  0.566721208557496  1.0000
  O   O26       1.0  0.06574704343390898  0.0674695864791773  0.5665563136449662  1.0000
  O   O27       1.0  0.06548097187718581  0.0671713271630665  0.2988384245523434  1.0000
  O   O28       1.0  0.06570507102031815  0.7996712814853666  0.5664106017179975  1.0000
  O   O29       1.0  0.146861012729268  0.9508806295711734  0.4500683258081394  1.0000
  O   O30       1.0  0.9493195349965332  0.951416399035658  0.4506802335002573  1.0000
  O   O31       1.0  0.9489793213868436  0.14802464697880444  0.450818187259216  1.0000
  O   O32       1.0  0.9492426201601701  0.9516318783840847  0.6471441919456495  1.0000
  F   F1        1.0  0.16017888139928246  0.4140342937376646  0.3385796769899159  1.0000
  F   F2        1.0  0.8366248474626017  0.5875997221442552  0.6606929857521636  1.0000
  F   F3        1.0  0.15931191500894212  0.5879780673138272  0.3376545882246376  1.0000
  F   F4        1.0  0.8367016383782083  0.4144926844368656  0.6605702268103142  1.0000
  F   F5        1.0  0.41648680796427573  0.15771295264294607  0.08998623119959596  1.0000
  F   F6        1.0  0.5879757700452116  0.8359412988687968  0.9163366421957163  1.0000
  F   F7        1.0  0.5891387987315821  0.15806859426915326  0.9162278196638951  1.0000
  F   F8        1.0  0.41448762221817465  0.8365374552674256  0.08925867167756231  1.0000
  F   F9        1.0  0.8364218540449639  0.16114429901096403  0.9137583350784766  1.0000
  F   F10       1.0  0.1589251883562355  0.8379346353542232  0.08768953732309362  1.0000
  F   F11       1.0  0.8362358530055046  0.16113663953977672  0.08702141652839401  1.0000
  F   F12       1.0  0.1600125789901838  0.8390578867904424  0.9134718952165314  1.0000
  F   F13       1.0  0.4141524160396557  0.5899225275790914  0.3358553941251614  1.0000
  F   F14       1.0  0.5890199911234221  0.4165345466091851  0.6575634626472249  1.0000
  F   F15       1.0  0.5876377892744317  0.4168923864980485  0.3353052947242645  1.0000
  F   F16       1.0  0.4164005196593834  0.5904447347334741  0.6571387905275685  1.0000
  F   F17       1.0  0.4149634653922264  0.8371870893355291  0.6586517152082079  1.0000
  F   F18       1.0  0.587964465958528  0.16021793677913373  0.33589272420766747  1.0000
  F   F19       1.0  0.5880743194280315  0.8373476148365314  0.6588670302106789  1.0000
  F   F20       1.0  0.41482111282014245  0.1599537306303916  0.3357222662772372  1.0000
