data_image0
_chemical_formula_structural       Zn3H34C38N4O12
_chemical_formula_sum              "Zn3 H34 C38 N4 O12"
_cell_length_a       9.782560768718744
_cell_length_b       10.164601869934412
_cell_length_c       11.16523389868061
_cell_angle_alpha    113.09170776243833
_cell_angle_beta     99.51798651126168
_cell_angle_gamma    110.37293915188167

_space_group_name_H-M_alt    "P 1"
_space_group_IT_number       1

loop_
  _space_group_symop_operation_xyz
  'x, y, z'

loop_
  _atom_site_type_symbol
  _atom_site_label
  _atom_site_symmetry_multiplicity
  _atom_site_fract_x
  _atom_site_fract_y
  _atom_site_fract_z
  _atom_site_occupancy
  Zn  Zn1       1.0  0.9999952335705515  0.9999981562628765  0.49999811762369034  1.0000
  Zn  Zn2       1.0  0.3007636073293369  0.14663409908694552  0.772100071853103  1.0000
  Zn  Zn3       1.0  0.6992383350548863  0.8533705625498272  0.22789697171277384  1.0000
  H   H1        1.0  0.21795889169568736  0.3217613192435209  0.3635819103675928  1.0000
  H   H2        1.0  0.782045183565067  0.6782457888491323  0.6364225735688366  1.0000
  H   H3        1.0  0.8232805487644796  0.2984092970304744  0.7574503301060888  1.0000
  H   H4        1.0  0.17673283606023196  0.7016050328737721  0.24254997335376788  1.0000
  H   H5        1.0  0.627129905613991  0.47459061738792496  0.696045366051159  1.0000
  H   H6        1.0  0.37286789469587234  0.5254140194681585  0.3039537724278107  1.0000
  H   H7        1.0  0.3614628378614809  0.9001248277833939  0.6164322615279334  1.0000
  H   H8        1.0  0.638537557745046  0.0998714604835769  0.3835642719114675  1.0000
  H   H9        1.0  0.5125470603596725  0.8436447058561499  0.6214443557977419  1.0000
  H   H10       1.0  0.4874575042273149  0.15635879900305838  0.37855533236925254  1.0000
  H   H11       1.0  0.25319161366157766  0.5055596984616741  0.08920015906878842  1.0000
  H   H12       1.0  0.7468197280097755  0.4944498564002089  0.9108035316411077  1.0000
  H   H13       1.0  0.7727551715552109  0.20915090511263668  0.12164854790997742  1.0000
  H   H14       1.0  0.22723848605259891  0.7908441424106986  0.8783501779257394  1.0000
  H   H15       1.0  0.07248148211957074  0.6825577853476191  0.3996243659744751  1.0000
  H   H16       1.0  0.9275204916731993  0.3174421160901418  0.6003754665813545  1.0000
  H   H17       1.0  0.6709548213008604  0.05576617078693152  0.5809649602282221  1.0000
  H   H18       1.0  0.32904611744408635  0.9442408978696906  0.41903727672313124  1.0000
  H   H19       1.0  0.5616561660448767  0.16228580023103936  0.6312055840135358  1.0000
  H   H20       1.0  0.43834374215470007  0.8377164836338908  0.3687965966826143  1.0000
  H   H21       1.0  0.9935714030933268  0.6073649477961782  0.7399346361569812  1.0000
  H   H22       1.0  0.006424345094487148  0.3926325167470281  0.26006613969179443  1.0000
  H   H23       1.0  0.7487644422903584  0.9187318720971406  0.7443533018601516  1.0000
  H   H24       1.0  0.2512307845349895  0.08126439132647081  0.2556469732117534  1.0000
  H   H25       1.0  0.7633745470354041  0.8988714244043409  0.8971539323920937  1.0000
  H   H26       1.0  0.23661861227747488  0.10112482908191824  0.10284783933281724  1.0000
  H   H27       1.0  0.89729403963922  0.07241095881894921  0.9043145842662738  1.0000
  H   H28       1.0  0.10270172264743141  0.9275865155362555  0.09568798836833292  1.0000
  H   H29       1.0  0.4218736898623091  0.3265576915439682  0.06354666541680848  1.0000
  H   H30       1.0  0.5781142827319953  0.6734337425579042  0.9364553481801537  1.0000
  H   H31       1.0  0.6240912330380579  0.4534617328929755  0.15174047187080222  1.0000
  H   H32       1.0  0.37589049793317747  0.5465248621378226  0.8482598367459604  1.0000
  H   H33       1.0  0.5270643652432908  0.3057342735302697  0.19544160360146637  1.0000
  H   H34       1.0  0.4729230379341942  0.6942487529224483  0.8045519643991882  1.0000
  C   C1        1.0  0.41334944540789553  0.3863498349932826  0.5334526160434336  1.0000
  C   C2        1.0  0.5866509591673292  0.6136488505442089  0.4665456672761935  1.0000
  C   C3        1.0  0.321071386291635  0.2661526956653404  0.5709389784140342  1.0000
  C   C4        1.0  0.6789331815062097  0.7338460293708523  0.4290599051712506  1.0000
  C   C5        1.0  0.0895190756145681  0.27271031340649904  0.8217817541089262  1.0000
  C   C6        1.0  0.9104880900269092  0.7272920199571473  0.17821788348044995  1.0000
  C   C7        1.0  0.34120779481476393  0.40053842464131156  0.4229252675836436  1.0000
  C   C8        1.0  0.6587926610256715  0.59946268760271  0.5770801559737181  1.0000
  C   C9        1.0  0.0880004659394514  0.8374908841149846  0.6663495658980666  1.0000
  C   C10       1.0  0.9120041037776758  0.16251023328571534  0.3336501691745327  1.0000
  C   C11       1.0  0.9005237782315376  0.3875719565387073  0.8636508681077901  1.0000
  C   C12       1.0  0.09948652584503032  0.6124328086254778  0.1363518679539767  1.0000
  C   C13       1.0  0.5726234270167581  0.4863721651790699  0.6101344031723387  1.0000
  C   C14       1.0  0.4273821623577587  0.5136289473783009  0.38986278678792985  1.0000
  C   C15       1.0  0.03850344168350971  0.662610299424067  0.5782340114861102  1.0000
  C   C16       1.0  0.9614943990035911  0.3373919745035182  0.421769665863039  1.0000
  C   C17       1.0  0.48840791113039456  0.947286353675402  0.6491241113069537  1.0000
  C   C18       1.0  0.5115940645816509  0.052715940126873306  0.35087657273618333  1.0000
  C   C19       1.0  0.6742072660779924  0.06245422388825261  0.893846893002049  1.0000
  C   C20       1.0  0.3257869250718385  0.9375396422021752  0.10615327890904788  1.0000
  C   C21       1.0  0.14193727319030813  0.5031208081683334  0.05130471296921272  1.0000
  C   C22       1.0  0.8580746039423559  0.4968899576251505  0.9487012753033854  1.0000
  C   C23       1.0  0.6868235425149577  0.17028011085546524  0.024564803794319794  1.0000
  C   C24       1.0  0.31317065568429564  0.8297137601409619  0.9754362665096893  1.0000
  C   C25       1.0  0.04184060736578491  0.6018130646820696  0.4428499511632752  1.0000
  C   C26       1.0  0.9581582119737744  0.3981820027786257  0.5571441346470111  1.0000
  C   C27       1.0  0.552986384255469  0.04166185737373242  0.5758247604293487  1.0000
  C   C28       1.0  0.4470145775570201  0.9583476183654157  0.4241810231880765  1.0000
  C   C29       1.0  0.042608226908008355  0.38944975469598125  0.913871826456969  1.0000
  C   C30       1.0  0.9573974188618661  0.6105513971094112  0.0861325506466316  1.0000
  C   C31       1.0  0.9962930677662453  0.5595176547808408  0.6347589501326071  1.0000
  C   C32       1.0  0.003704707556799696  0.44048218262820893  0.3652357901929762  1.0000
  C   C33       1.0  0.77445442812904  0.9829321823486268  0.8564174687532786  1.0000
  C   C34       1.0  0.22554185360080223  0.0170641007616581  0.14358475317087743  1.0000
  C   C35       1.0  0.5325029467800633  0.3301885934053955  0.10852608250412035  1.0000
  C   C36       1.0  0.4674860102245402  0.6698028113231302  0.8914688940159297  1.0000
  C   C37       1.0  0.5677495624072719  0.21381638181455292  0.003969511475602976  1.0000
  C   C38       1.0  0.4322414781279206  0.7861774350278382  0.9960266166645868  1.0000
  N   N1        1.0  0.4838664966239746  0.1349441427517561  0.8667635690823303  1.0000
  N   N2        1.0  0.5161271308668772  0.8650484927830606  0.13323071169440248  1.0000
  N   N3        1.0  0.5496683777338589  0.0425550004831194  0.8003879514536081  1.0000
  N   N4        1.0  0.4503315144475976  0.9574448812052908  0.19961158096938905  1.0000
  O   O1        1.0  0.14462865768687996  0.9310148609936352  0.6119203819220902  1.0000
  O   O2        1.0  0.8553738374683489  0.06898624156371372  0.3880799514105959  1.0000
  O   O3        1.0  0.18170162447043484  0.16643988544814195  0.4900602708782743  1.0000
  O   O4        1.0  0.8183008777342164  0.8335612220152131  0.5099409608473311  1.0000
  O   O5        1.0  0.2175270929915598  0.27883223480779423  0.882415171562009  1.0000
  O   O6        1.0  0.7824862912054513  0.7211725305444008  0.11758262434150182  1.0000
  O   O7        1.0  0.3919542982039558  0.2735864950003659  0.6819614204882499  1.0000
  O   O8        1.0  0.608051300139266  0.7264170148275185  0.3180375193522453  1.0000
  O   O9        1.0  0.0049624233488713854  0.18014029326357672  0.6950641358908385  1.0000
  O   O10       1.0  0.99505096660598  0.8198716491821613  0.30493621447461566  1.0000
  O   O11       1.0  0.08779559928777286  0.892721447115406  0.7870037155682966  1.0000
  O   O12       1.0  0.9122074274902087  0.10727608164452113  0.2129972123524624  1.0000
