data_image0
_chemical_formula_structural       Cu32H192C96I32N32
_chemical_formula_sum              "Cu32 H192 C96 I32 N32"
_cell_length_a       15.820925013000085
_cell_length_b       17.83712644900028
_cell_length_c       17.837110852000183
_cell_angle_alpha    90.00001644628803
_cell_angle_beta     89.99999970095608
_cell_angle_gamma    89.99998802335229

_space_group_name_H-M_alt    "P 1"
_space_group_IT_number       1

loop_
  _space_group_symop_operation_xyz
  'x, y, z'

loop_
  _atom_site_type_symbol
  _atom_site_label
  _atom_site_symmetry_multiplicity
  _atom_site_fract_x
  _atom_site_fract_y
  _atom_site_fract_z
  _atom_site_occupancy
  Cu  Cu1       1.0  6.188625647e-07  0.1037118188132311  0.32282359588838005  1.0000
  Cu  Cu2       1.0  0.49999856313510077  0.10371238399111601  0.6771775062523344  1.0000
  Cu  Cu3       1.0  1.7884557407999998e-06  0.8962868419015707  0.6771781817535681  1.0000
  Cu  Cu4       1.0  0.4999997348785498  0.8962867447365924  0.3228237085182641  1.0000
  Cu  Cu5       1.0  0.5000010673292864  0.3228215854145803  0.10371415089432648  1.0000
  Cu  Cu6       1.0  2.4875026412e-06  0.3228217454732629  0.8962881353978316  1.0000
  Cu  Cu7       1.0  0.9999964425853635  0.6771768226258817  0.10371251874377657  1.0000
  Cu  Cu8       1.0  0.5000010231301175  0.6771775433129362  0.8962881851340824  1.0000
  Cu  Cu9       1.0  0.999999972125799  0.22961381589759366  0.26117293470142033  1.0000
  Cu  Cu10      1.0  0.5000010763958399  0.22961327751450267  0.7388270823204691  1.0000
  Cu  Cu11      1.0  1.8031181525999995e-06  0.7703854054455235  0.7388277216827887  1.0000
  Cu  Cu12      1.0  0.4999991178406232  0.7703864118412015  0.2611724505634782  1.0000
  Cu  Cu13      1.0  0.4999972817727354  0.2611726600210886  0.22961457618249162  1.0000
  Cu  Cu14      1.0  1.8630814508999997e-06  0.26117334456922237  0.7703876924139264  1.0000
  Cu  Cu15      1.0  0.999998963229373  0.7388257841583297  0.22961408298557723  1.0000
  Cu  Cu16      1.0  0.4999997520922577  0.7388270293351553  0.7703866385881923  1.0000
  Cu  Cu17      1.0  0.08181946255969312  0.21428232044392814  0.38308953742493657  1.0000
  Cu  Cu18      1.0  0.41817969335554744  0.2142823228499182  0.6169110358251613  1.0000
  Cu  Cu19      1.0  0.08181876237804889  0.7857174463720469  0.6169094367056687  1.0000
  Cu  Cu20      1.0  0.4181834191128217  0.7857168210333967  0.38309298245693657  1.0000
  Cu  Cu21      1.0  0.41817967466710126  0.38308972452898626  0.21428475697082655  1.0000
  Cu  Cu22      1.0  0.08181501690747689  0.38309488334989805  0.7857169859926569  1.0000
  Cu  Cu23      1.0  0.08181751936130151  0.6169076866082933  0.21427918499382054  1.0000
  Cu  Cu24      1.0  0.4181828057271772  0.6169077374691271  0.785719261311037  1.0000
  Cu  Cu25      1.0  0.9181819958252931  0.7857179295400841  0.616909995459089  1.0000
  Cu  Cu26      1.0  0.5818205008809869  0.7857168058775345  0.383089618316525  1.0000
  Cu  Cu27      1.0  0.9181801677098346  0.21428224298377782  0.3830900961782787  1.0000
  Cu  Cu28      1.0  0.58181551097519  0.21428174706550615  0.6169059897979423  1.0000
  Cu  Cu29      1.0  0.581817359198091  0.6169082829420774  0.7857170184285207  1.0000
  Cu  Cu30      1.0  0.9181813848830274  0.6169064878916544  0.21428422877826844  1.0000
  Cu  Cu31      1.0  0.9181795145040255  0.38308919960561383  0.785720347889736  1.0000
  Cu  Cu32      1.0  0.5818173885092219  0.38309251251516235  0.21428139283081285  1.0000
  H   H1        1.0  0.0562179262111897  0.19162461217204915  0.9886427591682005  1.0000
  H   H2        1.0  0.4437812350488031  0.19162443601676674  0.011357807578157499  1.0000
  H   H3        1.0  0.056217856433484294  0.8083757200146593  0.011357336335130698  1.0000
  H   H4        1.0  0.44378179141527596  0.8083758243809813  0.9886428468158283  1.0000
  H   H5        1.0  0.443781140497549  0.9886424143402409  0.19162422331361734  1.0000
  H   H6        1.0  0.056218464828077686  0.9886425387514347  0.8083760115814584  1.0000
  H   H7        1.0  0.0562179498909572  0.0113572328068798  0.19162464455069275  1.0000
  H   H8        1.0  0.44378188596660095  0.011357285429006903  0.8083758704513853  1.0000
  H   H9        1.0  0.9437816359509127  0.808375637812219  0.011357334344744199  1.0000
  H   H10       1.0  0.5562183271133064  0.8083758139675794  0.9886428465636921  1.0000
  H   H11       1.0  0.9437817057286252  0.1916245299696087  0.9886427571778139  1.0000
  H   H12       1.0  0.5562177707468337  0.19162442560336504  0.011357807326014296  1.0000
  H   H13       1.0  0.5562184216646245  0.0113572750156052  0.8083758701992422  1.0000
  H   H14       1.0  0.9437817294083217  0.011357711232854197  0.19162464256038444  1.0000
  H   H15       1.0  0.9437816122711523  0.9886430171773885  0.8083754489622448  1.0000
  H   H16       1.0  0.5562183082698695  0.9886424039267822  0.19162422306146704  1.0000
  H   H17       1.0  0.9438196367143232  0.1586970159395591  0.11702457790564577  1.0000
  H   H18       1.0  0.5561804796026736  0.15869716177100912  0.8829754165177232  1.0000
  H   H19       1.0  0.9438195538804378  0.841303151835156  0.8829749529878226  1.0000
  H   H20       1.0  0.5561804014165405  0.8413030778068206  0.11702467674324167  1.0000
  H   H21       1.0  0.5561804867151992  0.11702442618330623  0.1586966802428051  1.0000
  H   H22       1.0  0.9438196394318934  0.11702504887843193  0.8413027415899419  1.0000
  H   H23       1.0  0.9438195511628605  0.8829751188962904  0.15869678930352643  1.0000
  H   H24       1.0  0.5561803943040786  0.8829752527660233  0.8413028523891695  1.0000
  H   H25       1.0  0.05618055752207599  0.841303234044652  0.8829755156072847  1.0000
  H   H26       1.0  0.443819082559436  0.841303088213259  0.1170246769952143  1.0000
  H   H27       1.0  0.0561806403560325  0.158696537520548  0.11702457989612466  1.0000
  H   H28       1.0  0.44381916074556926  0.15869717217744753  0.8829754167696959  1.0000
  H   H29       1.0  0.4438197075212712  0.8829752631724832  0.8413034132700543  1.0000
  H   H30       1.0  0.056180554804505796  0.8829752011056942  0.15869679129408346  1.0000
  H   H31       1.0  0.0561806430735388  0.11702513108792087  0.8413033042094111  1.0000
  H   H32       1.0  0.44381916785809483  0.11702443658974464  0.15869668049477775  1.0000
  H   H33       1.0  0.11405019324519118  0.22425984562786988  0.551682985613098  1.0000
  H   H34       1.0  0.3859502244649775  0.22426036623895143  0.44831759050103404  1.0000
  H   H35       1.0  0.11405012851444947  0.7757399152180541  0.4483171096307642  1.0000
  H   H36       1.0  0.3859495270327926  0.7757399048709601  0.5516825035234232  1.0000
  H   H37       1.0  0.3859495544525728  0.5516830283540557  0.2242606120498535  1.0000
  H   H38       1.0  0.11405078602174967  0.5516831326849142  0.775739497419522  1.0000
  H   H39       1.0  0.1140501678120529  0.44831774941771135  0.22426003719559154  1.0000
  H   H40       1.0  0.3859495649708932  0.4483172427559197  0.7757394819746108  1.0000
  H   H41       1.0  0.8859500009912084  0.7757404043563412  0.4483171078998395  1.0000
  H   H42       1.0  0.6140506018457189  0.7757398837451959  0.5516825030118966  1.0000
  H   H43       1.0  0.8859494336477239  0.22425977413771392  0.5516824232531831  1.0000
  H   H44       1.0  0.614050035129388  0.22425978448480077  0.44831702936052403  1.0000
  H   H45       1.0  0.6140506397838263  0.44831722163015547  0.775739481463084  1.0000
  H   H46       1.0  0.8859494082147206  0.4483165566707967  0.22426003546442527  1.0000
  H   H47       1.0  0.8859493943499854  0.5516830611948151  0.7757389350596069  1.0000
  H   H48       1.0  0.6140499971912803  0.5516824465998482  0.2242600509093435  1.0000
  H   H49       1.0  0.13371970270164008  0.31410727007969547  0.5140104176533596  1.0000
  H   H50       1.0  0.3662806938144668  0.31410724451946254  0.48599074487959354  1.0000
  H   H51       1.0  0.1337196589363572  0.6858930477512288  0.4859896775023669  1.0000
  H   H52       1.0  0.36628064987916525  0.6858930302338923  0.514009909861997  1.0000
  H   H53       1.0  0.3662800386840601  0.5140104952014112  0.3141075563023391  1.0000
  H   H54       1.0  0.133719678602553  0.5140105700990888  0.6858925423534286  1.0000
  H   H55       1.0  0.13371968303538745  0.48599030836017915  0.31410699217346405  1.0000
  H   H56       1.0  0.36628067293528227  0.4859897795518364  0.6858919771814269  1.0000
  H   H57       1.0  0.8662804915347594  0.6858929799045941  0.485990236488483  1.0000
  H   H58       1.0  0.6337201324962224  0.6858930054647703  0.5140099092622561  1.0000
  H   H59       1.0  0.8662799032257524  0.31410720223295396  0.5140098553816654  1.0000
  H   H60       1.0  0.6337195443572412  0.3141072197503121  0.48599018365094054  1.0000
  H   H61       1.0  0.6337195234780493  0.4859897547827714  0.6858919765816862  1.0000
  H   H62       1.0  0.8662798835595564  0.48598967988517944  0.31410755115950906  1.0000
  H   H63       1.0  0.8662805112009547  0.5140105022522903  0.6858919800817345  1.0000
  H   H64       1.0  0.633719521301188  0.5140099098037892  0.3141069950736082  1.0000
  H   H65       1.0  0.07592535038816807  0.3874884216382881  0.0389508701660333  1.0000
  H   H66       1.0  0.42407502881804493  0.3874885217343973  0.9610486315436827  1.0000
  H   H67       1.0  0.0759253210502209  0.6125113462694783  0.9610486646199161  1.0000
  H   H68       1.0  0.42407500507527357  0.6125117423134584  0.0389509016808702  1.0000
  H   H69       1.0  0.4240750716664365  0.0389513576295926  0.38748876654413766  1.0000
  H   H70       1.0  0.07592538975622887  0.0389514221691698  0.612511195749711  1.0000
  H   H71       1.0  0.07592528168216009  0.9610483457385971  0.3874883390362384  1.0000
  H   H72       1.0  0.4240749622269389  0.9610483457899266  0.6125113273092493  1.0000
  H   H73       1.0  0.9240748438482383  0.6125118283457596  0.9610481020890872  1.0000
  H   H74       1.0  0.5759251654183543  0.6125117282498067  0.038951461969254794  1.0000
  H   H75       1.0  0.9240748731862497  0.3874883430862256  0.038950868264031185  1.0000
  H   H76       1.0  0.5759251891611329  0.3874885076706747  0.9610486312031551  1.0000
  H   H77       1.0  0.575925122569963  0.961048892354697  0.612511887597712  1.0000
  H   H78       1.0  0.9240748044801704  0.961048827814956  0.38748833713432157  1.0000
  H   H79       1.0  0.9240749125543103  0.03895134361711431  0.6125111938477088  1.0000
  H   H80       1.0  0.5759252320095241  0.0389513435657847  0.3874882055746979  1.0000
  H   H81       1.0  0.1319296710471818  0.3036027043298901  0.0177103105187157  1.0000
  H   H82       1.0  0.36807009587254663  0.30360282089674945  0.9822891671122773  1.0000
  H   H83       1.0  0.13192962179247295  0.6963976138325306  0.9822892240161276  1.0000
  H   H84       1.0  0.36807005247084845  0.6963974535250655  0.017710926992371895  1.0000
  H   H85       1.0  0.3680701316512014  0.0177108218678086  0.3036029811974642  1.0000
  H   H86       1.0  0.13193033478189878  0.0177109001122204  0.6963969749994516  1.0000
  H   H87       1.0  0.1319295901321169  0.9822888574217147  0.3036025595353137  1.0000
  H   H88       1.0  0.36807001669225775  0.9822888919256771  0.6963976735360119  1.0000
  H   H89       1.0  0.8680705231892815  0.696396985025821  0.9822892223652316  1.0000
  H   H90       1.0  0.6319294662895627  0.6963974290874334  0.017710365771755197  1.0000
  H   H91       1.0  0.8680705724439265  0.30360263615168054  0.017710869496809795  1.0000
  H   H92       1.0  0.631929509691261  0.3036027964591952  0.9822891665205656  1.0000
  H   H93       1.0  0.6319294305109082  0.9822894281164597  0.6963971123154735  1.0000
  H   H94       1.0  0.8680704915288614  0.9822887892434268  0.30360255788449547  1.0000
  H   H95       1.0  0.8680706041043464  0.017710831933989396  0.6963969733486335  1.0000
  H   H96       1.0  0.6319295454699158  0.017710797430169102  0.3036024199768477  1.0000
  H   H97       1.0  0.24707529673241171  0.12750263672238293  0.4148306515510639  1.0000
  H   H98       1.0  0.2529251438018889  0.12750266062783314  0.5851698967896153  1.0000
  H   H99       1.0  0.24707520834712673  0.8724976601115062  0.5851694430962552  1.0000
  H   H100      1.0  0.25292505645020913  0.8724976351224782  0.4148301978314634  1.0000
  H   H101      1.0  0.2529257433758474  0.4148302659471882  0.12750220989928346  1.0000
  H   H102      1.0  0.2470746293806911  0.41483037341144074  0.8724972996586896  1.0000
  H   H103      1.0  0.24707461155026073  0.5851699234224839  0.1275022343597172  1.0000
  H   H104      1.0  0.25292572102490135  0.5851694691745025  0.872497324092812  1.0000
  H   H105      1.0  0.7529255295782136  0.8724981738901861  0.5851694419619519  1.0000
  H   H106      1.0  0.7470750504345177  0.8724975893563709  0.41483019672332216  1.0000
  H   H107      1.0  0.7529249858893435  0.12750202924420512  0.4148300897876922  1.0000
  H   H108      1.0  0.7470745057119643  0.12750205423328964  0.5851693350524839  1.0000
  H   H109      1.0  0.747074450860616  0.5851694234085159  0.8724973229846638  1.0000
  H   H110      1.0  0.7529255648557792  0.5851693159442634  0.12750223322525758  1.0000
  H   H111      1.0  0.7529255826860746  0.41483088719006395  0.8724972985243864  1.0000
  H   H112      1.0  0.747075105285795  0.41483078080956665  0.12750220879122046  1.0000
  H   H113      1.0  0.16473750864968648  0.11028911868167773  0.47969541405811345  1.0000
  H   H114      1.0  0.3352623038708201  0.11028910871664983  0.5203045687126533  1.0000
  H   H115      1.0  0.16473741659749658  0.8897111934036913  0.5203041203295837  1.0000
  H   H116      1.0  0.3352622120650465  0.889711171782217  0.47969552553914224  1.0000
  H   H117      1.0  0.3352628936194222  0.47969552455383285  0.11028922962540118  1.0000
  H   H118      1.0  0.16473746383604043  0.4796956522104594  0.8897108591805318  1.0000
  H   H119      1.0  0.1647374614111428  0.5203046598749096  0.11028867520716547  1.0000
  H   H120      1.0  0.33526225439080537  0.5203041953165551  0.889710864626309  1.0000
  H   H121      1.0  0.8352626855867129  0.8897111313024483  0.5203041188259119  1.0000
  H   H122      1.0  0.6647378903655791  0.8897111412675612  0.4796955248002844  1.0000
  H   H123      1.0  0.8352627776389097  0.11028905658043443  0.4796954125544415  1.0000
  H   H124      1.0  0.6647379821713598  0.1102890782019088  0.520304007344883  1.0000
  H   H125      1.0  0.6647373006169772  0.5203047254303712  0.8897108638875292  1.0000
  H   H126      1.0  0.8352627304004228  0.52030403714533  0.11028923433232048  1.0000
  H   H127      1.0  0.8352627328252638  0.479695590109138  0.8897102970479549  1.0000
  H   H128      1.0  0.6647379398456649  0.47969549403915585  0.11028866825763828  1.0000
  H   H129      1.0  0.13210286272938276  0.2720937237573295  0.14643462794777654  1.0000
  H   H130      1.0  0.3678975436972962  0.2720938034070386  0.8535654012677226  1.0000
  H   H131      1.0  0.13210217474887997  0.7279060337446525  0.8535649065862143  1.0000
  H   H132      1.0  0.36789749208191574  0.7279059104183291  0.14643469283762298  1.0000
  H   H133      1.0  0.36789756028228726  0.14643502675512116  0.2720939730894614  1.0000
  H   H134      1.0  0.13210287578603896  0.14643511401197884  0.7279060200567142  1.0000
  H   H135      1.0  0.1321027937664496  0.8535652041184322  0.2720940751062598  1.0000
  H   H136      1.0  0.3678974754969246  0.8535646870702467  0.7279061210158841  1.0000
  H   H137      1.0  0.8678973315070807  0.7279059655983816  0.8535649049361707  1.0000
  H   H138      1.0  0.6321026505391032  0.7279064465771726  0.1464346922452151  1.0000
  H   H139      1.0  0.8678980194875906  0.2720936556110587  0.14643462629773293  1.0000
  H   H140      1.0  0.6321020700801938  0.27209433956593904  0.8535654006753146  1.0000
  H   H141      1.0  0.6321026339541119  0.8535652232290047  0.7279055597945712  1.0000
  H   H142      1.0  0.8678973184503603  0.8535651359722249  0.2720940734562234  1.0000
  H   H143      1.0  0.8678974004700138  0.1464344852373571  0.7279060184065924  1.0000
  H   H144      1.0  0.6321027187395458  0.14643500228554276  0.27209397249696815  1.0000
  H   H145      1.0  0.07434959258154811  0.3553156570384389  0.1666912837681167  1.0000
  H   H146      1.0  0.42565079421390095  0.3553157201759163  0.8333087693355664  1.0000
  H   H147      1.0  0.0743489243551849  0.6446841111613468  0.8333088116538077  1.0000
  H   H148      1.0  0.42565076210676983  0.6446845435801336  0.16669132451082896  1.0000
  H   H149      1.0  0.42565081791145337  0.16669109875601149  0.3553159736624351  1.0000
  H   H150      1.0  0.07434898130437517  0.1666911728224747  0.6446840252980833  1.0000
  H   H151      1.0  0.0743495356323649  0.8333085953772327  0.3553155094949361  1.0000
  H   H152      1.0  0.4256507384092813  0.8333086043716239  0.6446841201838822  1.0000
  H   H153      1.0  0.9256506016548512  0.6446845929457654  0.8333088097448209  1.0000
  H   H154      1.0  0.5743494000224983  0.6446845298082878  0.16669132417737123  1.0000
  H   H155      1.0  0.9256506378069884  0.35531557819449944  0.1666912818590518  1.0000
  H   H156      1.0  0.5743488000553398  0.35531570640412724  0.8333087690021086  1.0000
  H   H157      1.0  0.57434937632501  0.8333085905997778  0.6446841198504245  1.0000
  H   H158      1.0  0.9256512129320951  0.8333085165333147  0.35531606821477607  1.0000
  H   H159      1.0  0.9256506586041056  0.16669109397847856  0.6446840233890112  1.0000
  H   H160      1.0  0.5743494558271891  0.1666910849840875  0.35531541270006517  1.0000
  H   H161      1.0  0.23791651673043648  0.3265834714404434  0.4176854025494662  1.0000
  H   H162      1.0  0.2620838768427305  0.3265829322015534  0.582315202935703  1.0000
  H   H163      1.0  0.23791584324937526  0.6734168270900796  0.5823152527678415  1.0000
  H   H164      1.0  0.2620838364348684  0.6734168012238444  0.41768489164422806  1.0000
  H   H165      1.0  0.2620838668735671  0.417685013580659  0.32658321782740524  1.0000
  H   H166      1.0  0.23791587313527876  0.41768506559670027  0.6734157319210892  1.0000
  H   H167      1.0  0.23791522269594617  0.5823152329337731  0.3265838021384084  1.0000
  H   H168      1.0  0.2620844784782577  0.5823152804730254  0.673416316123692  1.0000
  H   H169      1.0  0.7620843095802596  0.673416778543704  0.5823146909634713  1.0000
  H   H170      1.0  0.7379163173937396  0.6734167571542288  0.4176848905771563  1.0000
  H   H171      1.0  0.7620837189127981  0.32658286226576644  0.41768484074501083  1.0000
  H   H172      1.0  0.7379157257272408  0.3265834487603385  0.5823146412398044  1.0000
  H   H173      1.0  0.7379156952885423  0.5823152364034458  0.6734157544277152  1.0000
  H   H174      1.0  0.7620836890268307  0.5823151843874043  0.32658324033403113  1.0000
  H   H175      1.0  0.7620843394661634  0.4176850170504168  0.6734157307456243  1.0000
  H   H176      1.0  0.7379157157581416  0.4176849695111855  0.32658377738924566  1.0000
  H   H177      1.0  0.2715858596992574  0.24736105891009427  0.3652335109892774  1.0000
  H   H178      1.0  0.2284145525615529  0.24736166222055542  0.6347670717558883  1.0000
  H   H179      1.0  0.27158516721220843  0.7526386727553742  0.6347671441769405  1.0000
  H   H180      1.0  0.22841449378438478  0.7526386380698895  0.3652330229751256  1.0000
  H   H181      1.0  0.22841453983449608  0.365233731707349  0.2473612998467799  1.0000
  H   H182      1.0  0.2715845804728545  0.3652332395984815  0.7526381954748229  1.0000
  H   H183      1.0  0.2715851822899537  0.6347670526953665  0.2473613384336558  1.0000
  H   H184      1.0  0.22841513858573848  0.6347665685829611  0.7526382342553288  1.0000
  H   H185      1.0  0.7284149666115026  0.7526386304457162  0.6347671431524873  1.0000
  H   H186      1.0  0.7715856416747753  0.7526391483920706  0.36523302175712746  1.0000
  H   H187      1.0  0.728414394949965  0.24736101660047177  0.36523294933591893  1.0000
  H   H188      1.0  0.7715850683777885  0.2473610512859566  0.6347670705377338  1.0000
  H   H189      1.0  0.7715850223275423  0.6347670789052557  0.7526382330373309  1.0000
  H   H190      1.0  0.7284149816893192  0.6347664497572864  0.24736133740912428  1.0000
  H   H191      1.0  0.7284150119464455  0.3652331972887596  0.7526381944503696  1.0000
  H   H192      1.0  0.771585055650732  0.36523312077275  0.24736129862861833  1.0000
  C   C1        1.0  0.9999999748259326  0.2129799357838849  0.0178426062308716  1.0000
  C   C2        1.0  0.5000004455451047  0.2129800278751617  0.9821568453875781  1.0000
  C   C3        1.0  0.9999999041950713  0.7870198461877467  0.9821574895245173  1.0000
  C   C4        1.0  0.4999997486912946  0.7870202221089643  0.017842687496447195  1.0000
  C   C5        1.0  0.4999998388198322  0.0178436655779706  0.21297956026627668  1.0000
  C   C6        1.0  0.9999999955076289  0.0178437942727072  0.7870203959687812  1.0000
  C   C7        1.0  0.9999995666545444  0.9821558950831389  0.21297969754407828  1.0000
  C   C8        1.0  0.4999997233423414  0.9821560237778755  0.7870205332465827  1.0000
  C   C9        1.0  0.9999999771110809  0.19144733150816517  0.10173230996664978  1.0000
  C   C10       1.0  0.49999981626493195  0.1914479601482243  0.8982682567289327  1.0000
  C   C11       1.0  0.9999999019099236  0.8085524504635516  0.8982683464176442  1.0000
  C   C12       1.0  0.4999997458971777  0.8085522898360367  0.10173183678400477  1.0000
  C   C13       1.0  0.4999998289909938  0.10173161407447398  0.1914480584197307  1.0000
  C   C14       1.0  0.9999999855481292  0.10173174894973872  0.8085524825236018  1.0000
  C   C15       1.0  2.0868827019999999e-07  0.8982685010344725  0.19144761098933566  1.0000
  C   C16       1.0  0.49999973317117946  0.8982680752814503  0.8085525957220339  1.0000
  C   C17       1.0  0.1629594659073277  0.25962652062580827  0.5262209074107459  1.0000
  C   C18       1.0  0.3370403113859623  0.25962649697675744  0.47377967885503836  1.0000
  C   C19       1.0  0.1629594093646674  0.740373791788905  0.4737786269849309  1.0000
  C   C20       1.0  0.33704025452509256  0.7403737831929222  0.5262215366466021  1.0000
  C   C21       1.0  0.33704028059212726  0.5262215376837676  0.2596262013545924  1.0000
  C   C22       1.0  0.16295943381401656  0.5262216228036536  0.7403733401773562  1.0000
  C   C23       1.0  0.1629594414579713  0.4737786896110663  0.2596261942183203  1.0000
  C   C24       1.0  0.3370402853189347  0.47377874248567764  0.7403733322603185  1.0000
  C   C25       1.0  0.8370407283290787  0.7403737293583958  0.4737791861021916  1.0000
  C   C26       1.0  0.6629598828504298  0.740373753007525  0.5262209752868114  1.0000
  C   C27       1.0  0.8370407848718031  0.2596258975667994  0.5262209058990164  1.0000
  C   C28       1.0  0.6629593076370172  0.2596264667913459  0.47377855686633547  1.0000
  C   C29       1.0  0.6629592815699821  0.47377871230042257  0.7403733315294401  1.0000
  C   C30       1.0  0.837040128348093  0.47377862718052915  0.2596261927066763  1.0000
  C   C31       1.0  0.8370407527784991  0.526220999744645  0.7403733386656268  1.0000
  C   C32       1.0  0.6629592768431749  0.5262215074985124  0.2596262006237068  1.0000
  C   C33       1.0  0.076453139604844  0.3263945014017082  0.04689889744212648  1.0000
  C   C34       1.0  0.42354725401274607  0.3263951599427415  0.9531017079889633  1.0000
  C   C35       1.0  0.0764524638293764  0.673605266408437  0.9531011979703619  1.0000
  C   C36       1.0  0.4235472158104301  0.6736051042029487  0.04689838586686789  1.0000
  C   C37       1.0  0.42354728887942616  0.046898256749052805  0.3263947929361493  1.0000
  C   C38       1.0  0.07645317066857156  0.046898899355817  0.6736051716388757  1.0000
  C   C39       1.0  0.07645306483988182  0.9531014290826934  0.326394923773698  1.0000
  C   C40       1.0  0.42354718094388477  0.9531008861398009  0.673605300919526  1.0000
  C   C41       1.0  0.9235464225573223  0.6736051879541379  0.9531011960707331  1.0000
  C   C42       1.0  0.5764529402236533  0.6736050900414625  0.04689838552397419  1.0000
  C   C43       1.0  0.9235470983327899  0.3263944229474092  0.046898895542497585  1.0000
  C   C44       1.0  0.5764523463516794  0.3263951457813121  0.9531017076460696  1.0000
  C   C45       1.0  0.576452905357037  0.9531014326067366  0.6736053005767103  1.0000
  C   C46       1.0  0.9235470235678276  0.9531013506283943  0.32639492187406194  1.0000
  C   C47       1.0  0.9235477614708146  0.04689882090146111  0.6736051697392397  1.0000
  C   C48       1.0  0.5764530132925856  0.046898803215981416  0.3263947925933336  1.0000
  C   C49       1.0  0.2186022435838666  0.14691552718728224  0.4675359387826317  1.0000
  C   C50       1.0  0.2813981923710571  0.14691609131842404  0.5324646151304433  1.0000
  C   C51       1.0  0.2186015280234699  0.8530842142923517  0.5324641559923151  1.0000
  C   C52       1.0  0.2813981092790101  0.8530841991577776  0.4675354793629365  1.0000
  C   C53       1.0  0.28139878779954586  0.4675360650202053  0.14691567526713809  1.0000
  C   C54       1.0  0.21860157252427825  0.4675356115576789  0.8530838494195334  1.0000
  C   C55       1.0  0.21860156700869743  0.5324646905503557  0.1469156847265864  1.0000
  C   C56       1.0  0.2813981459248183  0.5324642254558543  0.8530838585973298  1.0000
  C   C57       1.0  0.7813985827268936  0.8530841621684432  0.5324641547302277  1.0000
  C   C58       1.0  0.7186020018653422  0.8530841586658582  0.4675360390113993  1.0000
  C   C59       1.0  0.7813980341387037  0.14691547506349423  0.46753593752054445  1.0000
  C   C60       1.0  0.7186020849574603  0.14691549019793376  0.5324640535210107  1.0000
  C   C61       1.0  0.7186014064367896  0.5324647455922573  0.8530832969880604  1.0000
  C   C62       1.0  0.7813986217121851  0.5324640777980321  0.14691568346441383  1.0000
  C   C63       1.0  0.7813979951533411  0.46753612006224904  0.8530838481575244  1.0000
  C   C64       1.0  0.718602048311588  0.46753602452827187  0.14691567428669566  1.0000
  C   C65       1.0  0.07620094420656902  0.3051988348567393  0.13098089694268106  1.0000
  C   C66       1.0  0.42379945441101086  0.3051983479590987  0.8690191417752897  1.0000
  C   C67       1.0  0.07620026394138787  0.6948014936285392  0.8690191984710223  1.0000
  C   C68       1.0  0.423799410698436  0.6948013555114657  0.13098095207932658  1.0000
  C   C69       1.0  0.42379947666972834  0.1309807433317829  0.3051991078335589  1.0000
  C   C70       1.0  0.07620096304411558  0.13098083144088687  0.6948008808765848  1.0000
  C   C71       1.0  0.07620024510390519  0.8690189364158912  0.3051986539081284  1.0000
  C   C72       1.0  0.4237993884397253  0.8690189601388597  0.6948015466499695  1.0000
  C   C73       1.0  0.9237992500298302  0.6948014151274648  0.8690191965702565  1.0000
  C   C74       1.0  0.5762007398254522  0.6948013413966124  0.13098039110865758  1.0000
  C   C75       1.0  0.9237992982207216  0.3051987563557291  0.1309808950419153  1.0000
  C   C76       1.0  0.5762007835379634  0.3051988944727455  0.869019141433611  1.0000
  C   C77       1.0  0.5762007175667421  0.8690189460240064  0.6948009856792934  1.0000
  C   C78       1.0  0.9237992311923547  0.8690188579149024  0.3051992126362748  1.0000
  C   C79       1.0  0.923799949132558  0.13098075293981992  0.694800878975819  1.0000
  C   C80       1.0  0.5762008057967377  0.13098072921700785  0.30519910749179496  1.0000
  C   C81       1.0  0.25868964528447685  0.26798042089454555  0.4221513639826923  1.0000
  C   C82       1.0  0.24131076211243396  0.2679810054784966  0.5778497853100005  1.0000
  C   C83       1.0  0.258688958006708  0.7320193131596398  0.5778487306124587  1.0000
  C   C84       1.0  0.24131133992801776  0.732019853051604  0.42215086999215856  1.0000
  C   C85       1.0  0.24131074486897564  0.4221509730793756  0.2679806786376559  1.0000
  C   C86       1.0  0.2586883620121013  0.4221510380690959  0.7320188330216622  1.0000
  C   C87       1.0  0.25868897713043276  0.5778492566135398  0.267980700944662  1.0000
  C   C88       1.0  0.24131135717154706  0.5778493248221467  0.7320188554066076  1.0000
  C   C89       1.0  0.7413118131005731  0.7320192684612082  0.5778492901590724  1.0000
  C   C90       1.0  0.7586894321239015  0.7320198051342146  0.4221508688319204  1.0000
  C   C91       1.0  0.7413112362297625  0.26798037619607135  0.4221508022714885  1.0000
  C   C92       1.0  0.7586882222340918  0.2679803969325789  0.5778486628918742  1.0000
  C   C93       1.0  0.7586888172931978  0.5778487162763922  0.7320188542462914  1.0000
  C   C94       1.0  0.7413112001500722  0.5778486512866718  0.2679806998622851  1.0000
  C   C95       1.0  0.7413112171059737  0.422150993370586  0.7320188319393706  1.0000
  C   C96       1.0  0.7586888370648595  0.4221509251619793  0.26798067747741766  1.0000
  I   I1        1.0  0.9999996688618537  0.1089457744161351  0.4712282335767809  1.0000
  I   I2        1.0  0.5000004591910497  0.10894526835416232  0.5287711859368898  1.0000
  I   I3        1.0  0.999999576441354  0.8910549435806845  0.5287712970648002  1.0000
  I   I4        1.0  0.4999997350454208  0.8910544210016271  0.47122890757596264  1.0000
  I   I5        1.0  0.49999978566105335  0.4712277774637458  0.10894596117427108  1.0000
  I   I6        1.0  0.9999989927843769  0.47122840403325483  0.8910546835875406  1.0000
  I   I7        1.0  0.9999996204446686  0.528771192706863  0.10894540768278917  1.0000
  I   I8        1.0  0.500000408575545  0.5287707906352849  0.8910546929673371  1.0000
  I   I9        1.0  0.15026237140298085  0.1485256289360777  0.26268886329703617  1.0000
  I   I10       1.0  0.34973616794918877  0.1485267998366098  0.7373105698204794  1.0000
  I   I11       1.0  0.1502629191279823  0.8514741252021523  0.7373112317844102  1.0000
  I   I12       1.0  0.34973798270295475  0.8514734779811449  0.2626900849953059  1.0000
  I   I13       1.0  0.3497361562705094  0.26269028343008927  0.14852745382813026  1.0000
  I   I14       1.0  0.15026298822576217  0.26269040279167655  0.8514720120592825  1.0000
  I   I15       1.0  0.1502616702307833  0.7373104726032055  0.14852640113559795  1.0000
  I   I16       1.0  0.3497373623073442  0.737309994387644  0.851472640358743  1.0000
  I   I17       1.0  0.8497378228334894  0.8514740604196335  0.737310669586911  1.0000
  I   I18       1.0  0.6502621300642698  0.8514740107761157  0.2626889630636313  1.0000
  I   I19       1.0  0.8497379071827778  0.14852556415358012  0.2626888617284421  1.0000
  I   I20       1.0  0.6502609473848578  0.14852677200318  0.7373100085176316  1.0000
  I   I21       1.0  0.6502627738173031  0.7373099665542355  0.8514726396848074  1.0000
  I   I22       1.0  0.8497372060106442  0.7373098471924493  0.14852752082474296  1.0000
  I   I23       1.0  0.8497366277828035  0.26268921675267626  0.8514731317483493  1.0000
  I   I24       1.0  0.6502621998548361  0.2626896949681239  0.14852689252520423  1.0000
  I   I25       1.0  0.9999996416004533  0.3429195442136929  0.3609267717900763  1.0000
  I   I26       1.0  0.49999979918598564  0.3429196304412586  0.639072154255075  1.0000
  I   I27       1.0  0.9999996037028891  0.6570800525262045  0.6390721982224361  1.0000
  I   I28       1.0  0.4999997629761239  0.6570806195428459  0.36092681800004556  1.0000
  I   I29       1.0  0.500001062109142  0.3609275333826432  0.3429193749327765  1.0000
  I   I30       1.0  0.9999996385779183  0.3609280927919869  0.6570806775393121  1.0000
  I   I31       1.0  1.1877327139999995e-06  0.6390727178205752  0.34291941597370357  1.0000
  I   I32       1.0  0.49999976420161824  0.639072155972926  0.6570795973222656  1.0000
  N   N1        1.0  0.9999999688830884  0.2599796775557337  0.14950463041210327  1.0000
  N   N2        1.0  0.49999980832688357  0.2599797318546494  0.8504953953261489  1.0000
  N   N3        1.0  5.422122057999997e-07  0.7400201044159191  0.850496025972191  1.0000
  N   N4        1.0  0.49999975383529016  0.7400199575011969  0.14950469818671044  1.0000
  N   N5        1.0  0.49999982314856334  0.14950389274716264  0.2599799037639555  1.0000
  N   N6        1.0  0.9999999801214867  0.1495045685792604  0.7400200902632006  1.0000
  N   N7        1.0  0.9999998988995171  0.850495213392371  0.25998000549218847  1.0000
  N   N8        1.0  0.5000003710878999  0.8504957966086268  0.7400201897489038  1.0000
  N   N9        1.0  5.971508017e-07  0.2958643612524838  0.0091461424872179  1.0000
  N   N10       1.0  0.4999998036686789  0.29586389521194434  0.9908550148091846  1.0000
  N   N11       1.0  0.9999999139443646  0.7041365419760127  0.9908545138972324  1.0000
  N   N12       1.0  0.49999975849342343  0.704136354772402  0.009145639332658096  1.0000
  N   N13       1.0  0.5000004716685638  0.0091455275533932  0.2958646188388059  1.0000
  N   N14       1.0  6.288592971000002e-07  0.009145632456650798  0.7041353348995114  1.0000
  N   N15       1.0  5.143102299999997e-07  0.9908547101432036  0.29586420022703647  1.0000
  N   N16       1.0  0.4999997225679066  0.9908541618024815  0.7041360353029587  1.0000
  N   N17       1.0  0.18677160514980784  0.2243299033526611  0.4534921957894723  1.0000
  N   N18       1.0  0.3132281804696646  0.22432934436212554  0.5465083803446189  1.0000
  N   N19       1.0  0.18677153983964703  0.7756709652798008  0.5465078991283929  1.0000
  N   N20       1.0  0.3132281157238594  0.7756709402181555  0.45349171400599886  1.0000
  N   N21       1.0  0.31322815441850343  0.45349233128771255  0.22432955547633068  1.0000
  N   N22       1.0  0.18677157714374457  0.4534924221285337  0.7756705258081878  1.0000
  N   N23       1.0  0.18677219992000718  0.5465084465037864  0.22432900848077245  1.0000
  N   N24       1.0  0.3132287738493175  0.5465079532925047  0.775670538874287  1.0000
  N   N25       1.0  0.8132279570122947  0.775670346631685  0.5465084583523774  1.0000
  N   N26       1.0  0.6867720137667986  0.7756703449936638  0.4534917131682333  1.0000
  N   N27       1.0  0.8132280223223987  0.22432984533280373  0.4534916337557177  1.0000
  N   N28       1.0  0.6867714464382502  0.22432930976611226  0.5465083795069389  1.0000
  N   N29       1.0  0.6867714077435423  0.546508479324892  0.77566997740778  1.0000
  N   N30       1.0  0.8132279850184216  0.5465072672273977  0.22433012833358382  1.0000
  N   N31       1.0  0.8132279943163994  0.4534918034802615  0.7756699637743479  1.0000
  N   N32       1.0  0.6867720524614425  0.4534917360632205  0.22432955463857232  1.0000
