data_image0
_chemical_formula_structural       Rb4Na2H10C12O14
_chemical_formula_sum              "Rb4 Na2 H10 C12 O14"
_cell_length_a       5.613358545938647
_cell_length_b       7.855645012051151
_cell_length_c       11.597476080016824
_cell_angle_alpha    82.55701453842948
_cell_angle_beta     89.42723314032112
_cell_angle_gamma    84.07716330630663

_space_group_name_H-M_alt    "P 1"
_space_group_IT_number       1

loop_
  _space_group_symop_operation_xyz
  'x, y, z'

loop_
  _atom_site_type_symbol
  _atom_site_label
  _atom_site_symmetry_multiplicity
  _atom_site_fract_x
  _atom_site_fract_y
  _atom_site_fract_z
  _atom_site_occupancy
  Rb  Rb1       1.0  0.7400732519893723  0.46287089752669175  0.13171148853135148  1.0000
  Rb  Rb2       1.0  0.25994961196455796  0.5371215407423976  0.8682887284344291  1.0000
  Rb  Rb3       1.0  0.7548449055767819  0.6400107380885205  0.41095356968146035  1.0000
  Rb  Rb4       1.0  0.24512622331814538  0.3599948146715804  0.5890372400213124  1.0000
  Na  Na1       1.0  0.7618573983846558  0.1282262896651005  0.40053179934075445  1.0000
  Na  Na2       1.0  0.23814852711090853  0.8717726446699247  0.5994671173190724  1.0000
  H   H1        1.0  0.23910009848161448  0.009177791994723301  0.0421398491632559  1.0000
  H   H2        1.0  0.7608981710284229  0.9908250068786021  0.9578605177050151  1.0000
  H   H3        1.0  0.45627524503721884  0.8918689944442378  0.1397765925975989  1.0000
  H   H4        1.0  0.5437262117082684  0.1081364215272913  0.8602200916271058  1.0000
  H   H5        1.0  0.22522956739948094  0.2954237796111769  0.12498301930065028  1.0000
  H   H6        1.0  0.7747699329352856  0.704582919741732  0.8750144327585261  1.0000
  H   H7        1.0  0.4884922401284514  0.1790468189318091  0.1889490923483521  1.0000
  H   H8        1.0  0.5115005182467558  0.8209572489463783  0.8110537883613985  1.0000
  H   H9        1.0  0.8651009209587882  0.9773215026826352  0.19189190727571767  1.0000
  H   H10       1.0  0.13490678189882743  0.022677438840645398  0.8081061363806015  1.0000
  C   C1        1.0  0.12933086978140554  0.772423077246252  0.1256871530738835  1.0000
  C   C2        1.0  0.870673452705127  0.22757457012208704  0.8743118786092623  1.0000
  C   C3        1.0  0.26395014772131736  0.9320047272296251  0.12853205450454644  1.0000
  C   C4        1.0  0.7360500828950907  0.0679967774711017  0.8714684076784919  1.0000
  C   C5        1.0  0.17380113485798182  0.048654148545459505  0.22101932262963686  1.0000
  C   C6        1.0  0.8262064077335721  0.9513460403826316  0.7789820684545673  1.0000
  C   C7        1.0  0.29811100196875634  0.21514043960724652  0.2041189065380706  1.0000
  C   C8        1.0  0.7018833406328682  0.7848649584024516  0.7958804065514399  1.0000
  C   C9        1.0  0.2712579517484599  0.3216365656338951  0.3066651230267112  1.0000
  C   C10       1.0  0.7287331942264075  0.6783662368600076  0.6933361464078871  1.0000
  C   C11       1.0  0.24312237092023287  0.9513972831701027  0.3438575615039241  1.0000
  C   C12       1.0  0.7568889195310576  0.0486015971912508  0.6561447781900043  1.0000
  O   O1        1.0  0.9074388344978959  0.7840230175942864  0.15506713629966376  1.0000
  O   O2        1.0  0.09256206535667393  0.21597343273996467  0.8449251150672268  1.0000
  O   O3        1.0  0.23972578269814454  0.6394934348293759  0.09117758901915347  1.0000
  O   O4        1.0  0.7602842722327666  0.36050155584359095  0.9088268023346303  1.0000
  O   O5        1.0  0.46104684087542586  0.3714260497720119  0.3456830732953406  1.0000
  O   O6        1.0  0.5389405525440553  0.6285780720798402  0.6543163843803085  1.0000
  O   O7        1.0  0.06265082226387621  0.3525949583983917  0.3477160015409027  1.0000
  O   O8        1.0  0.9373392672392811  0.6474026638374895  0.6522874247226014  1.0000
  O   O9        1.0  0.08117970203281999  0.8870729258005812  0.40740187118414883  1.0000
  O   O10       1.0  0.9188292306872441  0.11291703569126102  0.5925925929092983  1.0000
  O   O11       1.0  0.4619308677506454  0.943350502968137  0.3725712687213871  1.0000
  O   O12       1.0  0.5380758171627704  0.056656052478494714  0.6274365017114647  1.0000
  O   O13       1.0  0.9197655016713995  0.09071077081081572  0.2083844201881178  1.0000
  O   O14       1.0  0.08024078661716771  0.9092855715937205  0.7916155699590206  1.0000
