data_image0
_chemical_formula_structural       Ni2H64C88N12O12
_chemical_formula_sum              "Ni2 H64 C88 N12 O12"
_cell_length_a       12.876240271564233
_cell_length_b       17.040246908738737
_cell_length_c       17.04027369611347
_cell_angle_alpha    69.63891147141733
_cell_angle_beta     73.41791721388148
_cell_angle_gamma    73.41665239497165

_space_group_name_H-M_alt    "P 1"
_space_group_IT_number       1

loop_
  _space_group_symop_operation_xyz
  'x, y, z'

loop_
  _atom_site_type_symbol
  _atom_site_label
  _atom_site_symmetry_multiplicity
  _atom_site_fract_x
  _atom_site_fract_y
  _atom_site_fract_z
  _atom_site_occupancy
  Ni  Ni1       1.0  0.7500021276709107  0.24301166757591372  0.7569859935110018  1.0000
  Ni  Ni2       1.0  0.25000382034931323  0.7569914049734765  0.2430082601379623  1.0000
  H   H1        1.0  0.700607092652504  0.22010860400710902  0.9384963662832106  1.0000
  H   H2        1.0  0.20060683717898803  0.9385051798705817  0.22010639800148374  1.0000
  H   H3        1.0  0.2993832890323631  0.7798984882960482  0.061499049481433574  1.0000
  H   H4        1.0  0.7994015790706754  0.061497132539812996  0.7798917283206421  1.0000
  H   H5        1.0  0.6953923740903036  0.09538585183093319  0.06919218749673212  1.0000
  H   H6        1.0  0.1954161947654143  0.0692025912377687  0.09538436179763471  1.0000
  H   H7        1.0  0.3046042299595443  0.9046249014636559  0.9308049339669965  1.0000
  H   H8        1.0  0.8046040387519111  0.9308032505379202  0.9046173523036601  1.0000
  H   H9        1.0  0.5853745954138602  0.9734490638456775  0.1406230869096916  1.0000
  H   H10       1.0  0.08539242296013327  0.1406312646033996  0.9734520659682531  1.0000
  H   H11       1.0  0.41463514961004927  0.026560886588150395  0.8593723063426567  1.0000
  H   H12       1.0  0.9146241113062386  0.8593758015571354  0.02655408702976562  1.0000
  H   H13       1.0  0.5830499844325631  0.8473374919333595  0.2645748225837394  1.0000
  H   H14       1.0  0.08304824146152613  0.2645806046666267  0.8473379093648319  1.0000
  H   H15       1.0  0.4169493712288102  0.1526695236142288  0.7354176849768878  1.0000
  H   H16       1.0  0.916952394778555  0.7354229658177758  0.15266603186283592  1.0000
  H   H17       1.0  0.5755581916111937  0.7073205005806926  0.3151311700057491  1.0000
  H   H18       1.0  0.07554764570435418  0.3151508882442684  0.7073166485653533  1.0000
  H   H19       1.0  0.42443771807531744  0.29267762581979184  0.6848648905711556  1.0000
  H   H20       1.0  0.9244461948473057  0.6848587420776228  0.29267609333876976  1.0000
  H   H21       1.0  0.5762087450660615  0.5791993966949179  0.44049035313553014  1.0000
  H   H22       1.0  0.0762109985121953  0.44050166799306834  0.5791876063862773  1.0000
  H   H23       1.0  0.42379672356397446  0.4207960548479476  0.5595052872429562  1.0000
  H   H24       1.0  0.9237931890364878  0.5595028345370139  0.42080065747862955  1.0000
  H   H25       1.0  0.858262307639734  0.3841512478667398  0.6960436674213001  1.0000
  H   H26       1.0  0.35828157383699016  0.6960384480549635  0.38414077877563824  1.0000
  H   H27       1.0  0.14173118125069809  0.6158676716002845  0.3039584671341513  1.0000
  H   H28       1.0  0.6417352073892745  0.30396000817937363  0.6158540206465375  1.0000
  H   H29       1.0  0.8635829906295385  0.514214104315279  0.5688686351382303  1.0000
  H   H30       1.0  0.36360412654573776  0.5688621253075612  0.5142014598894277  1.0000
  H   H31       1.0  0.1364082519531991  0.4858017996900871  0.4311284567847977  1.0000
  H   H32       1.0  0.6364052009211747  0.4311370681467963  0.4857939744394885  1.0000
  H   H33       1.0  0.6581838348695895  0.40284146108391644  0.799093999681837  1.0000
  H   H34       1.0  0.15820189430007767  0.7991035790445193  0.4028320190596163  1.0000
  H   H35       1.0  0.3418043128968834  0.597161870553265  0.20090130975962234  1.0000
  H   H36       1.0  0.8418090950101415  0.20089562204949368  0.5971619127426637  1.0000
  H   H37       1.0  0.47122228610785993  0.4772273341978207  0.8567235573862533  1.0000
  H   H38       1.0  0.9712401912597598  0.8567283391977797  0.47722428130263245  1.0000
  H   H39       1.0  0.5287684410353605  0.5227713825172275  0.1432780252307566  1.0000
  H   H40       1.0  0.028769013416273005  0.14326758631283804  0.522775758142764  1.0000
  H   H41       1.0  0.35194132024561503  0.25245610199311846  0.8894207239894882  1.0000
  H   H42       1.0  0.8519386842356909  0.8894296159521247  0.2524600147940247  1.0000
  H   H43       1.0  0.6480561654181258  0.7475387904974512  0.11057724902337902  1.0000
  H   H44       1.0  0.1480588073713847  0.11056770689829422  0.7475424549501994  1.0000
  H   H45       1.0  0.541251567801865  0.19088004104822434  0.8227295530492427  1.0000
  H   H46       1.0  0.04124975433258985  0.8227447141944211  0.1908795594378816  1.0000
  H   H47       1.0  0.4587470440522737  0.8091167383738807  0.17726817558674668  1.0000
  H   H48       1.0  0.9587512137281918  0.1772646997614373  0.8091177275582881  1.0000
  H   H49       1.0  0.32412757196546943  0.49473994869220667  0.9639738767490372  1.0000
  H   H50       1.0  0.8241334827305878  0.9639857644139128  0.49473573161766626  1.0000
  H   H51       1.0  0.675862181511363  0.5052712189245909  0.03600977346849976  1.0000
  H   H52       1.0  0.17587016828969843  0.0360301572976738  0.5052518765864207  1.0000
  H   H53       1.0  0.13552095372649828  0.5570364634698068  0.020582168967649674  1.0000
  H   H54       1.0  0.6355280979469597  0.020584739647716795  0.5570399973295608  1.0000
  H   H55       1.0  0.8644668983983691  0.44296891902126834  0.9794066626233118  1.0000
  H   H56       1.0  0.3644769272124366  0.9794143291308542  0.44296395393148896  1.0000
  H   H57       1.0  0.014553957766864328  0.4003632051240871  0.9273284597052723  1.0000
  H   H58       1.0  0.5145614012667039  0.9272789494066203  0.4004089939074405  1.0000
  H   H59       1.0  0.9854385567503458  0.5996095774567465  0.07269878389947582  1.0000
  H   H60       1.0  0.48544055102436107  0.07267048255202012  0.5996362903540557  1.0000
  H   H61       1.0  0.2031388863563138  0.342868811824566  0.8663927445335063  1.0000
  H   H62       1.0  0.7031501029650968  0.8663640774508538  0.3428986525742488  1.0000
  H   H63       1.0  0.7968495097317289  0.6571118459824631  0.13362512330584056  1.0000
  H   H64       1.0  0.29685468467970827  0.1336078720552365  0.6571288042363364  1.0000
  C   C1        1.0  0.7210138273572398  0.15489154911094974  0.9339685650320321  1.0000
  C   C2        1.0  0.22101849044366875  0.9339770793573194  0.15488877042824367  1.0000
  C   C3        1.0  0.27897883161679726  0.8451161546881635  0.06602620647979052  1.0000
  C   C4        1.0  0.7789868360575767  0.06602463093437189  0.8451101563330781  1.0000
  C   C5        1.0  0.7188517591187348  0.08482963557754894  0.006405665337233291  1.0000
  C   C6        1.0  0.2188641947801244  0.0064143817000968  0.0848296104361452  1.0000
  C   C7        1.0  0.2811482548566531  0.9151804405803432  0.9935910070746843  1.0000
  C   C8        1.0  0.7811474772498528  0.9935903235611576  0.9151723878718343  1.0000
  C   C9        1.0  0.7499968371367984  0.0015764606575813915  0.9984241958896972  1.0000
  C   C10       1.0  0.2500101507051227  0.9984308631978039  0.0015772854984560428  1.0000
  C   C11       1.0  0.7499981380364673  0.9259446028305192  0.07405654249760107  1.0000
  C   C12       1.0  0.2500132138163877  0.07406138168614257  0.9259451044229935  1.0000
  C   C13       1.0  0.6580136430336128  0.9211507783361768  0.1427309895120956  1.0000
  C   C14       1.0  0.15803092086198228  0.142737219138894  0.9211546500842546  1.0000
  C   C15       1.0  0.34198586069987863  0.07885240882244202  0.8572627283970462  1.0000
  C   C16       1.0  0.8419784674328599  0.8572700501905859  0.07884755289865798  1.0000
  C   C17       1.0  0.656965703655388  0.8488723320519966  0.21336698569842133  1.0000
  C   C18       1.0  0.1569582802478919  0.2133690629374314  0.848874275887198  1.0000
  C   C19       1.0  0.3430357880418669  0.15113201385072728  0.7866300778028121  1.0000
  C   C20       1.0  0.8430372354118629  0.7866302899301443  0.15112381361010557  1.0000
  C   C21       1.0  0.7500005595906599  0.7809807495194293  0.21901785848609734  1.0000
  C   C22       1.0  0.2499938169867661  0.21902306754498818  0.7809795962323209  1.0000
  C   C23       1.0  0.7500018518652711  0.7052935963010611  0.29470314237366313  1.0000
  C   C24       1.0  0.24999204444647202  0.2947121396464638  0.7052937852636847  1.0000
  C   C25       1.0  0.6522620977748588  0.6744966011503593  0.3377792191737471  1.0000
  C   C26       1.0  0.15225738419335497  0.33779046022161924  0.6744912219088377  1.0000
  C   C27       1.0  0.3477375296250075  0.32550031406236013  0.6622118074295003  1.0000
  C   C28       1.0  0.8477418427337893  0.6622108570223803  0.3255013940369195  1.0000
  C   C29       1.0  0.6528204719888322  0.6022526226753228  0.40825367122833006  1.0000
  C   C30       1.0  0.152820545313169  0.40826392648674664  0.6022410074710295  1.0000
  C   C31       1.0  0.3471776038395404  0.3977499700042486  0.5917393445933641  1.0000
  C   C32       1.0  0.8471777764698415  0.5917412681146957  0.3977487690817584  1.0000
  C   C33       1.0  0.7499982896061395  0.5600135466052124  0.4399881884418235  1.0000
  C   C34       1.0  0.2500014724712828  0.4399914972709453  0.5600072265076437  1.0000
  C   C35       1.0  0.8122906363142094  0.39724857926808005  0.646499992539134  1.0000
  C   C36       1.0  0.3123001437674731  0.6464994609448809  0.39724299297634497  1.0000
  C   C37       1.0  0.18771187636947673  0.6027639387091523  0.35349892281417544  1.0000
  C   C38       1.0  0.6877065672681083  0.35350599299588475  0.602757386448424  1.0000
  C   C39       1.0  0.8141505240684594  0.46897901444121  0.5757302011146166  1.0000
  C   C40       1.0  0.31417047679314436  0.5757244771938446  0.46896652892841934  1.0000
  C   C41       1.0  0.18584559326973965  0.531036833300675  0.4242659536901598  1.0000
  C   C42       1.0  0.6858405125170748  0.42427472390016874  0.5310274028738603  1.0000
  C   C43       1.0  0.7500002438006987  0.48455377339823974  0.515445302680412  1.0000
  C   C44       1.0  0.2500064553482133  0.5154468198228132  0.484546083281657  1.0000
  C   C45       1.0  0.5870575279669339  0.3732404927935562  0.8175518567136564  1.0000
  C   C46       1.0  0.08706256446278367  0.817562508968784  0.37323495484410785  1.0000
  C   C47       1.0  0.41293996326728427  0.6267607640224641  0.1824446420665068  1.0000
  C   C48       1.0  0.9129389517699806  0.18244260853243335  0.6267559821940125  1.0000
  C   C49       1.0  0.4824091348627277  0.4132698763962566  0.8515808077624314  1.0000
  C   C50       1.0  0.982423516869872  0.8515871721141153  0.4132667468208666  1.0000
  C   C51       1.0  0.5175781515032442  0.5867302494627467  0.14841688267410544  1.0000
  C   C52       1.0  0.017587644918208405  0.1484106441478659  0.5867322969843372  1.0000
  C   C53       1.0  0.3925194097309801  0.3723023444313397  0.8775529059305285  1.0000
  C   C54       1.0  0.8925252616903879  0.8775553617788316  0.37230399017338556  1.0000
  C   C55       1.0  0.6074731208816999  0.6276957270985976  0.12244794493048518  1.0000
  C   C56       1.0  0.10747779396765367  0.12244256145270782  0.6276960204186253  1.0000
  C   C57       1.0  0.4161952299178536  0.28953951271692796  0.8685010446834411  1.0000
  C   C58       1.0  0.9161966261479152  0.8685046338791267  0.2895421111314178  1.0000
  C   C59       1.0  0.5838013325122019  0.710455309968417  0.131500654977458  1.0000
  C   C60       1.0  0.08380428740113641  0.1314952005958645  0.7104588749061663  1.0000
  C   C61       1.0  0.5220188791013312  0.25347668875753737  0.8329970166662193  1.0000
  C   C62       1.0  0.02202504710894001  0.8330126273477847  0.2534714943123717  1.0000
  C   C63       1.0  0.4779734048109958  0.7465266487817106  0.16699513153558598  1.0000
  C   C64       1.0  0.9779773429136255  0.16699495072727188  0.7465219980398957  1.0000
  C   C65       1.0  0.2793557223081891  0.4122704114205647  0.9116574945996873  1.0000
  C   C66       1.0  0.7793647888191586  0.9116531632388816  0.41227830168582336  1.0000
  C   C67       1.0  0.720633318585989  0.5877258540978971  0.08834168888955672  1.0000
  C   C68       1.0  0.22064227412074186  0.08834073954958649  0.5877286841691929  1.0000
  C   C69       1.0  0.2567106584505296  0.474261464981211  0.9546616435387848  1.0000
  C   C70       1.0  0.7567180613032465  0.9546589130507145  0.47427008299972334  1.0000
  C   C71       1.0  0.7432804318677384  0.5257367572740108  0.045333568925549565  1.0000
  C   C72       1.0  0.24328467455053732  0.0453363554706314  0.5257355471689706  1.0000
  C   C73       1.0  0.14838887409370463  0.5087650000677828  0.9884812897774111  1.0000
  C   C74       1.0  0.648400132546506  0.9884771724748164  0.5087688238430063  1.0000
  C   C75       1.0  0.8515966641900333  0.4912358105675736  0.01151534718430005  1.0000
  C   C76       1.0  0.35160933691942386  0.011517434189158798  0.49123335222060405  1.0000
  C   C77       1.0  0.05768389047612741  0.4827279420066547  0.9811185474236197  1.0000
  C   C78       1.0  0.5576937781444684  0.9810970028659867  0.48274849275889414  1.0000
  C   C79       1.0  0.9423034400063557  0.5172611667511333  0.018890334365018226  1.0000
  C   C80       1.0  0.44231320699654464  0.018873074987887203  0.5172762033752889  1.0000
  C   C81       1.0  0.08090430800509549  0.4223949505732351  0.9359246875825775  1.0000
  C   C82       1.0  0.5809104288443337  0.9358885740934825  0.42242912338227956  1.0000
  C   C83       1.0  0.919084968318714  0.5775849922434517  0.06409617514880502  1.0000
  C   C84       1.0  0.4190907900347298  0.0640712183217715  0.5776064915610634  1.0000
  C   C85       1.0  0.18892278713349242  0.3882904143247573  0.9020599753882053  1.0000
  C   C86       1.0  0.6889311306110384  0.9020398108268708  0.3883114771523211  1.0000
  C   C87       1.0  0.8110667532344994  0.6116960775764824  0.09795108203326919  1.0000
  C   C88       1.0  0.31107619836711825  0.0979392992597212  0.6117055300955416  1.0000
  N   N1        1.0  0.6592424139933115  0.10037335192797771  0.6772856823868096  1.0000
  N   N2        1.0  0.1592428749424144  0.677293306831132  0.10036207865874747  1.0000
  N   N3        1.0  0.3407513530815792  0.8996322916400034  0.3227154107891366  1.0000
  N   N4        1.0  0.8407566223451113  0.3227130558916755  0.8996311996725126  1.0000
  N   N5        1.0  0.7500040951079328  0.14577530382334197  0.8542200796270836  1.0000
  N   N6        1.0  0.24999757514028428  0.8542284156487627  0.14577656449089457  1.0000
  N   N7        1.0  0.7500024912890736  0.3402660902365112  0.6597356221725832  1.0000
  N   N8        1.0  0.2500066013641559  0.659743229946862  0.34026010295983167  1.0000
  N   N9        1.0  0.6068584430510172  0.2948230794838408  0.8070364472986145  1.0000
  N   N10       1.0  0.10686390749494726  0.8070406818495571  0.2948251179623896  1.0000
  N   N11       1.0  0.39313745461905103  0.7051718581553814  0.19296064793311984  1.0000
  N   N12       1.0  0.8931408220228363  0.19296043778291513  0.7051723554481626  1.0000
  O   O1        1.0  0.582594616125121  0.06191161686025741  0.690563956020988  1.0000
  O   O2        1.0  0.08258831020812346  0.6905458933542052  0.06191500850551519  1.0000
  O   O3        1.0  0.41740202026788603  0.9380826685646895  0.30946139053124005  1.0000
  O   O4        1.0  0.9174024422163286  0.3094457270281411  0.9380923895764894  1.0000
  O   O5        1.0  0.7597436561673662  0.0653193670173522  0.6569505438430596  1.0000
  O   O6        1.0  0.25974410337501996  0.6569852090717633  0.06529338972528353  1.0000
  O   O7        1.0  0.24025002962311248  0.9346995292648472  0.3430245490530909  1.0000
  O   O8        1.0  0.7402537738187646  0.3430354046621815  0.9346867848179131  1.0000
  O   O9        1.0  0.6344311754082098  0.17618673955131212  0.6855661881093342  1.0000
  O   O10       1.0  0.13444149041215067  0.6855717848558102  0.176175139548171  1.0000
  O   O11       1.0  0.3655576491346936  0.8238196658932538  0.314432691106461  1.0000
  O   O12       1.0  0.8655691538125723  0.3144318578607185  0.8238185963657898  1.0000
