data_image0
_chemical_formula_structural       Zn2H28C40N8O8
_chemical_formula_sum              "Zn2 H28 C40 N8 O8"
_cell_length_a       7.450590272228907
_cell_length_b       9.603909979846714
_cell_length_c       13.400320445325796
_cell_angle_alpha    104.38074893671413
_cell_angle_beta     90.02040951058905
_cell_angle_gamma    112.7948892124742

_space_group_name_H-M_alt    "P 1"
_space_group_IT_number       1

loop_
  _space_group_symop_operation_xyz
  'x, y, z'

loop_
  _atom_site_type_symbol
  _atom_site_label
  _atom_site_symmetry_multiplicity
  _atom_site_fract_x
  _atom_site_fract_y
  _atom_site_fract_z
  _atom_site_occupancy
  Zn  Zn1       1.0  0.5879610144086342  0.9999722154748909  0.7501918744364673  1.0000
  Zn  Zn2       1.0  0.41204165086775657  2.7998962210100577e-05  0.24980625744588988  1.0000
  H   H1        1.0  0.09206580700621453  0.5653599506968375  0.8443803586606718  1.0000
  H   H2        1.0  0.5266469316410181  0.4344539692914324  0.6553772462795422  1.0000
  H   H3        1.0  0.9079313086516835  0.4346425854589171  0.1556211790351369  1.0000
  H   H4        1.0  0.4733497705501719  0.5655450543638094  0.3446229077076453  1.0000
  H   H5        1.0  0.4010351722454075  0.24272292099345788  0.8699223865846832  1.0000
  H   H6        1.0  0.15782537893722562  0.7575437536052405  0.6299427871405072  1.0000
  H   H7        1.0  0.5989627051400676  0.7572784546666823  0.1300774480707929  1.0000
  H   H8        1.0  0.8421695619165916  0.2424517451925041  0.3700574732851862  1.0000
  H   H9        1.0  0.7094223814567473  0.34878820062120763  0.98215773495955  1.0000
  H   H10       1.0  0.3602970264689276  0.6514621905066562  0.5179208079462043  1.0000
  H   H11       1.0  0.29057801317746623  0.6512155268013586  0.01784178045328841  1.0000
  H   H12       1.0  0.6396979172929917  0.3485333145908172  0.4820787073613885  1.0000
  H   H13       1.0  0.019152642325970207  0.10885931238790651  0.8583170815849641  1.0000
  H   H14       1.0  0.909756619306478  0.8910530664671227  0.6416667581654708  1.0000
  H   H15       1.0  0.9808464015294691  0.8911443963779533  0.14168466909310953  1.0000
  H   H16       1.0  0.09024159470742892  0.10894361099798293  0.35833297021346067  1.0000
  H   H17       1.0  0.7497780331005048  0.3674477308114988  0.7540373483264631  1.0000
  H   H18       1.0  0.38232101995372164  0.632280370508454  0.7459063327665519  1.0000
  H   H19       1.0  0.2502198471930728  0.6325536511483707  0.24596174121091255  1.0000
  H   H20       1.0  0.6176781878537767  0.36772097971029893  0.25409648245040023  1.0000
  H   H21       1.0  0.21076735687872625  0.8510453076172694  0.4577613874470998  1.0000
  H   H22       1.0  0.35963006161611594  0.1493515408542905  0.042238024164547014  1.0000
  H   H23       1.0  0.7892291103383402  0.14894787648898963  0.5422347217798347  1.0000
  H   H24       1.0  0.6403807124685059  0.8506568387253991  0.9577668140641009  1.0000
  H   H25       1.0  0.8823349697372366  0.7522459197520989  0.358133417196548  1.0000
  H   H26       1.0  0.12970564977937477  0.2481114788564724  0.14156979384425483  1.0000
  H   H27       1.0  0.11766016124158801  0.24774727719609044  0.641861201705119  1.0000
  H   H28       1.0  0.8703024431044568  0.7518969075078983  0.8584342990881595  1.0000
  C   C1        1.0  0.32173586093826156  0.4380370513747279  0.9353836007718569  1.0000
  C   C2        1.0  0.8835285326345003  0.5619395568425888  0.5644549698314663  1.0000
  C   C3        1.0  0.6782587491033284  0.5619631582175089  0.06461527569418732  1.0000
  C   C4        1.0  0.11646966683888138  0.4380570891238732  0.43554848413796776  1.0000
  C   C5        1.0  0.44332056951380133  0.3554162267928334  0.9271062980303526  1.0000
  C   C6        1.0  0.08755849452833792  0.6447325895763498  0.5728444141698432  1.0000
  C   C7        1.0  0.5566753883984532  0.6445839951563882  0.07289108828855718  1.0000
  C   C8        1.0  0.91243644341737  0.3552629029216662  0.4271565913739579  1.0000
  C   C9        1.0  0.6179611727927111  0.4154641955528787  0.9910243678602554  1.0000
  C   C10       1.0  0.20223833527804658  0.5846786483911898  0.5090270816417828  1.0000
  C   C11       1.0  0.3820398079845831  0.5845407047222793  0.008975360445781235  1.0000
  C   C12       1.0  0.7977554332895879  0.41531450470137793  0.49097275299751425  1.0000
  C   C13       1.0  0.1311796054726884  0.36523426941028697  0.8739433482974306  1.0000
  C   C14       1.0  0.7655840202847275  0.6346154236650109  0.625802796392918  1.0000
  C   C15       1.0  0.8688155848957779  0.6347671004350844  0.12605723129801313  1.0000
  C   C16       1.0  0.23440940874636598  0.36538242132286297  0.3741978896410315  1.0000
  C   C17       1.0  0.0023019924547114036  0.209361860757177  0.8439925100365357  1.0000
  C   C18       1.0  0.7925272571726297  0.7904846962820075  0.6559340012622314  1.0000
  C   C19       1.0  0.997697051400728  0.7906418480086828  0.1560092406415379  1.0000
  C   C20       1.0  0.20747019511370726  0.2095131416787055  0.3440674301570255  1.0000
  C   C21       1.0  0.8581081365671537  0.3408395426824741  0.7903437954555487  1.0000
  C   C22       1.0  0.5171617444761908  0.6589304951180351  0.709602503080191  1.0000
  C   C23       1.0  0.14189166901585543  0.6591630055877787  0.20965625218219233  1.0000
  C   C24       1.0  0.4828395612971193  0.3410696817631732  0.2904000994217029  1.0000
  C   C25       1.0  0.18426400422718817  0.055025022452660693  0.5562043412685114  1.0000
  C   C26       1.0  0.1293997338714874  0.9449027899157016  0.9439451731859236  1.0000
  C   C27       1.0  0.8157318768467905  0.9449669888010065  0.4437915550652249  1.0000
  C   C28       1.0  0.8706129713187851  0.0551067685738218  0.056059132906895605  1.0000
  C   C29       1.0  0.11764236528185275  0.9154493642331899  0.4759669717016024  1.0000
  C   C30       1.0  0.20216089244325272  0.08468847298879471  0.0240187985120386  1.0000
  C   C31       1.0  0.8823587171497494  0.08454499829795029  0.5240286055676364  1.0000
  C   C32       1.0  0.7978504736006756  0.9153210920429303  0.9759847623736065  1.0000
  C   C33       1.0  0.9343011591112855  0.8603313625773125  0.420723095048352  1.0000
  C   C34       1.0  0.0738111465075093  0.13985183747495  0.0791033374485224  1.0000
  C   C35       1.0  0.06569531101388289  0.13966182782866807  0.5792722690604748  1.0000
  C   C36       1.0  0.926200805679507  0.860158900409374  0.9209004363303208  1.0000
  C   C37       1.0  0.37251912889598066  0.1076942668337182  0.6233138211119423  1.0000
  C   C38       1.0  0.2650704322516759  0.8921954715500249  0.8769392603578723  1.0000
  C   C39       1.0  0.6274775139055606  0.8922965839243417  0.37668037218146816  1.0000
  C   C40       1.0  0.7349395946459083  0.10781410002390858  0.1230635553206056  1.0000
  N   N1        1.0  0.03498493167460032  0.4453770827397108  0.8390791174265716  1.0000
  N   N2        1.0  0.5894324842900078  0.5544215735404736  0.6606949398258379  1.0000
  N   N3        1.0  0.9650121868914072  0.5546254597157658  0.16092167515113692  1.0000
  N   N4        1.0  0.41056421208496374  0.4455774375153041  0.3393067043975435  1.0000
  N   N5        1.0  0.8330642369509109  0.1959377575951251  0.7929676596291628  1.0000
  N   N6        1.0  0.6368928583357558  0.8038767029466456  0.7070714613061427  1.0000
  N   N7        1.0  0.16693364334266655  0.8040636243647441  0.2070314299082128  1.0000
  N   N8        1.0  0.3631059389131366  0.1961211410713233  0.2929292250840803  1.0000
  O   O1        1.0  0.4208867792339107  0.9960505294923223  0.6330557956504492  1.0000
  O   O2        1.0  0.42515327425914523  0.0038281038726281995  0.8674047436339976  1.0000
  O   O3        1.0  0.5791059955401322  0.0039379508465984  0.36694095215082706  1.0000
  O   O4        1.0  0.5748523217326992  0.996177974827411  0.1325944527143506  1.0000
  O   O5        1.0  0.4657471704859192  0.25087098032843613  0.6684832169922997  1.0000
  O   O6        1.0  0.21522459717467515  0.7490491665202798  0.8316953566257581  1.0000
  O   O7        1.0  0.5342623183494624  0.749118720351177  0.3315077838261971  1.0000
  O   O8        1.0  0.7847827368896959  0.2509603866394272  0.16830969422888134  1.0000
