data_image0
_chemical_formula_structural       Ag2H42C56S2N6O18F6
_chemical_formula_sum              "Ag2 H42 C56 S2 N6 O18 F6"
_cell_length_a       9.126429733577721
_cell_length_b       13.003105484408517
_cell_length_c       16.358522092752466
_cell_angle_alpha    108.24582369048433
_cell_angle_beta     100.20125043833087
_cell_angle_gamma    103.49996725380245

_space_group_name_H-M_alt    "P 1"
_space_group_IT_number       1

loop_
  _space_group_symop_operation_xyz
  'x, y, z'

loop_
  _atom_site_type_symbol
  _atom_site_label
  _atom_site_symmetry_multiplicity
  _atom_site_fract_x
  _atom_site_fract_y
  _atom_site_fract_z
  _atom_site_occupancy
  Ag  Ag1       1.0  0.06958945450935518  0.8882736921696404  0.31856299958642603  1.0000
  Ag  Ag2       1.0  0.9304192902191415  0.11173219743924526  0.681436249661985  1.0000
  H   H1        1.0  0.0993118345865156  0.12271992896804558  0.4569207077345895  1.0000
  H   H2        1.0  0.9006923960503032  0.87728849110227  0.5430793249418855  1.0000
  H   H3        1.0  0.981646265838954  0.27820807671015757  0.48178170540688814  1.0000
  H   H4        1.0  0.018353978863750443  0.7217960901249401  0.5182150189318621  1.0000
  H   H5        1.0  0.7350626253717608  0.13014274771266093  0.20100420937310304  1.0000
  H   H6        1.0  0.26492921064792807  0.8698494555128347  0.7989935454186039  1.0000
  H   H7        1.0  0.8596848478699429  0.9739682915071556  0.18773893950575626  1.0000
  H   H8        1.0  0.14031876949230337  0.0260307589220545  0.8122611268442909  1.0000
  H   H9        1.0  0.611619667245158  0.43351835390571114  0.4266305153714923  1.0000
  H   H10       1.0  0.38837904316915933  0.5664849298282705  0.573370109731492  1.0000
  H   H11       1.0  0.7838612777345375  0.52702290786889  0.4232899205037911  1.0000
  H   H12       1.0  0.21613668324746982  0.47298122727750075  0.5767102299712689  1.0000
  H   H13       1.0  0.6467402885530545  0.6433462409419873  0.5403428421702827  1.0000
  H   H14       1.0  0.3532591892195711  0.35665619929250175  0.45965703873618935  1.0000
  H   H15       1.0  0.24308745046951682  0.053361062491148886  0.523020609250878  1.0000
  H   H16       1.0  0.7569261196835486  0.9466456984050357  0.4769787412121716  1.0000
  H   H17       1.0  0.43065215043814925  0.05680882427351719  0.6538176408596854  1.0000
  H   H18       1.0  0.5693569781836061  0.9431953585355687  0.34618244247607066  1.0000
  H   H19       1.0  0.4483027718929121  0.7296728913073733  0.4883179159329529  1.0000
  H   H20       1.0  0.5516974284230542  0.27032868564533163  0.5116842678381204  1.0000
  H   H21       1.0  0.25465843799604215  0.7366430340534789  0.36433693007862183  1.0000
  H   H22       1.0  0.7453432697193278  0.26335941413096003  0.6356631811648796  1.0000
  H   H23       1.0  0.6179273672889352  0.7607381956583052  0.7597623912008798  1.0000
  H   H24       1.0  0.3820809850115339  0.23926682669382157  0.2402390457436141  1.0000
  H   H25       1.0  0.7867156549458798  0.8589966525837056  0.7555041882369053  1.0000
  H   H26       1.0  0.21329088715705072  0.14100667084450438  0.24449541480901624  1.0000
  H   H27       1.0  0.8838071529955727  0.7041845184533883  0.8111086409032993  1.0000
  H   H28       1.0  0.11619128236603872  0.2958128092575905  0.18889107427929727  1.0000
  H   H29       1.0  0.2571165489359827  0.8443752134960999  0.17538729518867055  1.0000
  H   H30       1.0  0.742883082492142  0.1556195836978773  0.8246094628236521  1.0000
  H   H31       1.0  0.2143897890306192  0.7294549900756307  0.013308737263336834  1.0000
  H   H32       1.0  0.7856090933934042  0.27053808843066207  0.9866899584922637  1.0000
  H   H33       1.0  0.7492344009514084  0.5515013929196328  0.008724880752083677  1.0000
  H   H34       1.0  0.2507617775784682  0.44849591497202107  0.9912764323301531  1.0000
  H   H35       1.0  0.8093850855932414  0.6756210389393189  0.171351166668579  1.0000
  H   H36       1.0  0.19061104726524994  0.3243813893702309  0.8286483687323454  1.0000
  H   H37       1.0  0.984040576577179  0.4441862523093576  0.7584698882126943  1.0000
  H   H38       1.0  0.015951936314465277  0.5558102080522572  0.24152839176230145  1.0000
  H   H39       1.0  0.14306355846603946  0.5547773641319935  0.7598915455213701  1.0000
  H   H40       1.0  0.8569330487720562  0.44521825674215165  0.24010755458710514  1.0000
  H   H41       1.0  0.9251976190435728  0.434045502016076  0.5926153066253264  1.0000
  H   H42       1.0  0.07479822040799891  0.5659535324576552  0.40738212530845164  1.0000
  C   C1        1.0  0.015803127864103303  0.12462766257053197  0.40154914745595255  1.0000
  C   C2        1.0  0.9842015587981265  0.8753765122515631  0.5984492563813008  1.0000
  C   C3        1.0  0.950775027640951  0.2132183268909884  0.4152776595771428  1.0000
  C   C4        1.0  0.0492226578601133  0.7867824223324927  0.5847191686063127  1.0000
  C   C5        1.0  0.8478338172669595  0.216001632807874  0.34259102841055983  1.0000
  C   C6        1.0  0.15215608178866794  0.7839965264035766  0.6574061871400615  1.0000
  C   C7        1.0  0.8144557872558166  0.1294500752738799  0.2588448288722986  1.0000
  C   C8        1.0  0.18553563798164419  0.870543822882034  0.7411539200687258  1.0000
  C   C9        1.0  0.8837503744021973  0.043604437804290797  0.2515026044630559  1.0000
  C   C10       1.0  0.11624915757658265  0.956395456068847  0.7484960323412932  1.0000
  C   C11       1.0  0.7723062632036529  0.30769332538729793  0.3514812610831868  1.0000
  C   C12       1.0  0.2276866058358351  0.6923065565053435  0.6485148564734118  1.0000
  C   C13       1.0  0.739110763619557  0.46922512868608374  0.45638998397790687  1.0000
  C   C14       1.0  0.26088873207904584  0.5307773194613218  0.5436086781041212  1.0000
  C   C15       1.0  0.7795156717437307  0.530320890291847  0.5560387577393158  1.0000
  C   C16       1.0  0.2204834767700135  0.46967814028098326  0.443961457348891  1.0000
  C   C17       1.0  0.7183884906132222  0.6199655992612207  0.5878937374100915  1.0000
  C   C18       1.0  0.2816117455547058  0.3800359935173177  0.41210600871208675  1.0000
  C   C19       1.0  0.2888727446366559  0.98207147935409  0.5173473726528285  1.0000
  C   C20       1.0  0.7111345737875681  0.017931004531078508  0.482650876784362  1.0000
  C   C21       1.0  0.39566248631852124  0.9847674973153316  0.5906212038867338  1.0000
  C   C22       1.0  0.6043399618661808  0.015234095500247197  0.40937999139692494  1.0000
  C   C23       1.0  0.4537176185630329  0.892631187034361  0.5817786355098916  1.0000
  C   C24       1.0  0.5462837146502864  0.1073704018062429  0.41822244460524877  1.0000
  C   C25       1.0  0.4036605454857138  0.801864234205361  0.4991631296246339  1.0000
  C   C26       1.0  0.596341884773004  0.19813735069730143  0.5008392844834617  1.0000
  C   C27       1.0  0.2962364331570698  0.80593683227076  0.42947551614758345  1.0000
  C   C28       1.0  0.7037671299990079  0.19406476451980129  0.5705257943045866  1.0000
  C   C29       1.0  0.5622832089257415  0.8924502155137047  0.6614662726876263  1.0000
  C   C30       1.0  0.43771741113545193  0.10754967046504049  0.3385343075219041  1.0000
  C   C31       1.0  0.6920692320127911  0.7787516920342907  0.7164538130158887  1.0000
  C   C32       1.0  0.3079380142792942  0.2212533302993123  0.2835468993478685  1.0000
  C   C33       1.0  0.7547496432349304  0.6818693757809412  0.6793342893285869  1.0000
  C   C34       1.0  0.24525319737780643  0.3181330842913964  0.3206647182589819  1.0000
  C   C35       1.0  0.8540261281907532  0.6548741520976405  0.7396022890237788  1.0000
  C   C36       1.0  0.1459748753354759  0.34512659718140526  0.260396712901894  1.0000
  C   C37       1.0  0.14611655471575352  0.7790324571919385  0.1359760097337244  1.0000
  C   C38       1.0  0.8538834063994611  0.22096317956358993  0.8640228264680729  1.0000
  C   C39       1.0  0.12174459480403499  0.715490795467744  0.04599321460710825  1.0000
  C   C40       1.0  0.8782542786569961  0.2845022790820906  0.9540060905607108  1.0000
  C   C41       1.0  0.9769930872784656  0.6329084400287927  0.9986768593984365  1.0000
  C   C42       1.0  0.02300503675024858  0.36708548593344387  0.0013219711414577905  1.0000
  C   C43       1.0  0.8624330501038885  0.61626216865546  0.04394777571910418  1.0000
  C   C44       1.0  0.13756316427795673  0.3837351550620126  0.9560510997142443  1.0000
  C   C45       1.0  0.8955364405256105  0.6843812034564252  0.1336521671819995  1.0000
  C   C46       1.0  0.10446271695112593  0.31561783107287067  0.8663474384939889  1.0000
  C   C47       1.0  0.9408146836876911  0.5604826791705122  0.9022661884529981  1.0000
  C   C48       1.0  0.059181941476381866  0.43951294961654225  0.09773169283103295  1.0000
  C   C49       1.0  0.025878201608861756  0.5352400179725478  0.7703257684729365  1.0000
  C   C50       1.0  0.9741165412255339  0.4647564503390242  0.22967274183908867  1.0000
  C   C51       1.0  0.9151730198749702  0.5659492720345795  0.7087752350813545  1.0000
  C   C52       1.0  0.0848276091492082  0.4340506179006169  0.29122473571595714  1.0000
  C   C53       1.0  0.8767677560086186  0.5033138135801494  0.6165537580281892  1.0000
  C   C54       1.0  0.12323248912230154  0.4966877831548472  0.38344537868177037  1.0000
  C   C55       1.0  0.5451555300755188  0.6211777971123168  0.26781833807669386  1.0000
  C   C56       1.0  0.45484495511259126  0.3788245996196551  0.7321889709449537  1.0000
  S   S1        1.0  0.7367966175752941  0.712786377105644  0.35054392314133753  1.0000
  S   S2        1.0  0.2632039128559853  0.2872134693085187  0.6494627511904056  1.0000
  N   N1        1.0  0.9837478633114  0.04094620631774149  0.3216065248080398  1.0000
  N   N2        1.0  0.01625386232996117  0.9590562497796212  0.6783923676110177  1.0000
  N   N3        1.0  0.2385129529498969  0.8940749363111281  0.4379164561416217  1.0000
  N   N4        1.0  0.7614935981160257  0.10592839107353312  0.5620825374920813  1.0000
  N   N5        1.0  0.03457621744300352  0.7650522470386178  0.17911739982680067  1.0000
  N   N6        1.0  0.9654233145357766  0.23494764683452016  0.8208812369775487  1.0000
  O   O1        1.0  0.6872230654930858  0.3164173622443299  0.28874780503143427  1.0000
  O   O2        1.0  0.31276499647604084  0.6835790861738289  0.7112494048572844  1.0000
  O   O3        1.0  0.8074133070094617  0.37758286760674753  0.43757619398216013  1.0000
  O   O4        1.0  0.19258215751184343  0.622417877623235  0.5624197944520546  1.0000
  O   O5        1.0  0.6116826554876768  0.9710925127124665  0.7343354197745952  1.0000
  O   O6        1.0  0.38831720617820037  0.028908220722229292  0.2656652952192218  1.0000
  O   O7        1.0  0.596009511479579  0.7935271802287786  0.6433803928391055  1.0000
  O   O8        1.0  0.4039944172155571  0.20647527194915943  0.3566205581536437  1.0000
  O   O9        1.0  0.8270296133257276  0.47571571704090587  0.8632670812605883  1.0000
  O   O10       1.0  0.17296773438169313  0.5242790484643719  0.13673310288803714  1.0000
  O   O11       1.0  0.04974645548044521  0.6006206708704127  0.863998953755484  1.0000
  O   O12       1.0  0.9502515959879007  0.3993783636403592  0.13599992733976765  1.0000
  O   O13       1.0  0.8388370668869883  0.6409206010354253  0.34257862128186645  1.0000
  O   O14       1.0  0.1611556416751014  0.3590740694407799  0.657433290437133  1.0000
  O   O15       1.0  0.693595489688647  0.7434147592482887  0.43474149031877823  1.0000
  O   O16       1.0  0.30640786603398595  0.2565944568440344  0.5652665995008733  1.0000
  O   O17       1.0  0.7805474478158345  0.807073366608506  0.3195215032651717  1.0000
  O   O18       1.0  0.21945622418078867  0.1929205673592591  0.6804797313539552  1.0000
  F   F1        1.0  0.48041846184045073  0.5314447085093121  0.2890230040309731  1.0000
  F   F2        1.0  0.519574665182212  0.46855598129322096  0.7109800670128692  1.0000
  F   F3        1.0  0.44552499973163157  0.6840304641147272  0.2675165413474829  1.0000
  F   F4        1.0  0.5544778592353053  0.3159694337704266  0.7324836597868511  1.0000
  F   F5        1.0  0.5608525427531602  0.579667387132524  0.18332646101881514  1.0000
  F   F6        1.0  0.43916357038843046  0.4203325030619709  0.8166836539087968  1.0000
