data_image0
_chemical_formula_structural       Zn4H36C16S4N28O4
_chemical_formula_sum              "Zn4 H36 C16 S4 N28 O4"
_cell_length_a       10.015739825021306
_cell_length_b       10.247821500006612
_cell_length_c       10.280744511177897
_cell_angle_alpha    89.9998893519987
_cell_angle_beta     102.42997981587291
_cell_angle_gamma    90.00009005198606

_space_group_name_H-M_alt    "P 1"
_space_group_IT_number       1

loop_
  _space_group_symop_operation_xyz
  'x, y, z'

loop_
  _atom_site_type_symbol
  _atom_site_label
  _atom_site_symmetry_multiplicity
  _atom_site_fract_x
  _atom_site_fract_y
  _atom_site_fract_z
  _atom_site_occupancy
  Zn  Zn1       1.0  0.645508652854467  0.4106486937099305  0.05219832093387573  1.0000
  Zn  Zn2       1.0  0.3544924595292471  0.910648015547508  0.44780178782158947  1.0000
  Zn  Zn3       1.0  0.35449244534255797  0.5893509507030431  0.947801775690742  1.0000
  Zn  Zn4       1.0  0.6455086386671666  0.08935065304831369  0.5521983088038382  1.0000
  H   H1        1.0  0.548441825842012  0.031658610717414604  0.24984760772304787  1.0000
  H   H2        1.0  0.45155779563569354  0.5316584635516078  0.25015096797289266  1.0000
  H   H3        1.0  0.45155517883065244  0.9683420095094988  0.7501525880298419  1.0000
  H   H4        1.0  0.5484433105249664  0.4683421566804072  0.7498471849510936  1.0000
  H   H5        1.0  0.5585744401914852  0.11842256792407818  0.10222092853034333  1.0000
  H   H6        1.0  0.44142529036899714  0.6184211432015942  0.3977775032077632  1.0000
  H   H7        1.0  0.4414205236909651  0.8815780523026504  0.8977778590122228  1.0000
  H   H8        1.0  0.5585758118101508  0.3815794770294758  0.6022216215661375  1.0000
  H   H9        1.0  0.4209135355828623  0.1480823478064224  0.18242895738953996  1.0000
  H   H10       1.0  0.5790852059000855  0.6480812880452332  0.3175701788064131  1.0000
  H   H11       1.0  0.5790803939697965  0.8519192482340541  0.8175725275217404  1.0000
  H   H12       1.0  0.42091589627906245  0.3519193321858367  0.6824289459674873  1.0000
  H   H13       1.0  0.0103234308055065  0.2239100062607874  0.0306134444932482  1.0000
  H   H14       1.0  0.9896764204344632  0.7239092765972543  0.46938772776908166  1.0000
  H   H15       1.0  0.9896776594284945  0.776089638150296  0.9693885958311841  1.0000
  H   H16       1.0  0.0103246817434623  0.27608939199951266  0.5306113970064317  1.0000
  H   H17       1.0  0.16294748537276152  0.25845880748514116  0.15554458459796905  1.0000
  H   H18       1.0  0.8370513948806888  0.758458087974212  0.34445436846090877  1.0000
  H   H19       1.0  0.837052586457503  0.7415418127434704  0.8444562656955413  1.0000
  H   H20       1.0  0.16294663615751404  0.2415396048027532  0.6555450736247083  1.0000
  H   H21       1.0  0.10532970557255789  0.3724197016293544  0.019677886462559996  1.0000
  H   H22       1.0  0.8946703283995207  0.8724197820581168  0.4803240112414927  1.0000
  H   H23       1.0  0.8946703622755765  0.6275799427811605  0.980323935681675  1.0000
  H   H24       1.0  0.10533179616487587  0.12757986235636312  0.5196753317134225  1.0000
  H   H25       1.0  0.1143697527718643  0.5640944475036065  0.16947471906725303  1.0000
  H   H26       1.0  0.8856319423132533  0.06409495109145519  0.3305271547206985  1.0000
  H   H27       1.0  0.8856313414442595  0.4359061727255735  0.830526349406469  1.0000
  H   H28       1.0  0.11437119269309191  0.9359056691379095  0.66947532196334  1.0000
  H   H29       1.0  0.1744863624267552  0.4689677880726535  0.31983581384626103  1.0000
  H   H30       1.0  0.8255127785067913  0.9689673696579462  0.18016376178544397  1.0000
  H   H31       1.0  0.8255147357708805  0.5310328321574714  0.6801642827775468  1.0000
  H   H32       1.0  0.1744832077633589  0.0310361780208055  0.8198352439349037  1.0000
  H   H33       1.0  0.029007288123075597  0.5739412196520915  0.3074658741937597  1.0000
  H   H34       1.0  0.970994423323603  0.07394212072464511  0.1925350114061715  1.0000
  H   H35       1.0  0.9709927797250586  0.4260584247584234  0.6925359479504679  1.0000
  H   H36       1.0  0.029008719645759098  0.9260584995066096  0.8074655215780524  1.0000
  C   C1        1.0  0.612613420892508  0.22915133503050097  0.2814278278536976  1.0000
  C   C2        1.0  0.38738337774409365  0.7291531031361204  0.2185707374697046  1.0000
  C   C3        1.0  0.3873835797986445  0.7708492851954672  0.7185733397490993  1.0000
  C   C4        1.0  0.6126156836460622  0.270849468729068  0.7814269790922524  1.0000
  C   C5        1.0  0.5307525353451226  0.12630900677996953  0.19937228955787134  1.0000
  C   C6        1.0  0.469248219554146  0.6263087886217277  0.3006282909740677  1.0000
  C   C7        1.0  0.4692454877312784  0.8736906376294085  0.8006290962259401  1.0000
  C   C8        1.0  0.5307539050114798  0.3736928074270622  0.6993710519792273  1.0000
  C   C9        1.0  0.074264342875523  0.3007224234515746  0.0867616333645742  1.0000
  C   C10       1.0  0.9257366313044885  0.8007226812474783  0.41323865777995655  1.0000
  C   C11       1.0  0.9257377777073614  0.6992772209619602  0.9132386814402553  1.0000
  C   C12       1.0  0.07426344848695271  0.19927501153156874  0.5867602488161625  1.0000
  C   C13       1.0  0.08548218329183042  0.5111621198728569  0.2519852603631493  1.0000
  C   C14       1.0  0.9145204676291244  0.0111608757998383  0.24801691943185494  1.0000
  C   C15       1.0  0.9145199333101603  0.48883850035689136  0.7480160262907705  1.0000
  C   C16       1.0  0.0854806265857704  0.9888377927950387  0.7519841490434802  1.0000
  S   S1        1.0  0.9711880177851884  0.3816816806363548  0.18479151375187555  1.0000
  S   S2        1.0  0.0288110094283311  0.8816836917001537  0.3152091785529691  1.0000
  S   S3        1.0  0.0288130684666825  0.618316987956632  0.8152114984232811  1.0000
  S   S4        1.0  0.9711860191327943  0.11831595271528529  0.6847851861012728  1.0000
  N   N1        1.0  0.4038806510931963  0.4037924754662469  0.999821346336056  1.0000
  N   N2        1.0  0.5961197978964563  0.9037901055721418  0.5001799419579882  1.0000
  N   N3        1.0  0.5961173918883134  0.5962032656792501  0.00017518020145240883  1.0000
  N   N4        1.0  0.4038823107394407  0.0962056355699517  0.4998232883998029  1.0000
  N   N5        1.0  0.3456021714571236  0.3112215946784928  0.940270956708261  1.0000
  N   N6        1.0  0.6543981651297274  0.8112191979326937  0.5597295133296429  1.0000
  N   N7        1.0  0.6543999451473185  0.6887829288198616  0.059730329942425456  1.0000
  N   N8        1.0  0.3455998698930571  0.1887833739309883  0.4402689569020169  1.0000
  N   N9        1.0  0.2936935682005952  0.21901176598581168  0.8859755792402313  1.0000
  N   N10       1.0  0.7063066564398285  0.7190132461599603  0.6140240719392411  1.0000
  N   N11       1.0  0.7063054892037569  0.7809839751583639  0.11402310917730316  1.0000
  N   N12       1.0  0.2936954601597108  0.2809834708011678  0.3859772147179257  1.0000
  N   N13       1.0  0.6569395662268108  0.3409937189416326  0.23705493964682497  1.0000
  N   N14       1.0  0.34306146256339787  0.8409904544766391  0.26294431283252356  1.0000
  N   N15       1.0  0.34305846879474444  0.6590069012877392  0.7629435305864549  1.0000
  N   N16       1.0  0.656941684386247  0.15900821412125765  0.7370552483034133  1.0000
  N   N17       1.0  0.7280741193694878  0.4066915340896742  0.3449081825292524  1.0000
  N   N18       1.0  0.2719259696350278  0.9066912980577585  0.15509074276145907  1.0000
  N   N19       1.0  0.2719269828084308  0.5933071345070856  0.6550909422462683  1.0000
  N   N20       1.0  0.7280751365256322  0.0933093221742567  0.8449074101625343  1.0000
  N   N21       1.0  0.7273207079375865  0.33798999968112037  0.45111897603656115  1.0000
  N   N22       1.0  0.2726803170776293  0.8379889949779197  0.04888028142468674  1.0000
  N   N23       1.0  0.2726803902582091  0.6620076930975429  0.5488811205896768  1.0000
  N   N24       1.0  0.727319762715041  0.1620106494354303  0.9511186251698195  1.0000
  N   N25       1.0  0.6558149927514947  0.22621012606214205  0.4143735889568774  1.0000
  N   N26       1.0  0.3441848613807537  0.7262101346720299  0.08562757948848801  1.0000
  N   N27       1.0  0.3441830343064254  0.7737895183481881  0.585626824977034  1.0000
  N   N28       1.0  0.6558162407983943  0.2737904855590401  0.9143715452854126  1.0000
  O   O1        1.0  0.8583220355626507  0.450388979769926  0.08246252754601364  1.0000
  O   O2        1.0  0.14167913076630606  0.9503890124129272  0.4175365434218108  1.0000
  O   O3        1.0  0.1416780402485074  0.5496106646424721  0.9175373508983997  1.0000
  O   O4        1.0  0.8583219833555374  0.0496086803695164  0.5824596658047909  1.0000
