data_image0
_chemical_formula_structural       Co2H24C30S2N8O8
_chemical_formula_sum              "Co2 H24 C30 S2 N8 O8"
_cell_length_a       8.671227067684836
_cell_length_b       10.336921453832417
_cell_length_c       10.336888620630917
_cell_angle_alpha    75.63122585342911
_cell_angle_beta     71.73569927305977
_cell_angle_gamma    71.73650255893001

_space_group_name_H-M_alt    "P 1"
_space_group_IT_number       1

loop_
  _space_group_symop_operation_xyz
  'x, y, z'

loop_
  _atom_site_type_symbol
  _atom_site_label
  _atom_site_symmetry_multiplicity
  _atom_site_fract_x
  _atom_site_fract_y
  _atom_site_fract_z
  _atom_site_occupancy
  Co  Co1       1.0  0.5000032003906653  0.32939935545528704  0.6705994827063934  1.0000
  Co  Co2       1.0  0.49999687852290736  0.6706039418669363  0.3293965736776414  1.0000
  H   H1        1.0  0.8031842975739422  0.49289493061697703  0.7389544808065766  1.0000
  H   H2        1.0  0.1968208243920699  0.2610468924015095  0.5071033384773074  1.0000
  H   H3        1.0  0.1968305326153583  0.5071001693727126  0.2610377605044008  1.0000
  H   H4        1.0  0.8031641658096761  0.7389642885188721  0.49291512556575867  1.0000
  H   H5        1.0  0.6645632036062848  0.4375650966660345  0.9848437723466148  1.0000
  H   H6        1.0  0.33544150869865774  0.0151604543524613  0.5624273816673409  1.0000
  H   H7        1.0  0.33544189588187107  0.5624298157432364  0.01514940047758986  1.0000
  H   H8        1.0  0.6645511356559908  0.9848483593882665  0.4375798723574391  1.0000
  H   H9        1.0  0.8279697955559441  0.32966097053441246  0.15977738889630907  1.0000
  H   H10       1.0  0.1720309060775236  0.8402280159198695  0.6703334107953793  1.0000
  H   H11       1.0  0.17203942354626633  0.670325967154909  0.8402236961345579  1.0000
  H   H12       1.0  0.827961186955072  0.1597743451598319  0.3296700708903018  1.0000
  H   H13       1.0  0.119116434752037  0.440658213755853  0.6547964305249394  1.0000
  H   H14       1.0  0.880891478376121  0.3452022669215111  0.5593416126170254  1.0000
  H   H15       1.0  0.8808962880014876  0.5593357877718432  0.3451957716587515  1.0000
  H   H16       1.0  0.11909636136918061  0.6548036892484177  0.4406756122773032  1.0000
  H   H17       1.0  0.4648769327571641  0.22106681564969222  0.9963290444416445  1.0000
  H   H18       1.0  0.535127837452947  0.0036693247544406045  0.7789352667079331  1.0000
  H   H19       1.0  0.5351313843390597  0.7789377648274893  0.0036681301025965505  1.0000
  H   H20       1.0  0.46486526867426625  0.9963327803155766  0.22106121630542927  1.0000
  H   H21       1.0  0.27488452712670863  0.24479722136439352  0.2447979512726732  1.0000
  H   H22       1.0  0.7251114210158675  0.7552039946713124  0.7552008746774066  1.0000
  H   H23       1.0  0.05429594351467411  0.27192637707167927  0.27192389795958155  1.0000
  H   H24       1.0  0.9457044419474483  0.7280786902829773  0.7280638052162447  1.0000
  C   C1        1.0  0.8814195820452823  0.4448374308164844  0.8109008715222644  1.0000
  C   C2        1.0  0.11859419385280749  0.18909541176087435  0.5551583041143004  1.0000
  C   C3        1.0  0.11858132307663277  0.5551596589307621  0.1890967544063713  1.0000
  C   C4        1.0  0.8814042897565668  0.8109031452080799  0.4448512179807126  1.0000
  C   C5        1.0  0.8014970998751281  0.4118330385614328  0.9517913262478218  1.0000
  C   C6        1.0  0.1985037099827309  0.048215494924974706  0.5881596406602938  1.0000
  C   C7        1.0  0.19851528829632054  0.5881591543879949  0.04820827987054336  1.0000
  C   C8        1.0  0.8014900315670914  0.9517931784435446  0.4118434625127848  1.0000
  C   C9        1.0  0.8922153361936793  0.3489608485368976  0.05071898746967209  1.0000
  C   C10       1.0  0.10779493448337253  0.9492810935331661  0.6510341501727624  1.0000
  C   C11       1.0  0.10779696320300754  0.6510340696472953  0.9492701642622238  1.0000
  C   C12       1.0  0.8922006108076841  0.050725413421012895  0.34896615668451864  1.0000
  C   C13       1.0  0.06685580552425557  0.3181883877290517  0.0020172273573706356  1.0000
  C   C14       1.0  0.9331382950032039  0.9979873577830816  0.6818076802229811  1.0000
  C   C15       1.0  0.9331495893555157  0.681798238706193  0.9979782740313256  1.0000
  C   C16       1.0  0.06685562227595199  0.002017211144249097  0.3181975365058847  1.0000
  C   C17       1.0  0.14823083704722245  0.3492676744975469  0.8605897530259982  1.0000
  C   C18       1.0  0.8517730667748964  0.139406290545331  0.6507302889861677  1.0000
  C   C19       1.0  0.8517768848623106  0.6507231996385557  0.13940577511245775  1.0000
  C   C20       1.0  0.1482153188435403  0.8605930725913569  0.3492790127173606  1.0000
  C   C21       1.0  0.05539318331086209  0.4150927942634155  0.7630717918162376  1.0000
  C   C22       1.0  0.9446072327184254  0.23692502784184197  0.5849058138409262  1.0000
  C   C23       1.0  0.9446206413120279  0.5848982260198241  0.23692386608160382  1.0000
  C   C24       1.0  0.055378331389967235  0.7630795985911335  0.4151056762848739  1.0000
  C   C25       1.0  0.3441638036850989  0.257794749659439  0.9711618956447766  1.0000
  C   C26       1.0  0.6558305942900803  0.0288351097767787  0.7422101095054147  1.0000
  C   C27       1.0  0.6558403901683363  0.7422034138150765  0.02883446638006148  1.0000
  C   C28       1.0  0.34416186603230847  0.9711662575547706  0.25779452408498577  1.0000
  C   C29       1.0  0.1784301437948059  0.21692508202158928  0.21692861215235137  1.0000
  C   C30       1.0  0.8215692407750981  0.7830730647543688  0.7830701141761763  1.0000
  S   S1        1.0  0.5000122643726216  0.6274827250013361  0.6274808515608257  1.0000
  S   S2        1.0  0.49998581923925645  0.37251962804219113  0.3725189627900819  1.0000
  N   N1        1.0  0.19554886023850318  0.2605527768580416  0.06922688311234283  1.0000
  N   N2        1.0  0.8044541707089792  0.9307708649142158  0.7394478686990809  1.0000
  N   N3        1.0  0.8044608850062428  0.7394390801025779  0.930765836332782  1.0000
  N   N4        1.0  0.19553952697619786  0.0692305547742578  0.2605573604073186  1.0000
  N   N5        1.0  0.32178850448118357  0.3083452787376189  0.8449288833524308  1.0000
  N   N6        1.0  0.6782151095747863  0.1550719354274293  0.6916522346205909  1.0000
  N   N7        1.0  0.6782171818907443  0.6916517891623568  0.1550654289989666  1.0000
  N   N8        1.0  0.3217787236038063  0.8449325178624247  0.3083501342876574  1.0000
  O   O1        1.0  0.3267240522224029  0.6329563848335907  0.6329554944599991  1.0000
  O   O2        1.0  0.6732743426122169  0.3670448973701355  0.3670435732485445  1.0000
  O   O3        1.0  0.5927619518539944  0.477331416981663  0.6692558028581248  1.0000
  O   O4        1.0  0.40723558047893255  0.3307450068966489  0.5226749870329286  1.0000
  O   O5        1.0  0.4072398391720428  0.522673934004878  0.3307381914749357  1.0000
  O   O6        1.0  0.59275526298849  0.6692644784145259  0.4773238746563565  1.0000
  O   O7        1.0  0.5170661241998076  0.7130408957506873  0.7130357235353912  1.0000
  O   O8        1.0  0.4829307500828007  0.2869614434817436  0.2869644445730587  1.0000
