data_image0
_chemical_formula_structural       Cd2H40C44N8O8
_chemical_formula_sum              "Cd2 H40 C44 N8 O8"
_cell_length_a       8.546589092154148
_cell_length_b       10.3275011095832
_cell_length_c       11.654282392710952
_cell_angle_alpha    85.68680691899002
_cell_angle_beta     88.13136880490426
_cell_angle_gamma    85.59743172458266

_space_group_name_H-M_alt    "P 1"
_space_group_IT_number       1

loop_
  _space_group_symop_operation_xyz
  'x, y, z'

loop_
  _atom_site_type_symbol
  _atom_site_label
  _atom_site_symmetry_multiplicity
  _atom_site_fract_x
  _atom_site_fract_y
  _atom_site_fract_z
  _atom_site_occupancy
  Cd  Cd1       1.0  0.7490106941712398  0.7607081583455154  0.2604838783867294  1.0000
  Cd  Cd2       1.0  0.2509892412931762  0.23929330712024213  0.7395150765896757  1.0000
  H   H1        1.0  0.5132104636466508  0.5068136376982793  0.23079525118748734  1.0000
  H   H2        1.0  0.48679100695103733  0.49318391475777196  0.7692056070764721  1.0000
  H   H3        1.0  0.1390273353078797  0.5508090389036937  0.5736776506123462  1.0000
  H   H4        1.0  0.8609739615335527  0.44919046097001575  0.4263230976021291  1.0000
  H   H5        1.0  0.16791972217026094  0.73094388507446  0.6991507388564528  1.0000
  H   H6        1.0  0.8320790595187263  0.26905756318266333  0.30084996647970996  1.0000
  H   H7        1.0  0.36381238410370287  0.8918426780619341  0.6543231861463782  1.0000
  H   H8        1.0  0.636187489866586  0.1081597345753949  0.3456782889665462  1.0000
  H   H9        1.0  0.5529330251148181  0.8709762256350969  0.48642359365476295  1.0000
  H   H10       1.0  0.4470660341312255  0.12902228380402653  0.5135789935297977  1.0000
  H   H11       1.0  0.1259426039160161  0.4609099481083163  0.34903240279650294  1.0000
  H   H12       1.0  0.8740550770303415  0.5390905446143679  0.6509666743758159  1.0000
  H   H13       1.0  0.2514144503911879  0.35444330176788713  0.43961750465296484  1.0000
  H   H14       1.0  0.7485807938195207  0.6455581744751341  0.5603807262786944  1.0000
  H   H15       1.0  0.4214454648461015  0.3065904163721456  0.2622568524930742  1.0000
  H   H16       1.0  0.5785558489179934  0.6934090658100587  0.7377456124955799  1.0000
  H   H17       1.0  0.2807575837062188  0.4013463462047682  0.1762783358961855  1.0000
  H   H18       1.0  0.7192437915520102  0.5986521888058718  0.8237216089559424  1.0000
  H   H19       1.0  0.2157886557908384  0.16176289432098662  0.33838333099670587  1.0000
  H   H20       1.0  0.7842139070881444  0.8382356225152635  0.661618297044015  1.0000
  H   H21       1.0  0.07338443310823807  0.25428228573453293  0.2564356832951873  1.0000
  H   H22       1.0  0.9266167937777395  0.7457181701565005  0.7435667266687247  1.0000
  H   H23       1.0  0.156678882207494  0.05671540910258702  0.1620176560693949  1.0000
  H   H24       1.0  0.8433198910201651  0.9432860480002959  0.8379821908796784  1.0000
  H   H25       1.0  0.20939528437369148  0.19539007707607678  0.0726935330696818  1.0000
  H   H26       1.0  0.7906034104371712  0.8046123448898826  0.9273071172417388  1.0000
  H   H27       1.0  0.37019537104630024  0.9041768302329771  0.2521679625711855  1.0000
  H   H28       1.0  0.6298034890594834  0.09582365316107652  0.74783193940263  1.0000
  H   H29       1.0  0.4365056826623075  0.3155370184111987  0.9971093821155533  1.0000
  H   H30       1.0  0.5634956057177901  0.6844624903082632  0.002890507711839502  1.0000
  H   H31       1.0  0.7063185774031666  0.3570682373782432  0.9193029324187592  1.0000
  H   H32       1.0  0.2936790166650667  0.6429332290532699  0.0806960897288178  1.0000
  H   H33       1.0  0.9339211398689359  0.2036227891747941  0.9649220583316236  1.0000
  H   H34       1.0  0.06607769485284352  0.7963777207565248  0.03507526848093789  1.0000
  H   H35       1.0  0.903706830855576  0.0008746891531217002  0.09531096470125529  1.0000
  H   H36       1.0  0.09629084162944683  0.9991258124153145  0.9046872540839743  1.0000
  H   H37       1.0  0.027170621342143906  0.3876364296334316  0.0932838873530315  1.0000
  H   H38       1.0  0.9728274494233986  0.6123601240251518  0.9067197018536817  1.0000
  H   H39       1.0  0.15858502919557071  0.9787238254439574  0.43497814984858957  1.0000
  H   H40       1.0  0.841416354523993  0.021274700720916005  0.5650226533906277  1.0000
  C   C1        1.0  0.470352977437706  0.5603928654253212  0.3033393444160666  1.0000
  C   C2        1.0  0.5296482325255952  0.43960760815721756  0.6966613487736737  1.0000
  C   C3        1.0  0.44651057767457286  0.7013080532031211  0.4336310788820228  1.0000
  C   C4        1.0  0.5534919936657443  0.2986904547873693  0.5663714075457875  1.0000
  C   C5        1.0  0.32849944527389857  0.6131160237214816  0.45721864943776314  1.0000
  C   C6        1.0  0.6715019553683276  0.3868824847518865  0.5427838705756257  1.0000
  C   C7        1.0  0.2255945780599049  0.6212724083713824  0.5522615897761511  1.0000
  C   C8        1.0  0.7744031282704569  0.37872805781402974  0.44774006255742893  1.0000
  C   C9        1.0  0.24334596803084454  0.7222270279306855  0.6225305400487144  1.0000
  C   C10       1.0  0.7566553457332575  0.27777245425151165  0.3774719249399324  1.0000
  C   C11       1.0  0.35738746438964597  0.8128064860541429  0.5981316079052589  1.0000
  C   C12       1.0  0.6426150031498779  0.1871930133366959  0.4018691067236304  1.0000
  C   C13       1.0  0.46115923467252873  0.8038313803818087  0.5039144705647302  1.0000
  C   C14       1.0  0.5388388276316789  0.19616518212252035  0.4960882602548935  1.0000
  C   C15       1.0  0.24709910953466618  0.4182516476530509  0.3596400077726329  1.0000
  C   C16       1.0  0.7528973222968035  0.5817498104155875  0.6403599063476121  1.0000
  C   C17       1.0  0.2962602689082772  0.3398363500974142  0.2571941258292725  1.0000
  C   C18       1.0  0.7037386949983003  0.6601631418962979  0.7428075479434568  1.0000
  C   C19       1.0  0.1990667346188602  0.22175345710672192  0.2570285286956633  1.0000
  C   C20       1.0  0.8009358197987951  0.7782450685752806  0.7429722409579752  1.0000
  C   C21       1.0  0.2323205014831302  0.13839479891307602  0.15464749795992816  1.0000
  C   C22       1.0  0.7676783586226533  0.8616056844809705  0.8453524040138872  1.0000
  C   C23       1.0  0.4482827291251539  0.9670517758075192  0.20302055498283525  1.0000
  C   C24       1.0  0.551716192474757  0.0329477604149631  0.7969768268544611  1.0000
  C   C25       1.0  0.6534025065177999  0.04623120393728901  0.11740637737682388  1.0000
  C   C26       1.0  0.3465950621664291  0.9537702890314889  0.8825900696094919  1.0000
  C   C27       1.0  0.522920075909987  0.13565965430933596  0.09137633476353099  1.0000
  C   C28       1.0  0.4770809349130615  0.8643427932281397  0.9086216732154638  1.0000
  C   C29       1.0  0.5380242388932217  0.2492481265156883  0.019773394711919006  1.0000
  C   C30       1.0  0.4619815246776611  0.7507533630729597  0.9802228171753028  1.0000
  C   C31       1.0  0.6883816421870037  0.27040217458482374  0.9760584167839994  1.0000
  C   C32       1.0  0.3116217799876893  0.7295993159695726  0.023937862274394206  1.0000
  C   C33       1.0  0.8192370469908639  0.182528172156573  0.002303563540074507  1.0000
  C   C34       1.0  0.1807629499676793  0.8174723461376205  0.9976928712998117  1.0000
  C   C35       1.0  0.8039309127346144  0.0695595745663198  0.0734457734662186  1.0000
  C   C36       1.0  0.1960690058071322  0.9304419085909502  0.9265514647360149  1.0000
  C   C37       1.0  0.8993159616168782  0.5728375632741348  0.1333464497502419  1.0000
  C   C38       1.0  0.1006844336221775  0.42715900711020544  0.8666553555111348  1.0000
  C   C39       1.0  0.9845070812222831  0.4829484298617571  0.055566244991034394  1.0000
  C   C40       1.0  0.015489984140089095  0.5170461857077838  0.9444366294636595  1.0000
  C   C41       1.0  0.9488821406000483  0.887827383720989  0.38424292298251567  1.0000
  C   C42       1.0  0.0511179770819581  0.11217212548135078  0.6157570004304631  1.0000
  C   C43       1.0  0.035144526574200106  0.9681127640510638  0.4570331202801938  1.0000
  C   C44       1.0  0.9648568571453637  0.0318857621138093  0.5429676829590235  1.0000
  N   N1        1.0  0.5333880950507677  0.6647270997634109  0.33675182369243123  1.0000
  N   N2        1.0  0.4666132102519996  0.33527239126454594  0.6632497829091334  1.0000
  N   N3        1.0  0.346863249474751  0.5252997316584713  0.3720144364520194  1.0000
  N   N4        1.0  0.6531344399329342  0.47470075221845315  0.6279854991073818  1.0000
  N   N5        1.0  0.6020723974471522  0.9420157574047606  0.18730995938091163  1.0000
  N   N6        1.0  0.39792870025402743  0.05798571642387881  0.8126881036228252  1.0000
  N   N7        1.0  0.3945971296692292  0.082002455673539  0.1482530304361589  1.0000
  N   N8        1.0  0.6054027888725173  0.9179990274837309  0.8517442077660746  1.0000
  O   O1        1.0  0.8166543237125481  0.6723313144525207  0.0885564481486369  1.0000
  O   O2        1.0  0.18334697312888437  0.3276681854211958  0.9114443000658454  1.0000
  O   O3        1.0  0.9136330822384197  0.5498231711321893  0.24112754520380258  1.0000
  O   O4        1.0  0.0863669654881249  0.4501772940874745  0.7588740399586059  1.0000
  O   O5        1.0  0.8248433677466309  0.8373501111531211  0.42732274461818776  1.0000
  O   O6        1.0  0.17515422632160238  0.1626513552783919  0.5726762775293891  1.0000
  O   O7        1.0  0.997666542768094  0.875526088684609  0.28106876646188544  1.0000
  O   O8        1.0  0.002334667195213995  0.1244743848979368  0.7189319267278548  1.0000
