data_image0
_chemical_formula_structural       Al4H16C22O20
_chemical_formula_sum              "Al4 H16 C22 O20"
_cell_length_a       6.655228896999967
_cell_length_b       11.281750437714436
_cell_length_c       16.187982640509208
_cell_angle_alpha    78.88539484816734
_cell_angle_beta     90.00129023538821
_cell_angle_gamma    89.99908257296119

_space_group_name_H-M_alt    "P 1"
_space_group_IT_number       1

loop_
  _space_group_symop_operation_xyz
  'x, y, z'

loop_
  _atom_site_type_symbol
  _atom_site_label
  _atom_site_symmetry_multiplicity
  _atom_site_fract_x
  _atom_site_fract_y
  _atom_site_fract_z
  _atom_site_occupancy
  Al  Al1       1.0  0.995062539156976  0.49593228784901555  0.5020978154463194  1.0000
  Al  Al2       1.0  0.004975870278741501  0.9959293588868048  0.0021099574354934984  1.0000
  Al  Al3       1.0  0.4949383935930527  0.49955550365270796  0.5005983282669603  1.0000
  Al  Al4       1.0  0.5050862929110239  0.9995545448488061  0.0005956010459086938  1.0000
  H   H1        1.0  0.020684666047145604  0.6601246769348421  0.7040743653983769  1.0000
  H   H2        1.0  0.97937021504859  0.1601495354565898  0.2040643101620887  1.0000
  H   H3        1.0  0.04654258032667261  0.7972790750652832  0.8060368585674169  1.0000
  H   H4        1.0  0.9535394487406992  0.29730759006745433  0.30602243751140185  1.0000
  H   H5        1.0  0.5882919335999689  0.7642872414577582  0.8232968040974387  1.0000
  H   H6        1.0  0.4117933860746206  0.2643144917805813  0.3232826154001032  1.0000
  H   H7        1.0  0.4988473053939799  0.8208494966302168  0.5918193911657993  1.0000
  H   H8        1.0  0.42093327602965763  0.7336053038039695  0.6879900875687568  1.0000
  H   H9        1.0  0.5669859808851784  0.8658070946233278  0.6885344136568818  1.0000
  H   H10       1.0  0.5012141318220743  0.3208505221578761  0.09180761956135798  1.0000
  H   H11       1.0  0.43307800503357197  0.3658179012327734  0.18851852647912182  1.0000
  H   H12       1.0  0.5791024073845962  0.23359840272930646  0.18797445185031592  1.0000
  H   H13       1.0  0.23932927825102007  0.6466534045713389  0.44629810527665376  1.0000
  H   H14       1.0  0.7606927747702272  0.14665664576038745  0.9462993227364579  1.0000
  H   H15       1.0  0.740966019563608  0.3463150987602148  0.4915721502571202  1.0000
  H   H16       1.0  0.259052952061154  0.8463155066997741  0.9915771152667648  1.0000
  C   C1        1.0  0.24128224417164293  0.35839227054124473  0.4049532318563678  1.0000
  C   C2        1.0  0.7587638040991608  0.8583813791511122  0.9049661520611991  1.0000
  C   C3        1.0  0.253183106380817  0.3611203281503208  0.6343105345919328  1.0000
  C   C4        1.0  0.7468801141964859  0.8611235680560301  0.1343132760690793  1.0000
  C   C5        1.0  0.7521331996027599  0.6380041140679182  0.5948424030635949  1.0000
  C   C6        1.0  0.24791940275988372  0.1380145068681742  0.0948239960476656  1.0000
  C   C7        1.0  0.7407189910564825  0.6410612994978281  0.3682817050080089  1.0000
  C   C8        1.0  0.2592755055966479  0.14107954198635037  0.8682704674133177  1.0000
  C   C9        1.0  0.7474515978289491  0.7193912121846394  0.28622399799021986  1.0000
  C   C10       1.0  0.2525420088631877  0.21941340757832242  0.7862263046653695  1.0000
  C   C11       1.0  0.7487257006284481  0.7835551769568171  0.2167970857070003  1.0000
  C   C12       1.0  0.25129328387176747  0.28355938514039275  0.7167966420901877  1.0000
  C   C13       1.0  0.8881408651981033  0.7119279577114456  0.7156154438133413  1.0000
  C   C14       1.0  0.1118913453811246  0.21195927412800583  0.2155944137432897  1.0000
  C   C15       1.0  0.7350328150827609  0.7155532234216152  0.6596151967200684  1.0000
  C   C16       1.0  0.26502069670454637  0.21556849051594895  0.15960641831275524  1.0000
  C   C17       1.0  0.8974322681573953  0.7711369633344419  0.7871919385544645  1.0000
  C   C18       1.0  0.10264394231715808  0.2711536676525483  0.2871841932268708  1.0000
  C   C19       1.0  0.7399882967575521  0.7932570027489516  0.8348028759238062  1.0000
  C   C20       1.0  0.26007869786246834  0.2932626634846542  0.3348010982668228  1.0000
  C   C21       1.0  0.5465067366708782  0.7886827087032202  0.6571884575078428  1.0000
  C   C22       1.0  0.4535410041934683  0.2886869151370277  0.1571781446268901  1.0000
  O   O1        1.0  0.42210171180211387  0.40593110824604406  0.6085798128750355  1.0000
  O   O2        1.0  0.5779110173547439  0.9059317756181359  0.1085779103683464  1.0000
  O   O3        1.0  0.06782052437490901  0.39381830022021797  0.42382752990708644  1.0000
  O   O4        1.0  0.9322202801848151  0.8937994104839788  0.9238447984869893  1.0000
  O   O5        1.0  0.9067046901418863  0.6209046356523802  0.4075373645289774  1.0000
  O   O6        1.0  0.0932801364033438  0.1209117542498888  0.9075392623883191  1.0000
  O   O7        1.0  0.08656796377962192  0.37655922506998246  0.5954597221527963  1.0000
  O   O8        1.0  0.913478154099302  0.8765598440454027  0.09546655093118522  1.0000
  O   O9        1.0  0.9218462472639785  0.5928660276915706  0.5818454031842819  1.0000
  O   O10       1.0  0.07820460530876261  0.09288789089304571  0.0818382947119645  1.0000
  O   O11       1.0  0.40618649917027483  0.3757500411923615  0.4419491538241687  1.0000
  O   O12       1.0  0.5938747438569792  0.8757451669647554  0.9419548154092183  1.0000
  O   O13       1.0  0.24381947054981626  0.5726277860509369  0.488277908491078  1.0000
  O   O14       1.0  0.7561870333024318  0.07262315142381223  0.9882748298927384  1.0000
  O   O15       1.0  0.5893460489931357  0.6217497319678246  0.5568007285644826  1.0000
  O   O16       1.0  0.41067477392415697  0.12177397021844877  0.05677657039759511  1.0000
  O   O17       1.0  0.5681685422770358  0.6002445605067095  0.3929302912338386  1.0000
  O   O18       1.0  0.43184466714239983  0.1002470933660078  0.892926061146163  1.0000
  O   O19       1.0  0.7439402804801604  0.423764460788192  0.5090703126266475  1.0000
  O   O20       1.0  0.25610681008195973  0.923767261469017  0.009073683046643998  1.0000
