data_image0
_chemical_formula_structural       Mn2H28C32N20O2
_chemical_formula_sum              "Mn2 H28 C32 N20 O2"
_cell_length_a       7.5664281551379835
_cell_length_b       10.985023058511008
_cell_length_c       11.50721569492863
_cell_angle_alpha    116.60952225943704
_cell_angle_beta     94.4160388866418
_cell_angle_gamma    92.03938361970586

_space_group_name_H-M_alt    "P 1"
_space_group_IT_number       1

loop_
  _space_group_symop_operation_xyz
  'x, y, z'

loop_
  _atom_site_type_symbol
  _atom_site_label
  _atom_site_symmetry_multiplicity
  _atom_site_fract_x
  _atom_site_fract_y
  _atom_site_fract_z
  _atom_site_occupancy
  Mn  Mn1       1.0  0.7677266434517733  0.511029746237007  0.7196617395008502  1.0000
  Mn  Mn2       1.0  0.23227993363520477  0.48897880607757577  0.2803418939333184  1.0000
  H   H1        1.0  0.9129060357615444  0.710616694849655  0.010992433698142137  1.0000
  H   H2        1.0  0.08709794580627768  0.2893775650897723  0.9890067889748408  1.0000
  H   H3        1.0  0.862479631965435  0.17643266440479266  0.2416795650023857  1.0000
  H   H4        1.0  0.1375192393375642  0.8235789082498923  0.758327532342342  1.0000
  H   H5        1.0  0.7187472059909511  0.3465731369916583  0.18731178313245067  1.0000
  H   H6        1.0  0.2812392553168905  0.6534332603055545  0.8126959487567688  1.0000
  H   H7        1.0  0.5669908406055981  0.2782411132029807  0.9650259695623548  1.0000
  H   H8        1.0  0.4330029241309532  0.7217570841622987  0.034968277405276624  1.0000
  H   H9        1.0  0.5462846116174873  0.03337901914210311  0.7960317869200111  1.0000
  H   H10       1.0  0.45371800575274795  0.9666141267083932  0.20395820357067881  1.0000
  H   H11       1.0  0.6240883746175642  0.7907141838465532  0.7358363258533344  1.0000
  H   H12       1.0  0.37592490455843125  0.20929547886302655  0.2641716101373817  1.0000
  H   H13       1.0  0.6357836171908886  0.27771133687755173  0.4226909944652846  1.0000
  H   H14       1.0  0.36421445558423216  0.7222910282990256  0.5773104503676976  1.0000
  H   H15       1.0  0.6179998898924808  0.8090488927815683  0.27794360797441436  1.0000
  H   H16       1.0  0.3819869772845337  0.19094617616855908  0.7220480845839106  1.0000
  H   H17       1.0  0.7250857999905235  0.6635873250639859  0.3791058406199638  1.0000
  H   H18       1.0  0.27489601988506956  0.3364107786873305  0.6208885954456349  1.0000
  H   H19       1.0  0.8876041187071875  0.7657345884851877  0.5998789067997592  1.0000
  H   H20       1.0  0.11238374265269613  0.23425752589745488  0.40012202541616654  1.0000
  H   H21       1.0  0.9416761895567801  0.0195377710858935  0.729525198577285  1.0000
  H   H22       1.0  0.05831986364759695  0.9804563720840558  0.27046833546236826  1.0000
  H   H23       1.0  0.8823526297588344  0.2536461630542988  0.7454613980849061  1.0000
  H   H24       1.0  0.11764872994748998  0.746348025345867  0.2545324395577779  1.0000
  H   H25       1.0  0.6632762968119721  0.49553510129144457  0.9370471621465553  1.0000
  H   H26       1.0  0.33673491494247537  0.5044510728724277  0.06295078647198699  1.0000
  H   H27       1.0  0.48090274508415837  0.4542088953712236  0.8469612745861994  1.0000
  H   H28       1.0  0.5191073145890073  0.5457793181213546  0.15303833880352613  1.0000
  C   C1        1.0  0.8513586358759254  0.7871034583521774  0.9889645943664856  1.0000
  C   C2        1.0  0.1486447590958733  0.21289892759253348  0.011034537455138606  1.0000
  C   C3        1.0  0.7873161883875285  0.008429721547514602  0.0504737859794844  1.0000
  C   C4        1.0  0.2126759170964547  0.9915796787009228  0.949524213551136  1.0000
  C   C5        1.0  0.7945975497105948  0.14661844452579226  0.14491165451703839  1.0000
  C   C6        1.0  0.20540754808406092  0.8533891730884308  0.8551019352403627  1.0000
  C   C7        1.0  0.7156697135058818  0.24070207234216667  0.11319149282218179  1.0000
  C   C8        1.0  0.2843198766502866  0.7593094130056028  0.8868142010124413  1.0000
  C   C9        1.0  0.6282838413359925  0.20146192564925505  0.9868008867006991  1.0000
  C   C10       1.0  0.37171536259408816  0.7985384328147163  0.013202382180281885  1.0000
  C   C11       1.0  0.618077588494181  0.0671303531822076  0.892766899881657  1.0000
  C   C12       1.0  0.3819231051913832  0.9328709236740662  0.10722466826649672  1.0000
  C   C13       1.0  0.6976146314841357  0.9688191220698384  0.9234117804279833  1.0000
  C   C14       1.0  0.3023872518548102  0.031181218239112192  0.07658727923053017  1.0000
  C   C15       1.0  0.6922614386457298  0.8289656990101192  0.8341748204914338  1.0000
  C   C16       1.0  0.3077474216774902  0.1710388072631517  0.1658289722195505  1.0000
  C   C17       1.0  0.6806956535043797  0.21251123009429312  0.4662588261910087  1.0000
  C   C18       1.0  0.31930552196117645  0.7874962639029802  0.5337449416113528  1.0000
  C   C19       1.0  0.7117455602451344  0.9982800480739942  0.44825178177553254  1.0000
  C   C20       1.0  0.2882602820439645  0.0017203587737242012  0.5517509944044434  1.0000
  C   C21       1.0  0.6855226118824191  0.8545584436011991  0.37668584081859535  1.0000
  C   C22       1.0  0.31445812915399785  0.14544158532245177  0.6232980491510389  1.0000
  C   C23       1.0  0.7474955744387727  0.7744313264670025  0.43306321661022196  1.0000
  C   C24       1.0  0.252497640507265  0.22556075975962395  0.5669301693655626  1.0000
  C   C25       1.0  0.8395462226083411  0.8333353360274882  0.560153511362884  1.0000
  C   C26       1.0  0.16044419593198  0.16665462802360756  0.43983274891066765  1.0000
  C   C27       1.0  0.867964256625619  0.9731572771052441  0.6321710652488405  1.0000
  C   C28       1.0  0.13204497817731212  0.026835949745105798  0.3678219213600258  1.0000
  C   C29       1.0  0.8022163212579727  0.057395001043360594  0.5774929826336432  1.0000
  C   C30       1.0  0.19778789763300608  0.9426012116840136  0.4224975142537274  1.0000
  C   C31       1.0  0.8201596236855834  0.2011336956237813  0.6449338003100493  1.0000
  C   C32       1.0  0.17984622383509222  0.7988667030699119  0.3550681036651327  1.0000
  N   N1        1.0  0.7677807663807245  0.7386235860143486  0.8648963864428083  1.0000
  N   N2        1.0  0.23222987447243068  0.2613706896927255  0.1350988547099803  1.0000
  N   N3        1.0  0.8641703381914211  0.9140224308396869  0.08088776517256954  1.0000
  N   N4        1.0  0.13582632853346868  0.0859788854801593  0.9191114251164832  1.0000
  N   N5        1.0  0.7617560266822637  0.2789210173341132  0.5912619603345632  1.0000
  N   N6        1.0  0.23824557652984876  0.7210762755595396  0.4087375410328207  1.0000
  N   N7        1.0  0.651771995034565  0.0797631225360931  0.39449797199929293  1.0000
  N   N8        1.0  0.3482213839925237  0.9202310306348525  0.6054988990580271  1.0000
  N   N9        1.0  0.9318617408932257  0.5572740897304627  0.5976109461485064  1.0000
  N   N10       1.0  0.06813607791294629  0.4427251872606772  0.40238657936936306  1.0000
  N   N11       1.0  0.9999949158408159  0.500001555747012  0.5000036588456425  1.0000
  N   N12       1.0  0.9839047121348088  0.49780055824844294  0.844962830544766  1.0000
  N   N13       1.0  0.01610757827435089  0.5021978708088426  0.1550403288766518  1.0000
  N   N14       1.0  0.1264399637326221  0.46898753535432985  0.8678912739715016  1.0000
  N   N15       1.0  0.8735572056985816  0.5310199654904081  0.1321166271525627  1.0000
  N   N16       1.0  0.26839360430248144  0.4398059172294778  0.8935447962019223  1.0000
  N   N17       1.0  0.7316193633571969  0.5602007469889542  0.10646881472645472  1.0000
  N   N18       1.0  0.5236254999505191  0.5234565497208479  0.6114494733041838  1.0000
  N   N19       1.0  0.4763710716549028  0.47654375351190476  0.3885501549560928  1.0000
  N   N20       1.0  0.5000012149000028  0.5000043896603827  0.5000156581426936  1.0000
  O   O1        1.0  0.6119511280742955  0.45726856348971273  0.8439928918984804  1.0000
  O   O2        1.0  0.38806039596305203  0.5427359490906198  0.15600930820443185  1.0000
