data_image0
_chemical_formula_structural       Zn4H20C78I12O56
_chemical_formula_sum              "Zn4 H20 C78 I12 O56"
_cell_length_a       12.235338231658744
_cell_length_b       12.088659975220875
_cell_length_c       23.32771224694271
_cell_angle_alpha    93.05823243370793
_cell_angle_beta     88.0326483802162
_cell_angle_gamma    89.65071316834872

_space_group_name_H-M_alt    "P 1"
_space_group_IT_number       1

loop_
  _space_group_symop_operation_xyz
  'x, y, z'

loop_
  _atom_site_type_symbol
  _atom_site_label
  _atom_site_symmetry_multiplicity
  _atom_site_fract_x
  _atom_site_fract_y
  _atom_site_fract_z
  _atom_site_occupancy
  Zn  Zn1       1.0  0.5125516435961187  0.8923599266854721  0.4896374293949961  1.0000
  Zn  Zn2       1.0  0.4943220880772897  0.11926016498260586  0.5087644285752688  1.0000
  Zn  Zn3       1.0  0.10446587723259879  0.49158459810711713  0.9893997674626435  1.0000
  Zn  Zn4       1.0  0.883110937783229  0.4940463634861913  0.009167901416994096  1.0000
  H   H1        1.0  0.3333834479088793  0.8282581445458131  0.7418261159302801  1.0000
  H   H2        1.0  0.19502918161738583  0.6745712049974345  0.4334390187575893  1.0000
  H   H3        1.0  0.31609906884800415  0.588687275071315  0.8401932614481139  1.0000
  H   H4        1.0  0.7699367229581001  0.4573540109937824  0.155669314065463  1.0000
  H   H5        1.0  0.8120263218999852  0.5121558904159826  0.8340605516123674  1.0000
  H   H6        1.0  0.1115998456883602  0.465309888158643  0.17491921182332254  1.0000
  H   H7        1.0  0.9444097911922213  0.1253423889763781  0.028210916020931592  1.0000
  H   H8        1.0  0.968776488326789  0.8715081962485057  0.9775426236221848  1.0000
  H   H9        1.0  0.3614083512054691  0.33165899257986803  0.6699861886162495  1.0000
  H   H10       1.0  0.6174868754551069  0.7475780699247705  0.3521120180194898  1.0000
  H   H11       1.0  0.48634240210134294  0.7963069616202031  0.647169754307825  1.0000
  H   H12       1.0  0.7325922987001902  0.27352566884773916  0.2739916151923367  1.0000
  H   H13       1.0  0.5107996738880161  0.20124507145352052  0.3538446483517035  1.0000
  H   H14       1.0  0.6593600295691148  0.15481507464821925  0.7214341620259006  1.0000
  H   H15       1.0  0.18785150679433826  0.6787071634631087  0.3095655142515383  1.0000
  H   H16       1.0  0.21560746610555268  0.9119881225797923  0.8736273099597652  1.0000
  H   H17       1.0  0.7940203264551257  0.13553123068314216  0.1363683745788933  1.0000
  H   H18       1.0  0.8341455058422936  0.6348910190109365  0.7364179329222295  1.0000
  H   H19       1.0  0.2004097083299712  0.33304311876444354  0.2606365598422755  1.0000
  H   H20       1.0  0.798659311753468  0.24634738627115374  0.5285336632899984  1.0000
  C   C1        1.0  0.6353754283957471  0.07038419265638399  0.42014450797775277  1.0000
  C   C2        1.0  0.12989836011743708  0.11940434621561015  0.1699344261780311  1.0000
  C   C3        1.0  0.898480555890039  0.7544346042331184  0.8584288337132336  1.0000
  C   C4        1.0  0.14684836560287098  0.2078817503604427  0.1326105559042574  1.0000
  C   C5        1.0  0.1834176257799314  0.07021372573681359  0.7207660464280535  1.0000
  C   C6        1.0  0.8083810761521307  0.9775655199135398  0.2873530641149813  1.0000
  C   C7        1.0  0.2693948471112364  0.0832972237331333  0.680183023187837  1.0000
  C   C8        1.0  0.7245801182257949  0.9847539331963374  0.3301322607999282  1.0000
  C   C9        1.0  0.81064439132669  0.8880884288071795  0.6986389583888197  1.0000
  C   C10       1.0  0.20577777525804208  0.07918862002367887  0.2985312794401196  1.0000
  C   C11       1.0  0.7305599374866816  0.8891665781403828  0.6566707427436569  1.0000
  C   C12       1.0  0.3709862418885023  0.026448234757125995  0.5867519134265748  1.0000
  C   C13       1.0  0.28574723621517956  0.0662160080315246  0.3397309230064778  1.0000
  C   C14       1.0  0.9868283108945594  0.976355481996336  0.7476073480104901  1.0000
  C   C15       1.0  0.018301172594696904  0.022680740669130693  0.2529030480829206  1.0000
  C   C16       1.0  0.6538826449879808  0.9629466358533132  0.5671143076306039  1.0000
  C   C17       1.0  0.3614359704920956  0.9705201822089787  0.42308135373838957  1.0000
  C   C18       1.0  0.10167147470504996  0.9859256951208761  0.7119762603272548  1.0000
  C   C19       1.0  0.9070117069402527  0.04196388316434958  0.2924717844984954  1.0000
  C   C20       1.0  0.2915550177406772  0.0035182348109331013  0.6351020401598504  1.0000
  C   C21       1.0  0.7190290384638304  0.07404671252051997  0.37146128429659336  1.0000
  C   C22       1.0  0.8956326456311744  0.9696202301455725  0.7005709708365444  1.0000
  C   C23       1.0  0.8797757097244343  0.25586262637183665  0.8284201912118192  1.0000
  C   C24       1.0  0.11141314500474658  0.010061665551184299  0.296846501102344  1.0000
  C   C25       1.0  0.7360605845462017  0.9641369640567632  0.613207648986851  1.0000
  C   C26       1.0  0.2795531708492475  0.9797952393123306  0.37729880813370187  1.0000
  C   C27       1.0  0.98797480160826  0.8714842427689076  0.7862451050577733  1.0000
  C   C28       1.0  0.03982130755620969  0.12144759271109248  0.2112317669558337  1.0000
  C   C29       1.0  0.9984909370453678  0.7018604889238843  0.8689637172534503  1.0000
  C   C30       1.0  0.05842202003658059  0.27888323417370486  0.1226594341481686  1.0000
  C   C31       1.0  0.9621745185717997  0.07676917108845059  0.7937432109175547  1.0000
  C   C32       1.0  0.01507823367006009  0.9173776454723493  0.2080302106825016  1.0000
  C   C33       1.0  0.9291377756364696  0.25082658049511497  0.8811070953313376  1.0000
  C   C34       1.0  0.056423066390493694  0.7249401265931398  0.1726560390343082  1.0000
  C   C35       1.0  0.9940459897107913  0.7365382123573593  0.1241695866141868  1.0000
  C   C36       1.0  0.9296773589540807  0.34494877798060486  0.9257937355955691  1.0000
  C   C37       1.0  0.9805924392891185  0.6433635344987039  0.0799562575099344  1.0000
  C   C38       1.0  0.01441336805721249  0.6280706933961894  0.91796350318657  1.0000
  C   C39       1.0  0.0516650559058931  0.353079872570845  0.0730031150024359  1.0000
  C   C40       1.0  0.1266393169471201  0.9074342763495408  0.6648417201727455  1.0000
  C   C41       1.0  0.9039973409690135  0.1220792736020471  0.34068756371205217  1.0000
  C   C42       1.0  0.2286306524271779  0.9071576346644576  0.6337843247173893  1.0000
  C   C43       1.0  0.8040758069372701  0.15008761994291583  0.3712663694102005  1.0000
  C   C44       1.0  0.8974978068895679  0.04572691993036669  0.6552261112672184  1.0000
  C   C45       1.0  0.008201625047938393  0.07268394533294747  0.8495782330450511  1.0000
  C   C46       1.0  0.1017920512368917  0.9313872665867534  0.3404250561996847  1.0000
  C   C47       1.0  0.8198750702439527  0.0416328793519725  0.6121073136436621  1.0000
  C   C48       1.0  0.18779247787079356  0.9121764088546411  0.37714210067358067  1.0000
  C   C49       1.0  0.0819764376404422  0.8022148928969273  0.7899158622483284  1.0000
  C   C50       1.0  0.9639534582649247  0.21017943090493665  0.20798308509531438  1.0000
  C   C51       1.0  0.08980492801646991  0.7289778005221806  0.8348160333916609  1.0000
  C   C52       1.0  0.9655822651544383  0.2756541632260578  0.1598065643012916  1.0000
  C   C53       1.0  0.8889937679431199  0.16708982915793766  0.786334916341687  1.0000
  C   C54       1.0  0.07003159402454169  0.8136956022598338  0.2135248776348746  1.0000
  C   C55       1.0  0.18510705235608782  0.7873171949463821  0.7517320834896211  1.0000
  C   C56       1.0  0.9612606146392794  0.9287226178951327  0.155164277850055  1.0000
  C   C57       1.0  0.8821622717041036  0.2581695409781446  0.2528281247876834  1.0000
  C   C58       1.0  0.8051022458315344  0.18827601260233  0.7410802686323236  1.0000
  C   C59       1.0  0.15947517948397663  0.7832671699879156  0.2539053683604493  1.0000
  C   C60       1.0  0.07643954413548927  0.9826671879284772  0.8745698296518399  1.0000
  C   C61       1.0  0.9112607326214288  0.03092051236708219  0.1316616228207934  1.0000
  C   C62       1.0  0.7904296634383813  0.7830569155410315  0.73108165344496  1.0000
  C   C63       1.0  0.2341230023177799  0.1830923739970132  0.2667052361942766  1.0000
  C   C64       1.0  0.8282964802919749  0.10841854658944779  0.5588024070829931  1.0000
  C   C65       1.0  0.17897393885181148  0.8278267545302351  0.4224632233123629  1.0000
  C   C66       1.0  0.20403622203969715  0.6959426510602922  0.8509559438159897  1.0000
  C   C67       1.0  0.9857440661226774  0.15474752891334018  0.8929342217070584  1.0000
  C   C68       1.0  0.8579043370156185  0.3287514253446489  0.1457860172262784  1.0000
  C   C69       1.0  0.805782611750935  0.3549549176571531  0.8229307809039739  1.0000
  C   C70       1.0  0.12461581330943261  0.6207304134715697  0.1741083895201285  1.0000
  C   C71       1.0  0.0198983317411034  0.14290952476130053  0.9540761775948283  1.0000
  C   C72       1.0  0.9076772370320754  0.8597837168881667  0.055392599182724205  1.0000
  C   C73       1.0  0.34804370277565505  0.18008936888620036  0.6844541448974368  1.0000
  C   C74       1.0  0.6372620936634519  0.8957530404985403  0.3327298847832196  1.0000
  C   C75       1.0  0.6415957997487283  0.8027945003761162  0.6519222072696778  1.0000
  C   C76       1.0  0.3640624246096706  0.16028447579965638  0.3516617859472504  1.0000
  C   C77       1.0  0.9547488738361735  0.8411306479093452  0.1133916523221146  1.0000
  C   C78       1.0  0.8976171467054428  0.8490924538355029  0.8249999553555725  1.0000
  I   I1        1.0  0.29121068822620794  0.756625442972364  0.5932329684616278  1.0000
  I   I2        1.0  0.3003294445110356  0.22995275945141455  0.0922799276041744  1.0000
  I   I3        1.0  0.020694610747007385  0.7894015170485316  0.6256909800242667  1.0000
  I   I4        1.0  0.03459415531308001  0.19625443684477514  0.3869470651309541  1.0000
  I   I5        1.0  0.7806444188812734  0.30747850527523457  0.4153749481124862  1.0000
  I   I6        1.0  0.013472299959694595  0.171880513061943  0.6383195640883557  1.0000
  I   I7        1.0  0.961661652856904  0.8384062851533325  0.3645658103581866  1.0000
  I   I8        1.0  0.7624070684017852  0.9566410831638373  0.8466694157634791  1.0000
  I   I9        1.0  0.2428176442649317  0.9875897094123616  0.15597149895464918  1.0000
  I   I10       1.0  0.18784213371128536  0.20301899097071185  0.7845105621007987  1.0000
  I   I11       1.0  0.7686511480365325  0.8456616396913359  0.2270639041330398  1.0000
  I   I12       1.0  0.7475531451090446  0.69221476208142  0.8898308859814038  1.0000
  O   O1        1.0  0.6146329206524186  0.9737924638731741  0.4352072001195282  1.0000
  O   O2        1.0  0.8824160528574438  0.6118147645258104  0.0703830032416235  1.0000
  O   O3        1.0  0.9323277224529037  0.6038877621494763  0.9487957314777447  1.0000
  O   O4        1.0  0.13861633429934983  0.38505350058841964  0.047153979501239  1.0000
  O   O5        1.0  0.11248826831058523  0.595580316903387  0.9269611900725536  1.0000
  O   O6        1.0  0.955022615660063  0.3803169611482814  0.0605261845813772  1.0000
  O   O7        1.0  0.8405016829116292  0.38316052716756127  0.9497407449573815  1.0000
  O   O8        1.0  0.0672388269245872  0.6053620398538156  0.0551741424775329  1.0000
  O   O9        1.0  0.19578674700530027  0.7043976375829288  0.7198056802962965  1.0000
  O   O10       1.0  0.2688455623882717  0.8561269247441173  0.7643944211639422  1.0000
  O   O11       1.0  0.9091995785072058  0.333578470983845  0.2860119821490628  1.0000
  O   O12       1.0  0.3885851716398747  0.1277013772440583  0.5749505001263273  1.0000
  O   O13       1.0  0.7768878535191063  0.22696647432093892  0.2462111129438611  1.0000
  O   O14       1.0  0.8103628849518785  0.2684434316863999  0.7115395437874029  1.0000
  O   O15       1.0  0.7162571071981816  0.12301105256290158  0.7445976831045371  1.0000
  O   O16       1.0  0.25081861714487264  0.8219109116712245  0.2553180689297889  1.0000
  O   O17       1.0  0.12853948041370697  0.6944778701423855  0.2836836698145149  1.0000
  O   O18       1.0  0.0381372377494316  0.9284653745633803  0.9134306770944461  1.0000
  O   O19       1.0  0.18023643561478758  0.9764871299857982  0.8562536541773298  1.0000
  O   O20       1.0  0.9574935182009199  0.06974927431876668  0.0895137448819412  1.0000
  O   O21       1.0  0.815444620515841  0.0642166437503136  0.1540286384923277  1.0000
  O   O22       1.0  0.7024931045860683  0.7665645214656747  0.7554133936992357  1.0000
  O   O23       1.0  0.6149193966907092  0.0566681171380949  0.5564878337045869  1.0000
  O   O24       1.0  0.866543582293488  0.7021074651800343  0.7213897537942772  1.0000
  O   O25       1.0  0.32274278111415095  0.19333052363766967  0.2419049227898498  1.0000
  O   O26       1.0  0.1635999002056963  0.26907464387735297  0.2765694997861132  1.0000
  O   O27       1.0  0.859054200668396  0.06469913397808107  0.512579246248059  1.0000
  O   O28       1.0  0.7928503572808409  0.21391765612401764  0.5665392114285268  1.0000
  O   O29       1.0  0.1581551982636356  0.8510601105519126  0.4730048000077858  1.0000
  O   O30       1.0  0.20319535233748803  0.722755961485177  0.4010551223144248  1.0000
  O   O31       1.0  0.26069044713562306  0.7616883353330975  0.8785129683341283  1.0000
  O   O32       1.0  0.24067736694788514  0.5978122558251187  0.8280855112431097  1.0000
  O   O33       1.0  0.7845339537875093  0.27344861522120567  0.1237853368181661  1.0000
  O   O34       1.0  0.4001544567311229  0.874366951836798  0.43261603081140276  1.0000
  O   O35       1.0  0.843617648903617  0.43411700799548925  0.1655904386205052  1.0000
  O   O36       1.0  0.7065418318875274  0.3508709014434499  0.8219144353514807  1.0000
  O   O37       1.0  0.8642729569129415  0.4499488512366482  0.8249423893577159  1.0000
  O   O38       1.0  0.22402471601534302  0.6188102897614199  0.16935039110697397  1.0000
  O   O39       1.0  0.06201950740313579  0.5296450893001249  0.1786865219954521  1.0000
  O   O40       1.0  0.11383329568597837  0.13764573704025906  0.9696218471600276  1.0000
  O   O41       1.0  0.9287980233550144  0.1425035939309609  0.9876481361773841  1.0000
  O   O42       1.0  0.8131878501982469  0.8852184666015858  0.047384743076236184  1.0000
  O   O43       1.0  0.988153709050195  0.843801650228677  0.0150527312438768  1.0000
  O   O44       1.0  0.44106407424543886  0.17116789202685107  0.7009795255798751  1.0000
  O   O45       1.0  0.6297872339638529  0.869345076511912  0.5423516621233091  1.0000
  O   O46       1.0  0.30520177541038157  0.27459825857547315  0.665658024050984  1.0000
  O   O47       1.0  0.5440234728703572  0.9053547910547195  0.317403137703657  1.0000
  O   O48       1.0  0.676468878917383  0.801840804673375  0.35555508038009986  1.0000
  O   O49       1.0  0.6578483736733601  0.7056106435278051  0.6376592881107683  1.0000
  O   O50       1.0  0.5413187603013653  0.8501161945491729  0.6611630486602209  1.0000
  O   O51       1.0  0.3308773255214205  0.24992350843917413  0.37236355022952233  1.0000
  O   O52       1.0  0.46973980502181695  0.13696413014394437  0.3388674420309741  1.0000
  O   O53       1.0  0.384553528703499  0.06053094310336598  0.449919752240362  1.0000
  O   O54       1.0  0.5935770331807148  0.15948599801632207  0.4443442609473606  1.0000
  O   O55       1.0  0.4124494154886235  0.9443895115936695  0.5580005596572306  1.0000
  O   O56       1.0  0.0252360648930363  0.37767397350772564  0.9373006200735006  1.0000
