data_image0
_chemical_formula_structural       Ti12H108C156N4O48
_chemical_formula_sum              "Ti12 H108 C156 N4 O48"
_cell_length_a       11.943330393000272
_cell_length_b       25.00118073479974
_cell_length_c       25.00115460081155
_cell_angle_alpha    120.0000367401031
_cell_angle_beta     89.99997669239131
_cell_angle_gamma    90.00001859243822

_space_group_name_H-M_alt    "P 1"
_space_group_IT_number       1

loop_
  _space_group_symop_operation_xyz
  'x, y, z'

loop_
  _atom_site_type_symbol
  _atom_site_label
  _atom_site_symmetry_multiplicity
  _atom_site_fract_x
  _atom_site_fract_y
  _atom_site_fract_z
  _atom_site_occupancy
  Ti  Ti1       1.0  0.605856100595851  8.159964863988834e-07  0.0819298643188944  1.0000
  Ti  Ti2       1.0  0.6058557347667987  0.08192916245428719  0.999999440866233  1.0000
  Ti  Ti3       1.0  0.6058560577371354  0.9180709327875223  0.9180715026052155  1.0000
  Ti  Ti4       1.0  0.10585903289725712  0.9999992348588833  0.9180689538019138  1.0000
  Ti  Ti5       1.0  0.10585604957583432  0.9180697337557717  5.319024297419471e-07  1.0000
  Ti  Ti6       1.0  0.10585656389315552  0.0819318560608835  0.0819309772282608  1.0000
  Ti  Ti7       1.0  0.8941441983627955  8.268642944077161e-07  0.0819298419661862  1.0000
  Ti  Ti8       1.0  0.8941449927916594  0.9180711745843981  0.9180712493229279  1.0000
  Ti  Ti9       1.0  0.8941421579589888  0.08192877334062836  0.9999990185319801  1.0000
  Ti  Ti10      1.0  0.3941446188018388  0.9999990147975526  0.9180691623789201  1.0000
  Ti  Ti11      1.0  0.394142987085104  0.0819320359809907  0.081931585786883  1.0000
  Ti  Ti12      1.0  0.3941433100552062  0.918069513694505  7.404793081936214e-07  1.0000
  H   H1        1.0  0.65605923934546  0.846948595862358  0.2397429908114361  1.0000
  H   H2        1.0  0.6560616320915146  0.3927947333365225  0.15305099832706762  1.0000
  H   H3        1.0  0.656060726367855  0.7602561887043252  0.607204514956159  1.0000
  H   H4        1.0  0.15606004948259064  0.153051396901354  0.7602566813651492  1.0000
  H   H5        1.0  0.1560610058861229  0.6072052594273102  0.8469486738492618  1.0000
  H   H6        1.0  0.15606107432217442  0.2397439731118354  0.3927957881314299  1.0000
  H   H7        1.0  0.8439412026683757  0.1530520652416953  0.3927941602643656  1.0000
  H   H8        1.0  0.8439420385668941  0.6072057740486372  0.7602568420994231  1.0000
  H   H9        1.0  0.843941037587591  0.23974269889241387  0.8469493500642926  1.0000
  H   H10       1.0  0.34394011001109703  0.8469483416687852  0.6072058827588193  1.0000
  H   H11       1.0  0.34394178597464986  0.39279360197009794  0.239742631889726  1.0000
  H   H12       1.0  0.3439411123791631  0.7602566771262644  0.15305012392498438  1.0000
  H   H13       1.0  0.343938968189832  0.1530514039839589  0.7602566667977726  1.0000
  H   H14       1.0  0.34393908730596934  0.6072052665098867  0.8469486592819493  1.0000
  H   H15       1.0  0.34393915574201384  0.2397439801944117  0.3927957735641172  1.0000
  H   H16       1.0  0.8439398326274915  0.8469486029450268  0.2397429762439316  1.0000
  H   H17       1.0  0.8439380389362017  0.39279427856096305  0.15305144561892095  1.0000
  H   H18       1.0  0.8439396450750892  0.7602561957869369  0.6072045003887822  1.0000
  H   H19       1.0  0.15605951672906573  0.8469483345861164  0.6072058973263309  1.0000
  H   H20       1.0  0.15605784354304575  0.3927935948873014  0.2397426464574934  1.0000
  H   H21       1.0  0.15605884452251934  0.760256900972564  0.15304990756310846  1.0000
  H   H22       1.0  0.6560589348115544  0.1530520581589627  0.3927941748320052  1.0000
  H   H23       1.0  0.6560572588478878  0.6072057669658052  0.7602568566672617  1.0000
  H   H24       1.0  0.6560587697311321  0.2397431536677529  0.846948902772894  1.0000
  H   H25       1.0  0.6526054729896347  0.9060686933922  0.1842866045327654  1.0000
  H   H26       1.0  0.6526069702322986  0.278218367413146  0.093932238640825  1.0000
  H   H27       1.0  0.6526077230616212  0.815713025741026  0.7217806926173438  1.0000
  H   H28       1.0  0.15260535753694177  0.09393209907387508  0.8157138681428364  1.0000
  H   H29       1.0  0.1526055348691386  0.7217816250901876  0.9060674340712892  1.0000
  H   H30       1.0  0.1526081311890408  0.18428650490436377  0.27821944195355286  1.0000
  H   H31       1.0  0.8473967165767816  0.09393416978137036  0.2782176138341725  1.0000
  H   H32       1.0  0.8473950274222447  0.7217823376849354  0.815715569152033  1.0000
  H   H33       1.0  0.8473964782072231  0.18428426203616505  0.906066937708779  1.0000
  H   H34       1.0  0.3473964035535388  0.9060656064792242  0.7217822596009427  1.0000
  H   H35       1.0  0.3473964181334922  0.278217269523239  0.18428367337200768  1.0000
  H   H36       1.0  0.34739580463566716  0.8157159142058036  0.09393333570807284  1.0000
  H   H37       1.0  0.3473944091204118  0.09393170643558339  0.8157134530579953  1.0000
  H   H38       1.0  0.34739374916521376  0.7217812324518604  0.9060670189865121  1.0000
  H   H39       1.0  0.34739215904809845  0.18428651224727588  0.2782194268507752  1.0000
  H   H40       1.0  0.8473936872856813  0.9060687007352686  0.18428658942966794  1.0000
  H   H41       1.0  0.847393509953584  0.27821797477475496  0.09393182355617571  1.0000
  H   H42       1.0  0.8473917509206501  0.8157134330653408  0.7217810774962459  1.0000
  H   H43       1.0  0.1526040028205173  0.9060655991359995  0.721782274704367  1.0000
  H   H44       1.0  0.15260401740047064  0.27821726218000725  0.18428368847543203  1.0000
  H   H45       1.0  0.1526042411902182  0.8157161377916466  0.09393311988191759  1.0000
  H   H46       1.0  0.6526034785561878  0.0939339315090706  0.2782178598671834  1.0000
  H   H47       1.0  0.6526043012640202  0.7217823303417674  0.8157155842553294  1.0000
  H   H48       1.0  0.6526049147618452  0.1842836856592027  0.9060659219192573  1.0000
  H   H49       1.0  0.6071264097155621  0.7728122286323611  0.3658763696601639  1.0000
  H   H50       1.0  0.6071264073690942  0.5930640408180139  0.22718729671857574  1.0000
  H   H51       1.0  0.6071280189298065  0.6341225501316645  0.40693554188683834  1.0000
  H   H52       1.0  0.10712654187333474  0.22718776044200695  0.6341233101045916  1.0000
  H   H53       1.0  0.10712654421962502  0.40693571732731465  0.7728126139757022  1.0000
  H   H54       1.0  0.10712660723348932  0.3658773770660986  0.593064999718507  1.0000
  H   H55       1.0  0.8928755667828698  0.2271903978782674  0.5930656931746299  1.0000
  H   H56       1.0  0.8928764483178498  0.40693457378068126  0.6341239819281839  1.0000
  H   H57       1.0  0.8928763746617322  0.36587580298701283  0.7728104350131488  1.0000
  H   H58       1.0  0.39287543228519445  0.7728093818112357  0.4069341732079722  1.0000
  H   H59       1.0  0.39287706261243466  0.5930648059275185  0.36587548447253937  1.0000
  H   H60       1.0  0.3928762989811292  0.6341239767025542  0.22718943136932523  1.0000
  H   H61       1.0  0.39287347239451986  0.22718777121401248  0.6341232879489169  1.0000
  H   H62       1.0  0.3928734747408456  0.4069353281179248  0.7728121918383479  1.0000
  H   H63       1.0  0.39287270046727935  0.3658773878380757  0.5930649775628964  1.0000
  H   H64       1.0  0.8928733402367471  0.7728122394043667  0.3658763475044822  1.0000
  H   H65       1.0  0.8928741751777097  0.5930636516086524  0.22718687458115738  1.0000
  H   H66       1.0  0.8928724375889845  0.6341227918326098  0.4069352888018329  1.0000
  H   H67       1.0  0.10712431532702743  0.7728093710390739  0.4069341953639736  1.0000
  H   H68       1.0  0.10712175921729283  0.5930647951552006  0.3658755066288677  1.0000
  H   H69       1.0  0.10712434473553152  0.6341243659117595  0.22718985350707047  1.0000
  H   H70       1.0  0.6071236125373077  0.22719038710607015  0.5930657153306953  1.0000
  H   H71       1.0  0.6071236567848645  0.40693496298985116  0.634124404065993  1.0000
  H   H72       1.0  0.6071244204161702  0.36587579221481537  0.7728104571692141  1.0000
  H   H73       1.0  0.6039489477293644  0.8305904852898608  0.31044108662175773  1.0000
  H   H74       1.0  0.6039488875316936  0.4798509275632128  0.16940915954153715  1.0000
  H   H75       1.0  0.603948809179272  0.6895574063695521  0.5201489628415175  1.0000
  H   H76       1.0  0.10394899252681712  0.16940973447397314  0.6895583627062223  1.0000
  H   H77       1.0  0.10394905272431033  0.5201490612715887  0.8305905207159582  1.0000
  H   H78       1.0  0.1039499683637359  0.31044252058860883  0.479851579256632  1.0000
  H   H79       1.0  0.8960505892895941  0.16941203125130497  0.47985269319676144  1.0000
  H   H80       1.0  0.8960506200116358  0.5201481063773841  0.6895586054496263  1.0000
  H   H81       1.0  0.8960504872993625  0.3104412682867163  0.8305889797833287  1.0000
  H   H82       1.0  0.3960512346745375  0.8305883795880504  0.5201473417455773  1.0000
  H   H83       1.0  0.39605120395252413  0.4798519044805688  0.31044102951103275  1.0000
  H   H84       1.0  0.3960504993772602  0.689558111660766  0.16941048612523701  1.0000
  H   H85       1.0  0.39605093438071753  0.16940951455651287  0.6895585709873231  1.0000
  H   H86       1.0  0.39605015729099347  0.5201490722831323  0.8305904980676074  1.0000
  H   H87       1.0  0.396049398355629  0.31044253160008856  0.4798515566084092  1.0000
  H   H88       1.0  0.8960500522960119  0.8305908962828072  0.31044146395507966  1.0000
  H   H89       1.0  0.896050829385807  0.4798505385933894  0.1694087369114428  1.0000
  H   H90       1.0  0.8960515883209227  0.6895576483101993  0.5201487092635162  1.0000
  H   H91       1.0  0.1039492928204524  0.8305883685764713  0.5201473643939919  1.0000
  H   H92       1.0  0.10394758752330091  0.47985143161085386  0.3104415140186205  1.0000
  H   H93       1.0  0.10394939481054172  0.6895585006306177  0.16941090875527465  1.0000
  H   H94       1.0  0.6039486474355444  0.16941162025832324  0.4798523158635035  1.0000
  H   H95       1.0  0.6039495154449528  0.5201480953658333  0.689558628097977  1.0000
  H   H96       1.0  0.6039485454452846  0.3104412572751442  0.8305890024317434  1.0000
  H   H97       1.0  0.7499996401295946  0.9058261971312122  0.044313821937393576  1.0000
  H   H98       1.0  0.7500001918926743  0.1384883672587236  0.09417441882260388  1.0000
  H   H99       1.0  0.7500001438433088  0.9556861640813852  0.8615114414286396  1.0000
  H   H100      1.0  0.25000024198062937  0.09417443362560364  0.9556860047238445  1.0000
  H   H101      1.0  0.24999969021726542  0.8615110016772078  0.9058250697343198  1.0000
  H   H102      1.0  0.24999973826655977  0.04431400481735891  0.1384888470916437  1.0000
  H   H103      1.0  0.7500001576199934  0.0941764704377448  0.1384904081240279  1.0000
  H   H104      1.0  0.7500000710080243  0.8615097933416394  0.9556856092093753  1.0000
  H   H105      1.0  0.7499998111222227  0.044314263779220785  0.9058243569462049  1.0000
  H   H106      1.0  0.24999972449008825  0.905823529408629  0.8615092494850529  1.0000
  H   H107      1.0  0.2499998111020575  0.1384902065047342  0.044314048399705507  1.0000
  H   H108      1.0  0.25000007098761057  0.955686305100919  0.09417633155575802  1.0000
  C   C1        1.0  0.5863994509592204  0.8407922446307482  0.20901622133364145  1.0000
  C   C2        1.0  0.586399309674512  0.36822424995590103  0.15920796642042487  1.0000
  C   C3        1.0  0.5863992523691907  0.7909831844907131  0.6317749634555483  1.0000
  C   C4        1.0  0.08639856438438193  0.15920837379130134  0.7909836306975179  1.0000
  C   C5        1.0  0.08639870566894103  0.6317757375557064  0.840791716558577  1.0000
  C   C6        1.0  0.08639960026130211  0.20901634116285817  0.3682251813824351  1.0000
  C   C7        1.0  0.9136026893624275  0.1592093429518755  0.36822489738936065  1.0000
  C   C8        1.0  0.9136018332911037  0.6317763759989035  0.790984491722206  1.0000
  C   C9        1.0  0.9136025036837054  0.20901625798337878  0.8407919161283458  1.0000
  C   C10       1.0  0.4136032459506895  0.8407903764237119  0.6317758276197125  1.0000
  C   C11       1.0  0.41360326473532893  0.36822426709280626  0.2090153095688478  1.0000
  C   C12       1.0  0.4136034316299516  0.7909841541793199  0.15920811609215954  1.0000
  C   C13       1.0  0.4136012684383985  0.15920838612609595  0.7909836053275326  1.0000
  C   C14       1.0  0.41360140972296494  0.6317757498905083  0.8407916911885849  1.0000
  C   C15       1.0  0.4136006297407136  0.20901658442662807  0.36822492508305515  1.0000
  C   C16       1.0  0.9136004804384472  0.8407922569654787  0.20901619596378404  1.0000
  C   C17       1.0  0.913600339153746  0.36822426229063865  0.1592079410505676  1.0000
  C   C18       1.0  0.9136011191356347  0.7909829658964398  0.6317751690151425  1.0000
  C   C19       1.0  0.0863963554598683  0.8407905950178005  0.6317756220605091  1.0000
  C   C20       1.0  0.0863963742441527  0.368224023828816  0.20901556586868253  1.0000
  C   C21       1.0  0.0863965411389174  0.7909845418257648  0.15920854144415136  1.0000
  C   C22       1.0  0.586396636158824  0.1592093306169531  0.3682249227596088  1.0000
  C   C23       1.0  0.586398291949685  0.6317763636640735  0.7909845170922623  1.0000
  C   C24       1.0  0.5863972877675608  0.2090154456856865  0.8407911415351775  1.0000
  C   C25       1.0  0.5859716218578088  0.8734864613998639  0.17755228071888504  1.0000
  C   C26       1.0  0.5859747969136039  0.3040661229377193  0.12651299625556328  1.0000
  C   C27       1.0  0.5859738936659867  0.8224469256392553  0.6959332434230417  1.0000
  C   C28       1.0  0.08597487220431792  0.12651312609824586  0.8224470023444611  1.0000
  C   C29       1.0  0.08597588358518492  0.6959348335571178  0.8734881176637046  1.0000
  C   C30       1.0  0.08597678683326393  0.17755329276945284  0.3040662086921415  1.0000
  C   C31       1.0  0.9140288849295076  0.12651523545268623  0.3040666418409259  1.0000
  C   C32       1.0  0.9140296957294964  0.6959342956494652  0.8224493247506216  1.0000
  C   C33       1.0  0.9140278208182268  0.17755175309311969  0.873486031337734  1.0000
  C   C34       1.0  0.4140260598029286  0.8734851148653464  0.69593425215448  1.0000
  C   C35       1.0  0.41402776086516013  0.3040656546872641  0.17755116926290526  1.0000
  C   C36       1.0  0.4140254493400591  0.8224480900677591  0.12651296992419955  1.0000
  C   C37       1.0  0.4140257483897969  0.1265122766255403  0.8224470387860735  1.0000
  C   C38       1.0  0.41402424790862824  0.6959346149947551  0.8734883231576659  1.0000
  C   C39       1.0  0.4140234765820878  0.17755330513606546  0.3040661832567153  1.0000
  C   C40       1.0  0.9140283590553793  0.8734864737668603  0.1775522552826772  1.0000
  C   C41       1.0  0.9140248358118656  0.30406550439401775  0.12651280176771  1.0000
  C   C42       1.0  0.9140256071391805  0.8224469380060525  0.695933217987225  1.0000
  C   C43       1.0  0.08597350904247489  0.8734857334089483  0.695934446642518  1.0000
  C   C44       1.0  0.08597186095498441  0.3040656423203032  0.1775511946990491  1.0000
  C   C45       1.0  0.08597457315440243  0.8224487086114253  0.12651316441211696  1.0000
  C   C46       1.0  0.5859713104447551  0.1265150540332982  0.3040660363659953  1.0000
  C   C47       1.0  0.5859704466697693  0.6959338833009809  0.8224489502053487  1.0000
  C   C48       1.0  0.58597275819551  0.17755094076338912  0.8734852568104472  1.0000
  C   C49       1.0  0.560156273616407  0.7547461683553822  0.3229124223930527  1.0000
  C   C50       1.0  0.5601554054372784  0.5681662550957257  0.245253444524657  1.0000
  C   C51       1.0  0.5601562001368522  0.6770865598711994  0.4318339831848946  1.0000
  C   C52       1.0  0.06015554404407911  0.24525381717761977  0.677087264655526  1.0000
  C   C53       1.0  0.060155574935628016  0.4318334995082012  0.7547464734535012  1.0000
  C   C54       1.0  0.06015645481085131  0.3229131947327987  0.5681659347931358  1.0000
  C   C55       1.0  0.9398457320079815  0.24525530132772388  0.5681666583352508  1.0000
  C   C56       1.0  0.9398465867689084  0.43183323938459484  0.6770878013959204  1.0000
  C   C57       1.0  0.9398465159470961  0.32291223924564594  0.7547456394591591  1.0000
  C   C58       1.0  0.4398464009883156  0.7547442509741131  0.4318334316930502  1.0000
  C   C59       1.0  0.43984722080236344  0.5681665438463385  0.3229120577027302  1.0000
  C   C60       1.0  0.43984645433660324  0.6770873130562195  0.24525445056907821  1.0000
  C   C61       1.0  0.4398444457810769  0.24525383149102717  0.6770872352159644  1.0000
  C   C62       1.0  0.4398444766726186  0.4318335138216084  0.7547464440139463  1.0000
  C   C63       1.0  0.43984284468562157  0.3229136090275091  0.5681663053354526  1.0000
  C   C64       1.0  0.9398435007785721  0.754746582650121  0.3229127929352985  1.0000
  C   C65       1.0  0.939844307174276  0.5681662694091331  0.2452534150850951  1.0000
  C   C66       1.0  0.939844264586448  0.6770865741845713  0.4318339537453966  1.0000
  C   C67       1.0  0.06015415010192271  0.7547444675896174  0.43183323020335257  1.0000
  C   C68       1.0  0.06015329534081811  0.5681662986037069  0.3229123180721984  1.0000
  C   C69       1.0  0.06015336616277981  0.6770879296530979  0.245254649061124  1.0000
  C   C70       1.0  0.5601534811214037  0.24525528701418864  0.5681666877750686  1.0000
  C   C71       1.0  0.5601534985951134  0.43183345600007067  0.6770875999062865  1.0000
  C   C72       1.0  0.5601534277731234  0.32291222493208244  0.7547456688990409  1.0000
  C   C73       1.0  0.5587647267563726  0.7869522011373392  0.2909783100520968  1.0000
  C   C74       1.0  0.5587663373932943  0.5040258305263876  0.21304634910790554  1.0000
  C   C75       1.0  0.5587662865236922  0.7090198134338339  0.49597312948020544  1.0000
  C   C76       1.0  0.058765622175627606  0.21304755336176842  0.7090216081416613  1.0000
  C   C77       1.0  0.058765686113709116  0.4959737549204207  0.7869529381745224  1.0000
  C   C78       1.0  0.058765736982913104  0.2909797101363054  0.5040270196429475  1.0000
  C   C79       1.0  0.9412356455270301  0.21304854413573787  0.5040274285815939  1.0000
  C   C80       1.0  0.9412356549300754  0.4959733493759871  0.7090216237316582  1.0000
  C   C81       1.0  0.9412355509219382  0.2909792247080889  0.7869523083763001  1.0000
  C   C82       1.0  0.44123460704835077  0.7869514701288978  0.4959721993722609  1.0000
  C   C83       1.0  0.4412362722197472  0.5040262030306408  0.29097846608110695  1.0000
  C   C84       1.0  0.4412355389406671  0.7090205586275431  0.2130475505070066  1.0000
  C   C85       1.0  0.4412343180661368  0.21304756777996667  0.7090215784865707  1.0000
  C   C86       1.0  0.4412335447168233  0.4959737693385902  0.7869529085194954  1.0000
  C   C87       1.0  0.4412335955859987  0.29098012453587074  0.5040273899696004  1.0000
  C   C88       1.0  0.9412350972216715  0.7869522155556014  0.29097828039687107  1.0000
  C   C89       1.0  0.9412341959961951  0.5040260139969206  0.21304695036408117  1.0000
  C   C90       1.0  0.9412341451266287  0.7090195969229569  0.4959733307546941  1.0000
  C   C91       1.0  0.0587659111578418  0.7869514557106998  0.4959722290273589  1.0000
  C   C92       1.0  0.05876255260482571  0.5040265885936536  0.2909788957182684  1.0000
  C   C93       1.0  0.0587643311879305  0.7090209441906483  0.21304798014397625  1.0000
  C   C94       1.0  0.5587644377743006  0.21304892969884304  0.5040278582185636  1.0000
  C   C95       1.0  0.5587644471773744  0.49597333495768947  0.7090216533869479  1.0000
  C   C96       1.0  0.5587643431694147  0.2909794412188378  0.7869521071020742  1.0000
  C   C97       1.0  0.5000013511447321  0.6993252130846416  0.3006745988149007  1.0000
  C   C98       1.0  0.5000029919955864  0.6013490215193117  0.3006738145939352  1.0000
  C   C99       1.0  0.5000029836687574  0.6993244038106782  0.3986501888635488  1.0000
  C   C100      1.0  2.3152109776000006e-06  0.3006739060735413  0.6993251594392476  1.0000
  C   C101      1.0  2.3489350625e-06  0.3986507285493772  0.6993261127122423  1.0000
  C   C102      1.0  2.3572620336000005e-06  0.3006759771684457  0.6013499074947859  1.0000
  C   C103      1.0  0.49999769367780544  0.30067415585126167  0.699324889742087  1.0000
  C   C104      1.0  0.4999968901143107  0.39865074739802964  0.6993260739446612  1.0000
  C   C105      1.0  0.49999773572850625  0.3006757650880943  0.6013500996566634  1.0000
  C   C106      1.0  0.9999984370916694  0.6993258251461114  0.3006748066352856  1.0000
  C   C107      1.0  0.9999966958876243  0.601349271296968  0.3006735448969025  1.0000
  C   C108      1.0  0.9999975248480482  0.6993240226779279  0.39864975011429493  1.0000
  C   C109      1.0  0.5000005646318614  0.764976429145719  0.2350240454341446  1.0000
  C   C110      1.0  0.500000463115086  0.47004779257870416  0.23502340176525388  1.0000
  C   C111      1.0  0.5000004380500798  0.7649753857051496  0.5299525859480027  1.0000
  C   C112      1.0  5.898619904e-07  0.23502355185184595  0.7649756509428371  1.0000
  C   C113      1.0  0.999999854091364  0.5299521884188255  0.764976294611792  1.0000
  C   C114      1.0  7.164437363000002e-07  0.23502499527381804  0.4700475104106587  1.0000
  C   C115      1.0  0.4999993174783982  0.23502380162969413  0.7649753812454136  1.0000
  C   C116      1.0  0.499999418994996  0.5299522072676695  0.7649762558438269  1.0000
  C   C117      1.0  0.49999944405978886  0.2350247831935945  0.47004770257228046  1.0000
  C   C118      1.0  0.9999993251534393  0.7649764102968107  0.23502408420224438  1.0000
  C   C119      1.0  0.9999992236366707  0.47004777372980305  0.2350234405333538  1.0000
  C   C120      1.0  3.585905970000008e-08  0.7649753668562698  0.5299526247160314  1.0000
  C   C121      1.0  0.49999975369196653  0.7990425117285015  0.2009562916877812  1.0000
  C   C122      1.0  0.5000012915714436  0.4019138119974599  0.20095653467515717  1.0000
  C   C123      1.0  0.4999995832467122  0.7990421456360509  0.5980851449987695  1.0000
  C   C124      1.0  5.635145186000002e-07  0.20095706928762527  0.7990430047075919  1.0000
  C   C125      1.0  1.5374969848000006e-06  0.5980863380525322  0.7990437926128919  1.0000
  C   C126      1.0  1.5712471040000005e-06  0.2009582353429167  0.4019149513598919  1.0000
  C   C127      1.0  0.4999992911305713  0.20095685720740153  0.7990431968692064  1.0000
  C   C128      1.0  0.49999775325085233  0.598086125972216  0.7990439847747055  1.0000
  C   C129      1.0  0.4999986242885442  0.20095825419166158  0.4019149125921189  1.0000
  C   C130      1.0  1.8878851899999996e-07  0.7990427238086968  0.2009560995262235  1.0000
  C   C131      1.0  0.9999975073253112  0.4019135999171369  0.20095672683697074  1.0000
  C   C132      1.0  1.8343087000000025e-08  0.7990421267872068  0.5980851837667416  1.0000
  C   C133      1.0  0.5000031533487146  0.864350257856593  0.13565320877765413  1.0000
  C   C134      1.0  0.5000012746429192  0.2713031248389157  0.13565073192894056  1.0000
  C   C135      1.0  0.5000028988171652  0.864346224734284  0.7286960924403517  1.0000
  C   C136      1.0  5.130072154000002e-07  0.1356509230852651  0.8643476875441679  1.0000
  C   C137      1.0  0.9999973679887763  0.7286964561771468  0.8643485644665531  1.0000
  C   C138      1.0  7.675383671000001e-07  0.13565266349486652  0.2713038967433192  1.0000
  C   C139      1.0  0.5000000779109116  0.1356501419713112  0.8643468488128434  1.0000
  C   C140      1.0  0.5000027939042084  0.7286960750448161  0.8643481257164538  1.0000
  C   C141      1.0  0.4999994951546043  0.13565268234367525  0.2713038579754183  1.0000
  C   C142      1.0  0.9999968901459227  0.8643502390074931  0.13565324754614494  1.0000
  C   C143      1.0  0.9999991649719322  0.2713033746167355  0.1356504622315811  1.0000
  C   C144      1.0  0.9999966027089898  0.8643466435643035  0.728696453654514  1.0000
  C   C145      1.0  0.49998978333934474  0.8987240948255606  0.10126970036289147  1.0000
  C   C146      1.0  0.49999791658126475  0.2025458579518045  0.10127279459315727  1.0000
  C   C147      1.0  0.49999199640544845  0.8987282403558011  0.7974533527441635  1.0000
  C   C148      1.0  3.835568207900001e-06  0.10127045548446753  0.8987250271823584  1.0000
  C   C149      1.0  1.0773496555300001e-05  0.7974543208197603  0.8987331037204455  1.0000
  C   C150      1.0  7.483515339900001e-06  0.10127708073091674  0.202546603279977  1.0000
  C   C151      1.0  0.4999967021728865  0.10127030528069265  0.8987243575037096  1.0000
  C   C152      1.0  0.499988568927897  0.7974543396677873  0.8987330649541646  1.0000
  C   C153      1.0  0.49999281453327166  0.10127669959782538  0.2025461645314337  1.0000
  C   C154      1.0  1.0313333177700001e-05  0.8987244759588792  0.10127013911098001  1.0000
  C   C155      1.0  1.7008270419000003e-06  0.20254560817404868  0.10127306429038191  1.0000
  C   C156      1.0  7.502674904500002e-06  0.8987286214889282  0.7974537914926427  1.0000
  N   N1        1.0  0.5000038377485937  0.6666665358099807  0.3333333443822113  1.0000
  N   N2        1.0  3.177756816800001e-06  0.3333336142401676  0.666666982905518  1.0000
  N   N3        1.0  0.4999968816486701  0.3333336330887846  0.666666944138008  1.0000
  N   N4        1.0  0.9999967043530519  0.6666665546585764  0.3333333056147581  1.0000
  O   O1        1.0  0.5698898922383366  0.9425800529825638  0.11789171980434796  1.0000
  O   O2        1.0  0.5698863049413917  0.17531267817118132  0.05742283479848711  1.0000
  O   O3        1.0  0.5698904053587271  0.8821082531762986  0.8246872931442086  1.0000
  O   O4        1.0  0.06988383364694781  0.05742468776190891  0.8821104109227421  1.0000
  O   O5        1.0  0.06987737349515301  0.8246849700833823  0.9425735890110687  1.0000
  O   O6        1.0  0.0698833205245109  0.11789028563947573  0.1753146398132088  1.0000
  O   O7        1.0  0.9301132072780832  0.0574250180169145  0.17531392697318177  1.0000
  O   O8        1.0  0.930108981586777  0.8246875140669233  0.8821113378316241  1.0000
  O   O9        1.0  0.9301137360738354  0.11788841582560394  0.9425754675609994  1.0000
  O   O10       1.0  0.43011952935564324  0.9425716099281871  0.8246850883736059  1.0000
  O   O11       1.0  0.43011621946211437  0.17531445396711837  0.11788793716277722  1.0000
  O   O12       1.0  0.43012067513445373  0.8821132428254117  0.0574281166362952  1.0000
  O   O13       1.0  0.43011836274635584  0.057423901379124107  0.8821095830282387  1.0000
  O   O14       1.0  0.4301219500436347  0.8246850455404556  0.9425726992384257  1.0000
  O   O15       1.0  0.4301170123364529  0.1178902992194679  0.17531461188212918  1.0000
  O   O16       1.0  0.9301101874517741  0.9425798356330051  0.1178919228038282  1.0000
  O   O17       1.0  0.9301132984541667  0.1753126917509178  0.057422806867926106  1.0000
  O   O18       1.0  0.9301098632849477  0.8821082667557506  0.8246872652142371  1.0000
  O   O19       1.0  0.06988081381947352  0.9425722272584525  0.8246852853572334  1.0000
  O   O20       1.0  0.06988336493756722  0.1753144403871616  0.117887965093793  1.0000
  O   O21       1.0  0.0698794477359144  0.882113629226538  0.05742854454964437  1.0000
  O   O22       1.0  0.5698870510527315  0.057424604455810886  0.1753135549219991  1.0000
  O   O23       1.0  0.5698920355229619  0.8246873314352002  0.8821107348502083  1.0000
  O   O24       1.0  0.5698859052738429  0.11788863317487157  0.9425752645621018  1.0000
  O   O25       1.0  0.7499996460062875  0.9504926574463185  0.0664434553272102  1.0000
  O   O26       1.0  0.7499993660181233  0.11595020180924114  0.049507662732992216  1.0000
  O   O27       1.0  0.7499992892658015  0.9335575764099816  0.884049656898803  1.0000
  O   O28       1.0  0.25000107339097616  0.04950751145245386  0.933556833193002  1.0000
  O   O29       1.0  0.2499996788042013  0.8840493361790251  0.9504924567351907  1.0000
  O   O30       1.0  0.2500005928443869  0.06644345432822972  0.1159505697441148  1.0000
  O   O31       1.0  0.7500001519183713  0.04950952996688332  0.1159524733293722  1.0000
  O   O32       1.0  0.7500000882632634  0.8840487619304085  0.9335577749425922  1.0000
  O   O33       1.0  0.7499989622809976  0.06644240471365499  0.95049075691891  1.0000
  O   O34       1.0  0.25000056747882843  0.9504914388946945  0.8840486151541995  1.0000
  O   O35       1.0  0.2500006311339362  0.1159522069311691  0.0664433135409794  1.0000
  O   O36       1.0  0.25000008254168904  0.9335575951326904  0.04950890069023476  1.0000
  O   O37       1.0  0.42574721503997653  1.0128915732950412e-06  0.0676711177416607  1.0000
  O   O38       1.0  0.42574600089561454  0.06767041499794153  0.9999996684574198  1.0000
  O   O39       1.0  0.42574716484987374  0.9323292939273103  0.9323294325749031  1.0000
  O   O40       1.0  0.9257447342624943  0.9999991186652722  0.9323291910779261  1.0000
  O   O41       1.0  0.925744618041094  0.9323303980616374  7.618618340521269e-07  1.0000
  O   O42       1.0  0.9257451286614827  0.0676708882218904  0.0676708286920586  1.0000
  O   O43       1.0  0.07425312906369902  9.996410454946728e-07  0.0676711449951028  1.0000
  O   O44       1.0  0.07425307887359622  0.9323292806767824  0.9323294598283524  1.0000
  O   O45       1.0  0.07425442678134431  0.06767017081847376  0.9999999266401929  1.0000
  O   O46       1.0  0.5742548347231989  0.9999991054149009  0.9323292183310414  1.0000
  O   O47       1.0  0.574254391834785  0.06767087497149761  0.067670855945245  1.0000
  O   O48       1.0  0.574255555789371  0.9323306157403339  5.581853699038624e-07  1.0000
