data_image0
_chemical_formula_structural       Ca2CuH10C18O14
_chemical_formula_sum              "Ca2 Cu1 H10 C18 O14"
_cell_length_a       6.631363590263726
_cell_length_b       8.812813748350141
_cell_length_c       8.96484967850788
_cell_angle_alpha    102.92527766793071
_cell_angle_beta     110.64516566430908
_cell_angle_gamma    92.29404509783598

_space_group_name_H-M_alt    "P 1"
_space_group_IT_number       1

loop_
  _space_group_symop_operation_xyz
  'x, y, z'

loop_
  _atom_site_type_symbol
  _atom_site_label
  _atom_site_symmetry_multiplicity
  _atom_site_fract_x
  _atom_site_fract_y
  _atom_site_fract_z
  _atom_site_occupancy
  Ca  Ca1       1.0  0.14821406404249868  0.7885537603587806  0.5881105652453301  1.0000
  Ca  Ca2       1.0  0.8517811359955233  0.211447925086695  0.41188827056359417  1.0000
  Cu  Cu1       1.0  0.4999946145531667  0.999999989252075  0.9999975607543025  1.0000
  H   H1        1.0  0.3251415731627604  0.6700646281183182  0.27152587607643863  1.0000
  H   H2        1.0  0.6748598656133353  0.3299358675283841  0.7284776596701903  1.0000
  H   H3        1.0  0.15838682319753872  0.16819148928035327  0.11736337913897192  1.0000
  H   H4        1.0  0.8416127684857245  0.831807838972004  0.8826338430341355  1.0000
  H   H5        1.0  0.20712908671032446  0.4246946471628447  0.7713129499394926  1.0000
  H   H6        1.0  0.7928715953937484  0.5753105508259891  0.22868808146640163  1.0000
  H   H7        1.0  0.6182369075734827  0.8317816442867922  0.6112587783752661  1.0000
  H   H8        1.0  0.38176869450020223  0.16821532201528558  0.388739479400897  1.0000
  H   H9        1.0  0.5640604730151892  0.0020547509475576996  0.6794042931624349  1.0000
  H   H10       1.0  0.43594070188578365  0.9979445787638282  0.32058553117538224  1.0000
  C   C1        1.0  0.2728825745135737  0.5623891376809951  0.017477845878289638  1.0000
  C   C2        1.0  0.7271243423810745  0.4376148711997416  0.9825267691237445  1.0000
  C   C3        1.0  0.28527948819633764  0.5608667458072316  0.17567596347658576  1.0000
  C   C4        1.0  0.7147251683326346  0.43913374377858355  0.8243272890399285  1.0000
  C   C5        1.0  0.2412939218777979  0.4192235881350825  0.21165377432231489  1.0000
  C   C6        1.0  0.7587165206414426  0.5807733666582563  0.7883479658041852  1.0000
  C   C7        1.0  0.19440118947030527  0.27820641405453017  0.09012002468830363  1.0000
  C   C8        1.0  0.8055967913627737  0.7217929175736157  0.909876780929068  1.0000
  C   C9        1.0  0.18083979286583937  0.2794651915446095  0.9309686690081806  1.0000
  C   C10       1.0  0.8191590539878888  0.720538836977809  0.06902939784890806  1.0000
  C   C11       1.0  0.21624174885882036  0.421494301759509  0.8942980736714221  1.0000
  C   C12       1.0  0.7837589371927507  0.578510895538635  0.10570407407605131  1.0000
  C   C13       1.0  0.31937818449983973  0.7090833762715149  0.9712607117120344  1.0000
  C   C14       1.0  0.6806255106944334  0.29092063936079876  0.028743070178535432  1.0000
  C   C15       1.0  0.22240970000493124  0.4227473859211131  0.37437732902439086  1.0000
  C   C16       1.0  0.777587643155144  0.5772484209642599  0.6256218796879198  1.0000
  C   C17       1.0  0.128150614159189  0.13157786746094047  0.7985124207203855  1.0000
  C   C18       1.0  0.8718544556426268  0.8684249740254585  0.2014858807081198  1.0000
  O   O1        1.0  0.2989028574535554  0.6984267625913886  0.8243540068952131  1.0000
  O   O2        1.0  0.701083338841329  0.30157846370745023  0.17564662453384025  1.0000
  O   O3        1.0  0.38619027957098945  0.8400063372728324  0.08505786518954746  1.0000
  O   O4        1.0  0.6138148139158021  0.15999650006943966  0.9149471342883972  1.0000
  O   O5        1.0  0.2215869892906994  0.5542668908150361  0.46507267624709686  1.0000
  O   O6        1.0  0.7783936076945182  0.4457254250854276  0.534924770002853  1.0000
  O   O7        1.0  0.1963874075817813  0.2910208285234575  0.4094687381693093  1.0000
  O   O8        1.0  0.8036226019271312  0.7089737778227487  0.5905323713373252  1.0000
  O   O9        1.0  0.2056410566293394  0.006083808005889999  0.8361038164808576  1.0000
  O   O10       1.0  0.7943417849315607  0.9939120299522485  0.16389052688830932  1.0000
  O   O11       1.0  0.009624187295209202  0.12706234907113162  0.6525717710747332  1.0000
  O   O12       1.0  0.9903694097876252  0.8729393383687593  0.3474288808616067  1.0000
  O   O13       1.0  0.498188273672767  0.8944294229352963  0.6194580537288203  1.0000
  O   O14       1.0  0.5018187582734086  0.10556635955123277  0.38055035236730117  1.0000
