data_image0
_chemical_formula_structural       Cd4Cu4H48C24O48
_chemical_formula_sum              "Cd4 Cu4 H48 C24 O48"
_cell_length_a       6.666717495
_cell_length_b       12.939211306
_cell_length_c       13.9772
_cell_angle_alpha    90.0
_cell_angle_beta     90.0
_cell_angle_gamma    90.0

_space_group_name_H-M_alt    "P 1"
_space_group_IT_number       1

loop_
  _space_group_symop_operation_xyz
  'x, y, z'

loop_
  _atom_site_type_symbol
  _atom_site_label
  _atom_site_symmetry_multiplicity
  _atom_site_fract_x
  _atom_site_fract_y
  _atom_site_fract_z
  _atom_site_occupancy
  Cd  Cd1       1.0  0.9999988757585712  0.7499977989771337  0.7761540222648333  1.0000
  Cd  Cd2       1.0  0.5000001878735674  0.2500005544000956  0.7238416850299032  1.0000
  Cd  Cd3       1.0  4.4999656907e-06  0.2500059643125212  0.22384454683341196  1.0000
  Cd  Cd4       1.0  0.5000046878392581  0.749999344666392  0.2761583149700968  1.0000
  Cu  Cu1       1.0  0.9999838758729351  0.499997244577031  7.154508737e-07  1.0000
  Cu  Cu2       1.0  0.4999911879421858  1.5456892654999995e-06  0.4999971381964911  1.0000
  Cu  Cu3       1.0  0.4999986878850037  0.5000003359555619  0.5000007154508807  1.0000
  Cu  Cu4       1.0  2.2499828453699992e-05  6.1827570547999995e-06  7.154508737e-07  1.0000
  H   H1        1.0  0.1304240056147776  0.3800826714777798  0.7212581919125398  1.0000
  H   H2        1.0  0.3695926821329962  0.8800868716565018  0.7787439544400883  1.0000
  H   H3        1.0  0.6304091936027021  0.6199102719870238  0.7787489625962252  1.0000
  H   H4        1.0  0.8695733701552298  0.11990993603146188  0.7212567610107925  1.0000
  H   H5        1.0  0.8695868700523093  0.6199280474135591  0.2787439544400883  1.0000
  H   H6        1.0  0.6304121935798364  0.1199091631868257  0.22125461465815727  1.0000
  H   H7        1.0  0.3695821822130441  0.38009349130263087  0.2212567610107925  1.0000
  H   H8        1.0  0.13039700582062608  0.8800860988118727  0.2787468162435971  1.0000
  H   H9        1.0  0.9117515485782588  0.3704607558095319  0.7910747503076436  1.0000
  H   H10       1.0  0.5882520150195772  0.8704750029684687  0.7089087943221839  1.0000
  H   H11       1.0  0.4117453607504301  0.6295244592089516  0.7089188106344649  1.0000
  H   H12       1.0  0.08825182714600997  0.12953339738897537  0.7910747503076436  1.0000
  H   H13       1.0  0.08824732718031919  0.6295406889462214  0.20891523338007534  1.0000
  H   H14       1.0  0.41174986071612096  0.1295264417872843  0.2910847666199245  1.0000
  H   H15       1.0  0.5882565149852679  0.3704731213236414  0.2910776121111525  1.0000
  H   H16       1.0  0.9117455486239974  0.8704765486577342  0.2089166642818299  1.0000
  H   H17       1.0  0.2142148667723021  0.8045807239559153  0.9373007469307169  1.0000
  H   H18       1.0  0.28578982106695605  0.30458193368961156  0.5626963912657742  1.0000
  H   H19       1.0  0.7142105546801786  0.19541453804279024  0.5626956758149007  1.0000
  H   H20       1.0  0.785784008986269  0.6954179653768762  0.9373028932833447  1.0000
  H   H21       1.0  0.7857930089176504  0.19541840226595034  0.0626978221675287  1.0000
  H   H22       1.0  0.7142150546458694  0.6954179653768762  0.4373057550868538  1.0000
  H   H23       1.0  0.2857868210898288  0.8045807239559153  0.4373021778324713  1.0000
  H   H24       1.0  0.21421336678373845  0.30458502506814256  0.0626956758149007  1.0000
  H   H25       1.0  0.30647616334911015  0.6951026447670259  0.9181781758864459  1.0000
  H   H26       1.0  0.1935165245816393  0.19510540018999478  0.5818225395644345  1.0000
  H   H27       1.0  0.8064793511998045  0.304891071542407  0.581821824113554  1.0000
  H   H28       1.0  0.6935167124552064  0.8048975902550238  0.9181796067882002  1.0000
  H   H29       1.0  0.6935242123980244  0.3048949357655673  0.08182253956443468  1.0000
  H   H30       1.0  0.8064853511540591  0.8048929531872344  0.41817960678820026  1.0000
  H   H31       1.0  0.19352402452445713  0.6951034176116551  0.4181767449846915  1.0000
  H   H32       1.0  0.3064791633262374  0.19510694587925304  0.08182397046618918  1.0000
  H   H33       1.0  0.6471490659737353  0.34517018807235894  0.9382544429499475  1.0000
  H   H34       1.0  0.8528469976812756  0.845177479629605  0.5617462725009332  1.0000
  H   H35       1.0  0.147145878123041  0.6548227553924447  0.5617426952465435  1.0000
  H   H36       1.0  0.35285130977339907  0.15483092072783217  0.9382508656955648  1.0000
  H   H37       1.0  0.3528468098077084  0.6548235282370738  0.06174627250093319  1.0000
  H   H38       1.0  0.14714887810016816  0.1548216465922536  0.4382551584008211  1.0000
  H   H39       1.0  0.8528529976355299  0.3451748251401483  0.4382551584008211  1.0000
  H   H40       1.0  0.6471460659966082  0.8451813438527649  0.0617455570500525  1.0000
  H   H41       1.0  0.48560029766193213  0.4089947891604523  0.9924705949689496  1.0000
  H   H42       1.0  0.014417890074398096  0.9089812139126393  0.507527974129296  1.0000
  H   H43       1.0  0.9855959855698088  0.591003564216777  0.5075251123257871  1.0000
  H   H44       1.0  0.514383578211003  0.09099704550416017  0.9924684486163214  1.0000
  H   H45       1.0  0.5144195779365361  0.5910221124879413  0.007526543227541498  1.0000
  H   H46       1.0  0.9856004855354996  0.09100168257194947  0.4924741722233321  1.0000
  H   H47       1.0  0.014417890074398096  0.4089839693356011  0.49247202587070393  1.0000
  H   H48       1.0  0.48556279794783547  0.9089750311555844  0.007526543227541498  1.0000
  C   C1        1.0  0.0412796852733592  0.5182031455727767  0.7962946799072766  1.0000
  C   C2        1.0  0.45872800254302587  0.0182004910833129  0.7037010273874598  1.0000
  C   C3        1.0  0.5412723732041086  0.4817944349598235  0.7037074664453513  1.0000
  C   C4        1.0  0.9587191904852117  0.9817932252261199  0.7962975417107855  1.0000
  C   C5        1.0  0.9587161905080845  0.481799844872242  0.2037081818962321  1.0000
  C   C6        1.0  0.541270873215545  0.9817947709153855  0.2962918181037678  1.0000
  C   C7        1.0  0.4587310025201532  0.5182054641066713  0.2962946799072768  1.0000
  C   C8        1.0  0.04128418523904999  0.0182051281511093  0.20370889734710565  1.0000
  C   C9        1.0  0.0655750000398072  0.4024140171190708  0.7900752654322787  1.0000
  C   C10       1.0  0.4344236878451965  0.902415125919269  0.7099233036659669  1.0000
  C   C11       1.0  0.5655706879476837  0.5975812448796275  0.7099297427238651  1.0000
  C   C12       1.0  0.9344283756844547  0.0975847731472257  0.7900745499813977  1.0000
  C   C13       1.0  0.9344253757073275  0.5975897461705769  0.20992545001860205  1.0000
  C   C14       1.0  0.565573687924811  0.09758168176869478  0.2900752654322787  1.0000
  C   C15       1.0  0.4344341877651416  0.4024209727207619  0.2900752654322787  1.0000
  C   C16       1.0  0.0655675000969893  0.9024189901424292  0.20992759637123015  1.0000
  C   C17       1.0  0.17337617813667086  0.3476471551178761  0.8709441089774754  1.0000
  C   C18       1.0  0.3266135098169443  0.8476474910734381  0.629056606473398  1.0000
  C   C19       1.0  0.6733793659873655  0.6523488797254514  0.6290623300804156  1.0000
  C   C20       1.0  0.8266181976562093  0.15235163514842034  0.8709448244283564  1.0000
  C   C21       1.0  0.8266211976333364  0.6523604723949319  0.1290580373751524  1.0000
  C   C22       1.0  0.6733838659530632  0.15234081532356916  0.3709426780757212  1.0000
  C   C23       1.0  0.3266225097483328  0.34765488356419627  0.3709419626248476  1.0000
  C   C24       1.0  0.1733791781137981  0.847646718228809  0.1290580373751524  1.0000
  O   O1        1.0  0.9916004397903464  0.5610952498034719  0.8758900208911625  1.0000
  O   O2        1.0  0.5083986238417921  0.06110109660496479  0.6241135563632196  1.0000
  O   O3        1.0  0.4916062518710334  0.4388976936613317  0.6241142718141006  1.0000
  O   O4        1.0  0.008404435922479098  0.938901893840054  0.875888589989408  1.0000
  O   O5        1.0  0.0083864360597161  0.43890619495228117  0.1241149872649743  1.0000
  O   O6        1.0  0.4915912519853974  0.9388957110829921  0.3758842972841449  1.0000
  O   O7        1.0  0.5083971238532285  0.5611060696283232  0.37588930544028887  1.0000
  O   O8        1.0  0.9916124396988548  0.06110264229423019  0.1241121254614654  1.0000
  O   O9        1.0  0.06043603922052648  0.5726423214500043  0.7220001144721377  1.0000
  O   O10       1.0  0.4395806485272401  0.07264971394076268  0.7780013164296162  1.0000
  O   O11       1.0  0.560428727151276  0.4273475306362683  0.7780027473313709  1.0000
  O   O12       1.0  0.939564336526608  0.9273517308149903  0.7220029762756466  1.0000
  O   O13       1.0  0.9395613365494809  0.4273629875289088  0.2780070400366341  1.0000
  O   O14       1.0  0.5604347271055303  0.9273501851257249  0.22199725266862905  1.0000
  O   O15       1.0  0.4395701486072952  0.5726523684302194  0.2219951063160011  1.0000
  O   O16       1.0  0.06043153925483579  0.07264971394076268  0.27800489368399883  1.0000
  O   O17       1.0  0.25699004064368575  0.7585099097538472  0.8846392696677439  1.0000
  O   O18       1.0  0.2430071472527544  0.2585165293999694  0.6153564376269927  1.0000
  O   O19       1.0  0.7569887285286894  0.24148303371095634  0.6153578685287471  1.0000
  O   O20       1.0  0.7430088351148922  0.7414872338896783  0.8846421314712529  1.0000
  O   O21       1.0  0.7430118350920194  0.2414845794002218  0.11536144578312957  1.0000
  O   O22       1.0  0.7569947284829439  0.7414818239772528  0.384644277823888  1.0000
  O   O23       1.0  0.24301014722988154  0.7585130011323711  0.3846407005694985  1.0000
  O   O24       1.0  0.25699604059794007  0.25851962077850027  0.11535858397962068  1.0000
  O   O25       1.0  0.2689644493477985  0.26553550434768874  0.8533518873594161  1.0000
  O   O26       1.0  0.23104773843427745  0.7655420230603054  0.6466473971897101  1.0000
  O   O27       1.0  0.7689721371641836  0.7344489378261656  0.6466466817388294  1.0000
  O   O28       1.0  0.7310314264336453  0.23446174022934937  0.8533533182611703  1.0000
  O   O29       1.0  0.7310374263878996  0.7344620761849112  0.14664525083707494  1.0000
  O   O30       1.0  0.7689781371184379  0.23446019454008388  0.3533490255559073  1.0000
  O   O31       1.0  0.23103123856007804  0.26555018839569294  0.3533504564576617  1.0000
  O   O32       1.0  0.2689584493935442  0.7655443415942002  0.1466509744440927  1.0000
  O   O33       1.0  0.15998128026272698  0.38171723787443307  0.9574299573591247  1.0000
  O   O34       1.0  0.3399994077595138  0.8817307121887408  0.5425671808373664  1.0000
  O   O35       1.0  0.6599874680905485  0.6182718413672035  0.5425686117391209  1.0000
  O   O36       1.0  0.8400235954501056  0.1182823252364926  0.9574299573591247  1.0000
  O   O37       1.0  0.8399980956445177  0.6182757055903636  0.04256861173912089  1.0000
  O   O38       1.0  0.6599964680219299  0.11826995972238309  0.45742995735912456  1.0000
  O   O39       1.0  0.34001740762227667  0.3817303762331789  0.4574328191626335  1.0000
  O   O40       1.0  0.1600037800911807  0.8817260751209517  0.04257433534613849  1.0000
  O   O41       1.0  0.6277797136505183  0.3905740373570196  0.9942563603582997  1.0000
  O   O42       1.0  0.872243349798637  0.8905782375357417  0.5057400623873178  1.0000
  O   O43       1.0  0.12777202583413327  0.6094173604185186  0.5057393469364371  1.0000
  O   O44       1.0  0.37220716219954386  0.10942552575391318  0.9942527831039099  1.0000
  O   O45       1.0  0.3722371619708156  0.609421997486315  0.005740777838191498  1.0000
  O   O46       1.0  0.1277750258112604  0.1094216615307531  0.49426136851443647  1.0000
  O   O47       1.0  0.8722388498329465  0.3905748102016489  0.4942592221618085  1.0000
  O   O48       1.0  0.6277482138906834  0.890582101758902  0.0057400623873178  1.0000
