data_image0
_chemical_formula_structural       Ag2P2H10C4O6
_chemical_formula_sum              "Ag2 P2 H10 C4 O6"
_cell_length_a       4.571861506826479
_cell_length_b       5.627916921742987
_cell_length_c       10.1597870641799
_cell_angle_alpha    74.75279322933734
_cell_angle_beta     76.58212388042327
_cell_angle_gamma    73.76555070502197

_space_group_name_H-M_alt    "P 1"
_space_group_IT_number       1

loop_
  _space_group_symop_operation_xyz
  'x, y, z'

loop_
  _atom_site_type_symbol
  _atom_site_label
  _atom_site_symmetry_multiplicity
  _atom_site_fract_x
  _atom_site_fract_y
  _atom_site_fract_z
  _atom_site_occupancy
  Ag  Ag1       1.0  0.3060735467837787  0.3043139654104365  0.5429595644723264  1.0000
  Ag  Ag2       1.0  0.6939164916521748  0.6956855557379741  0.4570385891168769  1.0000
  P   P1        1.0  0.1872186118859674  0.6670600917428047  0.7386640321742136  1.0000
  P   P2        1.0  0.8127892794512022  0.3329484713992841  0.2613340068255638  1.0000
  H   H1        1.0  0.6731261367584339  0.4906160272691126  0.7682582617778236  1.0000
  H   H2        1.0  0.32687945730959467  0.509375566288895  0.2317432955673482  1.0000
  H   H3        1.0  0.7696040144004925  0.9879948840391249  0.8130176664167195  1.0000
  H   H4        1.0  0.2304045866128774  0.012002465086489195  0.18697886353725576  1.0000
  H   H5        1.0  0.802782587815088  0.7027636796508078  0.9395180929260576  1.0000
  H   H6        1.0  0.19721225591953134  0.29724316310782223  0.0604825112267591  1.0000
  H   H7        1.0  0.23919575246796404  0.06485976883514159  0.8714240620497619  1.0000
  H   H8        1.0  0.7607928136285764  0.9351452854547728  0.12857743264841304  1.0000
  H   H9        1.0  0.27964995350296123  0.7746492444045855  0.9937012718501065  1.0000
  H   H10       1.0  0.7203466607464365  0.22535938351905566  0.0063008767251915045  1.0000
  C   C1        1.0  0.9361376017421107  0.8329356929918534  0.8668655946657111  1.0000
  C   C2        1.0  0.06386050340572781  0.1670672557086803  0.13313716848882956  1.0000
  C   C3        1.0  0.10946611356364845  0.9329729791200593  0.9446981197157881  1.0000
  C   C4        1.0  0.8905354908559249  0.06703386859411609  0.0552988319852474  1.0000
  O   O1        1.0  0.45404417007758713  0.4679403858738098  0.8126568855793007  1.0000
  O   O2        1.0  0.5459561542039281  0.5320455235055448  0.1873489387968803  1.0000
  O   O3        1.0  0.0008429681368155409  0.5134085044854545  0.6983956087377265  1.0000
  O   O4        1.0  0.999152092947618  0.4865889808106731  0.30160427043158217  1.0000
  O   O5        1.0  0.3257512814560003  0.8515606114868245  0.6166843297474784  1.0000
  O   O6        1.0  0.6742611104150456  0.1484306948635208  0.3833214865223269  1.0000
