data_image0
_chemical_formula_structural       Zn4C32S8Cl8O16
_chemical_formula_sum              "Zn4 C32 S8 Cl8 O16"
_cell_length_a       7.866368270932854
_cell_length_b       17.73634113750866
_cell_length_c       17.72516581835491
_cell_angle_alpha    90.04373801412959
_cell_angle_beta     90.9025879145861
_cell_angle_gamma    89.12828148504839

_space_group_name_H-M_alt    "P 1"
_space_group_IT_number       1

loop_
  _space_group_symop_operation_xyz
  'x, y, z'

loop_
  _atom_site_type_symbol
  _atom_site_label
  _atom_site_symmetry_multiplicity
  _atom_site_fract_x
  _atom_site_fract_y
  _atom_site_fract_z
  _atom_site_occupancy
  Zn  Zn1       1.0  0.33366765722328046  0.0015921967298595993  0.49845652214216335  1.0000
  Zn  Zn2       1.0  0.6755197356723599  0.9964868974738292  0.503446647445138  1.0000
  Zn  Zn3       1.0  0.666600770451808  0.49783207952999914  0.0022748942555779004  1.0000
  Zn  Zn4       1.0  0.3240352961933155  0.502623116195501  0.9972278957564596  1.0000
  C   C1        1.0  0.4433254039902863  0.8987932920054859  0.6011094123416356  1.0000
  C   C2        1.0  0.5576828975821614  0.8974175681478656  0.40014848376493733  1.0000
  C   C3        1.0  0.45749653438214477  0.1008786908786092  0.3993812831414943  1.0000
  C   C4        1.0  0.5581542679393152  0.0996420960387283  0.6027694928539447  1.0000
  C   C5        1.0  0.5458120239821156  0.39877922890796913  0.10142851031399402  1.0000
  C   C6        1.0  0.4405837430927733  0.6015337049773704  0.1005061875625231  1.0000
  C   C7        1.0  0.5553469995322685  0.6005106779765015  0.8995071628985019  1.0000
  C   C8        1.0  0.44111053523803895  0.39945646248802547  0.8983801530577724  1.0000
  C   C9        1.0  0.66362644909367  0.8006077271915045  0.2998132613129273  1.0000
  C   C10       1.0  0.3338379633656956  0.6985498954170383  0.20046208051741846  1.0000
  C   C11       1.0  0.5419961376617125  0.8394857068866911  0.3412158339749141  1.0000
  C   C12       1.0  0.4557831458038138  0.6596061608958905  0.15926619753486906  1.0000
  C   C13       1.0  0.40943380141374064  0.750111058389457  0.25175967140467054  1.0000
  C   C14       1.0  0.5877853397100168  0.7492197495957668  0.24845768620306802  1.0000
  C   C15       1.0  0.664399852938189  0.2002285473123564  0.6993404705829322  1.0000
  C   C16       1.0  0.3346340237521944  0.2991960344209658  0.8016278636873437  1.0000
  C   C17       1.0  0.5426975377347889  0.15862145485461807  0.6606566250013871  1.0000
  C   C18       1.0  0.45651380566014427  0.34062445372586575  0.8404027930136311  1.0000
  C   C19       1.0  0.41028627301573556  0.24798599599366608  0.7500520739621521  1.0000
  C   C20       1.0  0.5885919391582705  0.25154337889785683  0.7507613871713232  1.0000
  C   C21       1.0  0.6242589775001265  0.188397356311107  0.31234199239972343  1.0000
  C   C22       1.0  0.37939548742930657  0.3116998298128378  0.18884616384721656  1.0000
  C   C23       1.0  0.4746270823242824  0.1591920730926404  0.3412881280632193  1.0000
  C   C24       1.0  0.5290086044019944  0.3408178078583148  0.15982765046254602  1.0000
  C   C25       1.0  0.4145124131444504  0.2562106861979244  0.24445951193219173  1.0000
  C   C26       1.0  0.5891754927197467  0.24402675448430236  0.2568259528121075  1.0000
  C   C27       1.0  0.3352188823503682  0.8010440301889544  0.6988745236272822  1.0000
  C   C28       1.0  0.6648369742153549  0.6981255532651218  0.8019137078781498  1.0000
  C   C29       1.0  0.4571486833144718  0.8403325556092439  0.6596715437953267  1.0000
  C   C30       1.0  0.5423590751520564  0.658982838968697  0.8409619465168279  1.0000
  C   C31       1.0  0.5895299270231646  0.7500450820441174  0.7499860904511453  1.0000
  C   C32       1.0  0.41103604530233884  0.7492473223731794  0.7507060530837748  1.0000
  S   S1        1.0  0.3347897439747313  0.8136099621942705  0.317188921207979  1.0000
  S   S2        1.0  0.6628126679532471  0.6856616881972355  0.18323023937323776  1.0000
  S   S3        1.0  0.3355582830523575  0.1823901411500515  0.6867639824115487  1.0000
  S   S4        1.0  0.6635522270739573  0.3169846495358683  0.8141717702092137  1.0000
  S   S5        1.0  0.2925798394160495  0.19995982894748465  0.30038581974856277  1.0000
  S   S6        1.0  0.7111117656628709  0.30016546655947707  0.20078441697405947  1.0000
  S   S7        1.0  0.6645392490626136  0.8139479485464348  0.6861948734509653  1.0000
  S   S8        1.0  0.33538044253777605  0.6854583667808144  0.814355766984079  1.0000
  Cl  Cl1       1.0  0.8777855026271624  0.8121111117327899  0.3078320604511759  1.0000
  Cl  Cl2       1.0  0.11980222211206384  0.6867255628558411  0.19212838327283072  1.0000
  Cl  Cl3       1.0  0.878507154914857  0.19240975739682398  0.6874958553419932  1.0000
  Cl  Cl4       1.0  0.1206621518948126  0.3070893790787537  0.8136342951826948  1.0000
  Cl  Cl5       1.0  0.8288631168253104  0.16436447522474396  0.3364889707498833  1.0000
  Cl  Cl6       1.0  0.17478806219396154  0.3356808960728372  0.16461448172182006  1.0000
  Cl  Cl7       1.0  0.12061571345913792  0.8119917288573644  0.6878289354882129  1.0000
  Cl  Cl8       1.0  0.8791889149253154  0.6867046063998145  0.81338625152312  1.0000
  O   O1        1.0  0.2977400005862307  0.9228330067411221  0.5770112117353181  1.0000
  O   O2        1.0  0.5876248484160699  0.9214411919320394  0.5784450703716006  1.0000
  O   O3        1.0  0.7046863763010905  0.9181913375920842  0.42390938755696084  1.0000
  O   O4        1.0  0.4149123149252176  0.922849626124673  0.4236602548299474  1.0000
  O   O5        1.0  0.5959372346981838  0.0737321108827302  0.4263361274733556  1.0000
  O   O6        1.0  0.3072099167617068  0.0812083075099252  0.4190815209710551  1.0000
  O   O7        1.0  0.4152556880548843  0.07598385259247208  0.5775670502551976  1.0000
  O   O8        1.0  0.7050539040693664  0.07595901226095952  0.5818397502369737  1.0000
  O   O9        1.0  0.6960273541504095  0.4184763818606498  0.0815763470568669  1.0000
  O   O10       1.0  0.40735378655518434  0.4256863187190375  0.0743085708948641  1.0000
  O   O11       1.0  0.29373388372772524  0.5803952517982223  0.07684171053659843  1.0000
  O   O12       1.0  0.5835139220157686  0.5763222622006052  0.07701035513949962  1.0000
  O   O13       1.0  0.4108716947951835  0.5779901584824356  0.92204538036669  1.0000
  O   O14       1.0  0.700760104286161  0.5763799875121336  0.923717063280428  1.0000
  O   O15       1.0  0.5839048377895466  0.42326669070775574  0.9234984440313739  1.0000
  O   O16       1.0  0.29418881920524603  0.42295172429832206  0.9195098889069656  1.0000
