data_image0
_chemical_formula_structural       Ca2Cu2H12C28N4O16
_chemical_formula_sum              "Ca2 Cu2 H12 C28 N4 O16"
_cell_length_a       4.9671026548312405
_cell_length_b       9.591287336527673
_cell_length_c       15.323709557001617
_cell_angle_alpha    90.00004006425087
_cell_angle_beta     90.00002359185147
_cell_angle_gamma    104.3174180443985

_space_group_name_H-M_alt    "P 1"
_space_group_IT_number       1

loop_
  _space_group_symop_operation_xyz
  'x, y, z'

loop_
  _atom_site_type_symbol
  _atom_site_label
  _atom_site_symmetry_multiplicity
  _atom_site_fract_x
  _atom_site_fract_y
  _atom_site_fract_z
  _atom_site_occupancy
  Ca  Ca1       1.0  4.991232743e-07  1.0760052547000003e-06  2.7000000000000006e-13  1.0000
  Ca  Ca2       1.0  0.9999997205303544  0.5000003532457457  0.4999998652741978  1.0000
  Cu  Cu1       1.0  0.4999996850403364  9.130170042006307e-07  0.5000003743220773  1.0000
  Cu  Cu2       1.0  0.5000000354906433  0.49999944022918186  1.435356225e-07  1.0000
  H   H1        1.0  0.7882983095729373  0.7714598684248204  0.1729126619845331  1.0000
  H   H2        1.0  0.21170086059521512  0.7285416641957455  0.6729129545734053  1.0000
  H   H3        1.0  0.2117011985788509  0.22854075831002527  0.8270870014130054  1.0000
  H   H4        1.0  0.7883011636208934  0.2714600463935285  0.3270873614080401  1.0000
  H   H5        1.0  0.9606319815220985  0.7061068644118295  0.31998474976514757  1.0000
  H   H6        1.0  0.039371503431134235  0.7938948833713868  0.8199850479546027  1.0000
  H   H7        1.0  0.03937156051114953  0.29389377802093725  0.6800155662161629  1.0000
  H   H8        1.0  0.9606305207843492  0.20610682721744675  0.18001461544334055  1.0000
  H   H9        1.0  0.3319279587578167  0.031851116025372106  0.30972333632648485  1.0000
  H   H10       1.0  0.6680728524606749  0.46815073328544093  0.8097237955966675  1.0000
  H   H11       1.0  0.6680720485178713  0.9681505867151615  0.6902769796548185  1.0000
  H   H12       1.0  0.33192665569235674  0.5318498934502787  0.19027717296786759  1.0000
  C   C1        1.0  0.5464302305608726  0.9049999743052767  0.23032044551603553  1.0000
  C   C2        1.0  0.45357258401234907  0.5950005758662799  0.7303207118517747  1.0000
  C   C3        1.0  0.45357129453133627  0.09500066027830201  0.769679217881631  1.0000
  C   C4        1.0  0.546428441957211  0.40499898271249896  0.2696796041291236  1.0000
  C   C5        1.0  0.7445046241942564  0.8404861011424531  0.3890013430729908  1.0000
  C   C6        1.0  0.255494459574905  0.6595146485411265  0.889001611182664  1.0000
  C   C7        1.0  0.2554969008979525  0.1595145334411328  0.6109983203246827  1.0000
  C   C8        1.0  0.7445055477007827  0.3404870541994074  0.11099870479863938  1.0000
  C   C9        1.0  0.47114824808168276  0.9601716851949789  0.3084940825200277  1.0000
  C   C10       1.0  0.5288511810431374  0.5398300313061671  0.8084936821160014  1.0000
  C   C11       1.0  0.5288517591933798  0.039830017545114116  0.6915055808777737  1.0000
  C   C12       1.0  0.4711488262319179  0.4601716714339263  0.19150598128180715  1.0000
  C   C13       1.0  0.8225562886931359  0.7781386152837231  0.3142759558854777  1.0000
  C   C14       1.0  0.17744267280026807  0.72185773688242  0.8142768935181977  1.0000
  C   C15       1.0  0.17744072384229534  0.22185663142484915  0.6857237075107107  1.0000
  C   C16       1.0  0.8225553379823297  0.2781396618371019  0.1857234224620257  1.0000
  C   C17       1.0  0.7254123175324453  0.8129296515180259  0.2337830453322383  1.0000
  C   C18       1.0  0.2745844528323858  0.6870708798029882  0.7337826755428055  1.0000
  C   C19       1.0  0.274584674556273  0.18706989136325802  0.7662172706483902  1.0000
  C   C20       1.0  0.7254150553194023  0.3129297469318503  0.26621698785473297  1.0000
  C   C21       1.0  0.4492335609691835  0.9490610384973622  0.1433388992676186  1.0000
  C   C22       1.0  0.5507655527131234  0.550940454013599  0.6433385066936166  1.0000
  C   C23       1.0  0.5507664463058717  0.050940664242730804  0.85666076413019  1.0000
  C   C24       1.0  0.44923395543928996  0.44906017272168713  0.35666180928741636  1.0000
  C   C25       1.0  0.8477867560837283  0.8204250276486462  0.47927452617698657  1.0000
  C   C26       1.0  0.15221451704550754  0.6795758523158356  0.9792747892395537  1.0000
  C   C27       1.0  0.152215268131755  0.17957668294018703  0.5207251372209569  1.0000
  C   C28       1.0  0.8477870080473268  0.3204247822681908  0.0207255267416144  1.0000
  N   N1        1.0  0.5724925330512748  0.9296266514820889  0.3851948315765554  1.0000
  N   N2        1.0  0.4275080612646747  0.5703730248824144  0.8851950835799087  1.0000
  N   N3        1.0  0.4275105098580809  0.07037291494498282  0.6148048318209902  1.0000
  N   N4        1.0  0.5724934638281596  0.42962760970161185  0.11480523240125962  1.0000
  O   O1        1.0  0.756049365179635  0.8868017613820315  0.5411577226552566  1.0000
  O   O2        1.0  0.24394653815326706  0.61319743268826  0.0411585925164104  1.0000
  O   O3        1.0  0.2439476269084651  0.11319778149881189  0.4588419407418698  1.0000
  O   O4        1.0  0.7560474387484817  0.38679995033378134  0.9588417234635429  1.0000
  O   O5        1.0  0.23206902781599578  0.9963264629016848  0.14113512060343683  1.0000
  O   O6        1.0  0.7679295825345065  0.503673950615621  0.6411353889889426  1.0000
  O   O7        1.0  0.7679304803357924  0.0036741638331605018  0.8588645427941016  1.0000
  O   O8        1.0  0.23206740955483002  0.4963255922661107  0.3588655795751876  1.0000
  O   O9        1.0  0.02092593757537026  0.7463224472754034  0.49014910578283377  1.0000
  O   O10       1.0  0.9790728402605069  0.7536773635837266  0.9901495124871786  1.0000
  O   O11       1.0  0.9790755875168387  0.25367818730817504  0.5098505576148398  1.0000
  O   O12       1.0  0.020926667891906427  0.24632326315155245  0.0098508034938547  1.0000
  O   O13       1.0  0.5978669281696796  0.935114834750273  0.07849233647166189  1.0000
  O   O14       1.0  0.40213357947497036  0.5648855016570524  0.5784925826534033  1.0000
  O   O15       1.0  0.4021371129868427  0.0648868836877412  0.9215079795099184  1.0000
  O   O16       1.0  0.5978649304308945  0.43511297306772423  0.4215077333270898  1.0000
