data_image0
_chemical_formula_structural       Cu6H20C24S4I2O4
_chemical_formula_sum              "Cu6 H20 C24 S4 I2 O4"
_cell_length_a       4.063046124240293
_cell_length_b       5.753034013322182
_cell_length_c       29.170149105817988
_cell_angle_alpha    89.99946520780159
_cell_angle_beta     89.99933385164638
_cell_angle_gamma    90.00107244953519

_space_group_name_H-M_alt    "P 1"
_space_group_IT_number       1

loop_
  _space_group_symop_operation_xyz
  'x, y, z'

loop_
  _atom_site_type_symbol
  _atom_site_label
  _atom_site_symmetry_multiplicity
  _atom_site_fract_x
  _atom_site_fract_y
  _atom_site_fract_z
  _atom_site_occupancy
  Cu  Cu1       1.0  0.21330934606176302  0.4864566900637538  0.9999983829855665  1.0000
  Cu  Cu2       1.0  0.7133053721594178  0.5135670430651372  0.5000015404958091  1.0000
  Cu  Cu3       1.0  0.7708390718453798  0.7768375253331495  0.0453306243163709  1.0000
  Cu  Cu4       1.0  0.27084223806583907  0.2231688982586916  0.454667461958728  1.0000
  Cu  Cu5       1.0  0.2708433476826073  0.22317196795160035  0.5453313797320618  1.0000
  Cu  Cu6       1.0  0.7708303644597265  0.7768351322602456  0.9546674228629968  1.0000
  H   H1        1.0  0.6005826683532477  0.7480595355903005  0.1509534907742136  1.0000
  H   H2        1.0  0.10057580286002829  0.25195162356956047  0.34904555474821564  1.0000
  H   H3        1.0  0.10057787314627831  0.25193926622537066  0.6509572785650093  1.0000
  H   H4        1.0  0.6005680777192737  0.7480604020296295  0.8490424832925357  1.0000
  H   H5        1.0  0.0093736480764548  0.20502362605225943  0.09152350455157433  1.0000
  H   H6        1.0  0.5094093399174537  0.7949863455778895  0.4084763731479769  1.0000
  H   H7        1.0  0.5094016418067611  0.7949681093044841  0.5915206894951623  1.0000
  H   H8        1.0  0.0093885153833426  0.20502168048270153  0.9084799045316815  1.0000
  H   H9        1.0  0.636842495449848  0.5244821080214521  0.22371709395764583  1.0000
  H   H10       1.0  0.1368059232222762  0.47551909394852726  0.2762784651642178  1.0000
  H   H11       1.0  0.13682402431184928  0.4755154612269265  0.7237194416464376  1.0000
  H   H12       1.0  0.6368143350237645  0.5244725115436351  0.7762809476046898  1.0000
  H   H13       1.0  0.0481671974257409  0.9801071016107342  0.163932742785093  1.0000
  H   H14       1.0  0.5481758255864477  0.019896422188139695  0.3360670725988157  1.0000
  H   H15       1.0  0.5481694208266746  0.019879974401298694  0.6639299836235892  1.0000
  H   H16       1.0  0.0481783098807114  0.98009119997279  0.836073633446702  1.0000
  H   H17       1.0  0.1651788034375059  0.018208272970618097  0.24520325945693602  1.0000
  H   H18       1.0  0.6651733770162096  0.9817915599482769  0.2547946538166599  1.0000
  H   H19       1.0  0.6651724426477656  0.9817886487604849  0.7452038714249481  1.0000
  H   H20       1.0  0.16518198450744848  0.0181979550391134  0.7547988719680347  1.0000
  C   C1        1.0  0.29820900440940074  0.49264705357444416  0.11693220243628841  1.0000
  C   C2        1.0  0.7982169461468659  0.5073632028738543  0.3830672111113387  1.0000
  C   C3        1.0  0.7982071107314822  0.5073420260317292  0.6169326595272295  1.0000
  C   C4        1.0  0.29820385836492136  0.4926584777494936  0.8830657562748316  1.0000
  C   C5        1.0  0.47784724000941736  0.5803645370801502  0.1541316500599663  1.0000
  C   C6        1.0  0.9778436449797141  0.4196358911564387  0.3458685032662957  1.0000
  C   C7        1.0  0.9778405257859502  0.4196285981397381  0.6541322686622522  1.0000
  C   C8        1.0  0.4778156881273077  0.5803707683273203  0.8458686010073109  1.0000
  C   C9        1.0  0.1458301144960785  0.2757395596054478  0.1204762157454908  1.0000
  C   C10       1.0  0.6458564945169627  0.7242721889270239  0.3795265280129244  1.0000
  C   C11       1.0  0.6458389775777035  0.7242508444486898  0.6204755878097785  1.0000
  C   C12       1.0  0.1458326496626157  0.27572681643919583  0.8795258154092593  1.0000
  C   C13       1.0  0.49758027953362916  0.4560831922265009  0.19485934297564  1.0000
  C   C14       1.0  0.9975785307355948  0.5439227077129656  0.30513769328614165  1.0000
  C   C15       1.0  0.9975646021736891  0.5439152256505861  0.694860761193901  1.0000
  C   C16       1.0  0.4975521531178868  0.4560774449135677  0.805139733958015  1.0000
  C   C17       1.0  0.16573049225072364  0.14988686950626826  0.1612693878696945  1.0000
  C   C18       1.0  0.6657563048724952  0.8501147089813442  0.33872989575544926  1.0000
  C   C19       1.0  0.6657353568317249  0.8501001252926553  0.6612678425796548  1.0000
  C   C20       1.0  0.16573891949023786  0.14986910363366227  0.8387362711943426  1.0000
  C   C21       1.0  0.3375446032090608  0.24203674289986304  0.1985946512492234  1.0000
  C   C22       1.0  0.8375612319514688  0.7579722876811414  0.3014033278132757  1.0000
  C   C23       1.0  0.8375396055404494  0.7579524613978135  0.6985943040861216  1.0000
  C   C24       1.0  0.33754632530590806  0.24202595783573594  0.8014064482322996  1.0000
  S   S1        1.0  0.2696708878391901  0.6729720211507909  0.0674057441202223  1.0000
  S   S2        1.0  0.7696895033387251  0.32704655474852007  0.4325954293545067  1.0000
  S   S3        1.0  0.7696862948497127  0.3270259832017145  0.5674061903990477  1.0000
  S   S4        1.0  0.2696664985075046  0.6729776254874762  0.9325919284317196  1.0000
  I   I1        1.0  0.7182193107763339  0.16574224930402431  0.9999989581695203  1.0000
  I   I2        1.0  0.2182377763349947  0.8342589511397662  0.5000009574239925  1.0000
  O   O1        1.0  0.3568347251284507  0.12826287093786698  0.2403103311683097  1.0000
  O   O2        1.0  0.8568283881454519  0.8717359814160158  0.2596879597379669  1.0000
  O   O3        1.0  0.8568278653212927  0.8717263489473976  0.7403090888863204  1.0000
  O   O4        1.0  0.3568399558815827  0.12825753611429036  0.7596930036903304  1.0000
