data_image0
_chemical_formula_structural       Mo4H20C20N6O13
_chemical_formula_sum              "Mo4 H20 C20 N6 O13"
_cell_length_a       8.171092807541202
_cell_length_b       8.975764555000117
_cell_length_c       9.571073761292665
_cell_angle_alpha    92.7257737541358
_cell_angle_beta     102.38995527538634
_cell_angle_gamma    107.06799923866484

_space_group_name_H-M_alt    "P 1"
_space_group_IT_number       1

loop_
  _space_group_symop_operation_xyz
  'x, y, z'

loop_
  _atom_site_type_symbol
  _atom_site_label
  _atom_site_symmetry_multiplicity
  _atom_site_fract_x
  _atom_site_fract_y
  _atom_site_fract_z
  _atom_site_occupancy
  Mo  Mo1       1.0  0.7833791375662784  0.3933697901322333  0.8650505470281618  1.0000
  Mo  Mo2       1.0  0.216620278283024  0.6066309684970294  0.13494907703795894  1.0000
  Mo  Mo3       1.0  0.3618246623509975  0.34948120666219756  0.8706509924571935  1.0000
  Mo  Mo4       1.0  0.6381751864866132  0.6505172049634639  0.12934861540604461  1.0000
  H   H1        1.0  0.5960381773832566  0.2589031289105819  0.12006906912373695  1.0000
  H   H2        1.0  0.4039624961092727  0.7410976363051418  0.8799318284617926  1.0000
  H   H3        1.0  0.971916173104809  0.1526025517768872  0.6470108206571015  1.0000
  H   H4        1.0  0.02808408580345661  0.8473970335259299  0.35298890911568753  1.0000
  H   H5        1.0  0.43616416340156416  0.012992176052954102  0.16563244810034666  1.0000
  H   H6        1.0  0.5638365100909651  0.9870085891627693  0.8343684494851831  1.0000
  H   H7        1.0  0.5440160567303778  0.9041181887063274  0.3855439475577783  1.0000
  H   H8        1.0  0.45598545079392494  0.0958813907114617  0.614454963928033  1.0000
  H   H9        1.0  0.9930715249930984  0.3300196931712166  0.4973841898072565  1.0000
  H   H10       1.0  0.0069299870447992  0.6699798924823243  0.5026157675817445  1.0000
  H   H11       1.0  0.8628502057652909  0.42344221906088825  0.2700116077060387  1.0000
  H   H12       1.0  0.13715171634326837  0.5765585402698078  0.7299884715925132  1.0000
  H   H13       1.0  0.6203017234033865  0.530928372614504  0.597197606746555  1.0000
  H   H14       1.0  0.3796976924459088  0.46907238601475126  0.40280201731956583  1.0000
  H   H15       1.0  0.6433593712407628  0.7581155241504406  0.46465673771341204  1.0000
  H   H16       1.0  0.3566404730832459  0.24188288123946924  0.535341824246629  1.0000
  H   H17       1.0  0.024416550661300097  0.0356612443872635  0.845555621219987  1.0000
  H   H18       1.0  0.9755812065013103  0.9643383464498639  0.15444469922355353  1.0000
  H   H19       1.0  0.98700517184713  0.7909605046304904  0.9592115619586467  1.0000
  H   H20       1.0  0.012991332185848095  0.2090390858559275  0.04078853086868151  1.0000
  C   C1        1.0  0.5581204309721954  0.07763132276879497  0.24356555664418525  1.0000
  C   C2        1.0  0.44187983244967194  0.9223682687697732  0.7564352190317936  1.0000
  C   C3        1.0  0.6221084447755985  0.018170498215823696  0.36642257174982973  1.0000
  C   C4        1.0  0.37789181413267414  0.9818290870869932  0.6335771580229592  1.0000
  C   C5        1.0  0.7833960613835274  0.1069035452711873  0.46155673853790813  1.0000
  C   C6        1.0  0.21660419301113618  0.8930960337958851  0.5384419453316838  1.0000
  C   C7        1.0  0.869847192879952  0.2574147247562165  0.4262889508472157  1.0000
  C   C8        1.0  0.13015431915794548  0.742584860897324  0.5737110065417853  1.0000
  C   C9        1.0  0.799991282139942  0.31034438226590316  0.3027218206320726  1.0000
  C   C10       1.0  0.20001022989795555  0.6896552033876303  0.6972781367569284  1.0000
  C   C11       1.0  0.7052520723640967  0.6462237511815019  0.6498691657804586  1.0000
  C   C12       1.0  0.2947477809871089  0.35377466667990387  0.35013148798596927  1.0000
  C   C13       1.0  0.716903692377265  0.7766976971213566  0.5762083588595247  1.0000
  C   C14       1.0  0.2830965665310003  0.22330188818146013  0.4237913709132571  1.0000
  C   C15       1.0  0.8313469496092764  0.9235194343910466  0.646087469263968  1.0000
  C   C16       1.0  0.1686533092989961  0.07648015091177031  0.3539122605088139  1.0000
  C   C17       1.0  0.9292503674853946  0.9268001134140746  0.7873453316887905  1.0000
  C   C18       1.0  0.07074905287750251  0.0732006514509322  0.21265533828052705  1.0000
  C   C19       1.0  0.9082336635688861  0.7897418081706746  0.8516949857393004  1.0000
  C   C20       1.0  0.0917657522804163  0.21025895045858792  0.14830463832682036  1.0000
  N   N1        1.0  0.6463822373448593  0.21975766333503094  0.2139507811160969  1.0000
  N   N2        1.0  0.353618431634075  0.7802430956449483  0.786049070566236  1.0000
  N   N3        1.0  0.8635157145528111  0.0635109833100458  0.5862272657488603  1.0000
  N   N4        1.0  0.13648579748508644  0.936488602343495  0.41377269164014063  1.0000
  N   N5        1.0  0.7969304317120134  0.6495935040144758  0.7855521424314703  1.0000
  N   N6        1.0  0.2030685740666271  0.3504060809376243  0.21444735972509937  1.0000
  O   O1        1.0  5.681947711397219e-07  0.5000000914994515  7.523416555868094e-07  1.0000
  O   O2        1.0  0.5319682800720997  0.36386794113425225  0.7645505898763079  1.0000
  O   O3        1.0  0.4680336420364597  0.6361328181964366  0.23544948942225127  1.0000
  O   O4        1.0  0.35138869123115757  0.1967480822210206  0.9750072715204043  1.0000
  O   O5        1.0  0.648611162120048  0.8032503356403923  0.02499338224602352  1.0000
  O   O6        1.0  0.7431713013587923  0.21033874436390937  0.9246293297544101  1.0000
  O   O7        1.0  0.25682896206307493  0.7896608471746588  0.07537144592156864  1.0000
  O   O8        1.0  0.8514869028469931  0.37134588230456694  0.7103482115580775  1.0000
  O   O9        1.0  0.14851251300230217  0.6286548763246956  0.28965141250804294  1.0000
  O   O10       1.0  0.6563412381941093  0.4758881707471831  0.031216694916281512  1.0000
  O   O11       1.0  0.34365943529842  0.5241125944685406  0.968784202669248  1.0000
  O   O12       1.0  0.8286380087452229  0.711414134824338  0.2673449109307812  1.0000
  O   O13       1.0  0.17136225016304957  0.2885854504784859  0.7326548188420078  1.0000
