data_image0
_chemical_formula_structural       Cd2H20C32S4N8O8
_chemical_formula_sum              "Cd2 H20 C32 S4 N8 O8"
_cell_length_a       8.438739946136222
_cell_length_b       9.768503994824433
_cell_length_c       10.862677604611346
_cell_angle_alpha    80.18067163737172
_cell_angle_beta     87.1489224223231
_cell_angle_gamma    75.44583531995048

_space_group_name_H-M_alt    "P 1"
_space_group_IT_number       1

loop_
  _space_group_symop_operation_xyz
  'x, y, z'

loop_
  _atom_site_type_symbol
  _atom_site_label
  _atom_site_symmetry_multiplicity
  _atom_site_fract_x
  _atom_site_fract_y
  _atom_site_fract_z
  _atom_site_occupancy
  Cd  Cd1       1.0  0.24809053263602016  0.47389890935518497  0.507640778615631  1.0000
  Cd  Cd2       1.0  0.7519080527814382  0.5261030856428591  0.49235968458165047  1.0000
  H   H1        1.0  0.22570612184558309  0.4555840591871174  0.8000267458786396  1.0000
  H   H2        1.0  0.7742936858891413  0.5444136690434715  0.19997244692161334  1.0000
  H   H3        1.0  0.336254671350332  0.5295856955011686  0.9799627664015772  1.0000
  H   H4        1.0  0.6637487005593955  0.4704120453662313  0.020035385761474293  1.0000
  H   H5        1.0  0.7640328581125145  0.7585267280279098  0.8293228740805817  1.0000
  H   H6        1.0  0.23596841720521408  0.24146988633457775  0.17068011228540308  1.0000
  H   H7        1.0  0.13184367788473872  0.9803830470341306  0.4484853858699793  1.0000
  H   H8        1.0  0.8681572854462515  0.019618959932479595  0.5515140761178472  1.0000
  H   H9        1.0  0.15152459770452253  0.22092770134010203  0.47666013699830506  1.0000
  H   H10       1.0  0.8484760681330813  0.779075388266534  0.5233382590578659  1.0000
  H   H11       1.0  0.5159277018185833  0.7782561124400119  0.7147766113925512  1.0000
  H   H12       1.0  0.4840732615124069  0.22174589452659882  0.2852228505952752  1.0000
  H   H13       1.0  0.6537093839222906  0.31860532614815174  0.8100397172913105  1.0000
  H   H14       1.0  0.3462895097697898  0.6813956074740729  0.1899599671297452  1.0000
  H   H15       1.0  0.5025011687461429  0.4485260195078665  0.715088466154299  1.0000
  H   H16       1.0  0.4974985975421546  0.5514759655263004  0.28491287996916276  1.0000
  H   H17       1.0  0.10487754726424474  0.8266599447497284  0.32628958384525925  1.0000
  H   H18       1.0  0.8951228247920682  0.1733398962686081  0.6737120494336324  1.0000
  H   H19       1.0  0.9209082065272085  0.9433010405965161  0.28454826382342463  1.0000
  H   H20       1.0  0.07909219248220012  0.05669885358234691  0.7154487576857632  1.0000
  C   C1        1.0  0.9243813503125794  0.5535786944618762  0.6999831267650549  1.0000
  C   C2        1.0  0.0756172657700703  0.44641902246837606  0.30001702781689943  1.0000
  C   C3        1.0  0.9902667266676416  0.6043142284092581  0.8031376439237832  1.0000
  C   C4        1.0  0.009733075676472037  0.39568348918922414  0.1968624712304106  1.0000
  C   C5        1.0  0.15133924508825922  0.541309978765703  0.8451891450782725  1.0000
  C   C6        1.0  0.8486626376759999  0.45868883344137146  0.15480890293481764  1.0000
  C   C7        1.0  0.21311684764404507  0.5821817045409573  0.9454935639530007  1.0000
  C   C8        1.0  0.7868856301069941  0.41781494238608  0.054506615923401135  1.0000
  C   C9        1.0  0.11221922685602695  0.6878125069854091  0.00670977023116142  1.0000
  C   C10       1.0  0.8877853565897385  0.31218094585032924  0.9932889562427434  1.0000
  C   C11       1.0  0.9505221841929414  0.7532548186585969  0.9618031448573136  1.0000
  C   C12       1.0  0.04947910729663359  0.24674182760020363  0.03819707444684179  1.0000
  C   C13       1.0  0.8890998854589757  0.7125046391700208  0.8615459417688883  1.0000
  C   C14       1.0  0.11090259229206374  0.2874920077570166  0.1384542381075207  1.0000
  C   C15       1.0  0.026549150283180785  0.8266676558142263  0.15156805486051894  1.0000
  C   C16       1.0  0.9734509495543263  0.17332897914423737  0.8484331262253377  1.0000
  C   C17       1.0  0.32183789513893407  0.8656306142244856  0.5799323648305831  1.0000
  C   C18       1.0  0.6781600845105018  0.1343735247893818  0.4200678112112683  1.0000
  C   C19       1.0  0.21995053329484904  0.9907302343575635  0.5137019213163755  1.0000
  C   C20       1.0  0.7800483512945107  0.0092750198608726  0.4862943823042372  1.0000
  C   C21       1.0  0.2311422708246766  0.12591343917564754  0.5288489572390631  1.0000
  C   C22       1.0  0.7688563145927819  0.8740885558223892  0.4711515059582183  1.0000
  C   C23       1.0  0.3465060107883317  0.13805679012542524  0.6121349344554474  1.0000
  C   C24       1.0  0.6534922825263508  0.8619462981447367  0.38786354045623034  1.0000
  C   C25       1.0  0.44510822099306324  0.011959977927936896  0.6821773601117798  1.0000
  C   C26       1.0  0.5548900669310015  0.9880430997101184  0.3178220371538459  1.0000
  C   C27       1.0  0.435510180107727  0.87589137543069  0.6661413602892239  1.0000
  C   C28       1.0  0.5644889965844085  0.12411278551562079  0.3338569316169853  1.0000
  C   C29       1.0  0.49342518554205833  0.2424506897511876  0.7178650826374948  1.0000
  C   C30       1.0  0.5065727941073775  0.7575534492626799  0.28213509340434945  1.0000
  C   C31       1.0  0.3100669665872929  0.7241859684376023  0.5542020646784636  1.0000
  C   C32       1.0  0.6899277517711511  0.2758170859315355  0.4457992955783041  1.0000
  S   S1        1.0  0.5751718385924677  0.059756152597650186  0.7780718103938825  1.0000
  S   S2        1.0  0.4248276409836721  0.9402469363407416  0.22192662509004177  1.0000
  S   S3        1.0  0.8497752708272798  0.8740008940804175  0.05812181595821637  1.0000
  S   S4        1.0  0.15022662103969966  0.1259935975304529  0.9418796128553097  1.0000
  N   N1        1.0  0.376756386028319  0.2646376729551392  0.6327750063857849  1.0000
  N   N2        1.0  0.6232407102436711  0.7353653933825797  0.367225352661535  1.0000
  N   N3        1.0  0.5463423253706381  0.3443648228497905  0.7577358298155944  1.0000
  N   N4        1.0  0.4536562546562026  0.6556371615161395  0.2422655557356208  1.0000
  N   N5        1.0  0.15171186878105672  0.7326015642222499  0.11226910973689999  1.0000
  N   N6        1.0  0.8482915176220088  0.2673918666810449  0.8877315008726471  1.0000
  N   N7        1.0  0.028884854933650856  0.8855712502619251  0.25458382614193914  1.0000
  N   N8        1.0  0.9711176443798595  0.11442543919353194  0.7454126643186925  1.0000
  O   O1        1.0  0.01888533280272506  0.4687154107278459  0.6350519627128506  1.0000
  O   O2        1.0  0.9811129803959133  0.5312833782103183  0.36494804829138167  1.0000
  O   O3        1.0  0.40984926917485615  0.6086221435907291  0.6034451459792365  1.0000
  O   O4        1.0  0.5901481353717628  0.39137986137117753  0.3965544342918506  1.0000
  O   O5        1.0  0.19744570163644684  0.7205417904932856  0.47995533813502783  1.0000
  O   O6        1.0  0.8025490059407616  0.2794612426116457  0.5200478668296284  1.0000
  O   O7        1.0  0.7701065386159628  0.5978131193120858  0.6772475029915626  1.0000
  O   O8        1.0  0.22989206129483364  0.40218456572185346  0.3227554186522141  1.0000
