data_image0
_chemical_formula_structural       Cu2H44C40N4O12
_chemical_formula_sum              "Cu2 H44 C40 N4 O12"
_cell_length_a       7.914419269103486
_cell_length_b       8.997959143112697
_cell_length_c       13.0678062683335
_cell_angle_alpha    91.34438733902934
_cell_angle_beta     90.00027815553283
_cell_angle_gamma    89.99948433971576

_space_group_name_H-M_alt    "P 1"
_space_group_IT_number       1

loop_
  _space_group_symop_operation_xyz
  'x, y, z'

loop_
  _atom_site_type_symbol
  _atom_site_label
  _atom_site_symmetry_multiplicity
  _atom_site_fract_x
  _atom_site_fract_y
  _atom_site_fract_z
  _atom_site_occupancy
  Cu  Cu1       1.0  3.258657656599998e-06  0.5000036800795657  0.5000009572670621  1.0000
  Cu  Cu2       1.0  0.4999989824282808  0.9999987008490269  0.9999986956666901  1.0000
  H   H1        1.0  0.45293807383309576  0.6195923207916962  0.5257897120021369  1.0000
  H   H2        1.0  0.9529310105794622  0.8804142675163507  0.9742143954872517  1.0000
  H   H3        1.0  0.5470622182889217  0.3804066209074081  0.4742081917100194  1.0000
  H   H4        1.0  0.047064227465639916  0.11958801377704734  0.025785087920795004  1.0000
  H   H5        1.0  0.45419286377329376  0.6955603468822745  0.6515395951832944  1.0000
  H   H6        1.0  0.9541868281233193  0.8044417916881204  0.8484667461361752  1.0000
  H   H7        1.0  0.5458049013211125  0.3044374831600509  0.3484582921407622  1.0000
  H   H8        1.0  0.04581093701712999  0.1955504937421892  0.151535650913452  1.0000
  H   H9        1.0  0.37491359564785404  0.9434705268949415  0.6690878360832926  1.0000
  H   H10       1.0  0.8749061365459099  0.5565400182887856  0.8309176308223769  1.0000
  H   H11       1.0  0.6250866964686066  0.0565295264709391  0.3309100840133965  1.0000
  H   H12       1.0  0.12509036505733212  0.44346006253586273  0.1690894725654744  1.0000
  H   H13       1.0  0.642915204704252  0.8015983477956541  0.39762090566190267  1.0000
  H   H14       1.0  0.14290818392191806  0.6983969563982414  0.1023881400192579  1.0000
  H   H15       1.0  0.35708508741471695  0.1984005916164691  0.6023762327755406  1.0000
  H   H16       1.0  0.8570832636094324  0.30160423611317105  0.8976189797459924  1.0000
  H   H17       1.0  0.8313025097251983  0.21528652076344915  0.48152182668912497  1.0000
  H   H18       1.0  0.3313002634248647  0.2847303561112541  0.0184840950105354  1.0000
  H   H19       1.0  0.16869272828564874  0.7847268932065962  0.5184831774872407  1.0000
  H   H20       1.0  0.6686987651764582  0.7152663508243863  0.9815099495572212  1.0000
  H   H21       1.0  0.8155025601317689  0.9797702971121399  0.5818495874008532  1.0000
  H   H22       1.0  0.3154985994883219  0.5202462718550651  0.9181542631480824  1.0000
  H   H23       1.0  0.18449267786941453  0.020241993756229704  0.4181515740174291  1.0000
  H   H24       1.0  0.6845054831909821  0.4797493279677667  0.08184129559168699  1.0000
  H   H25       1.0  0.13605360444241643  0.4206080381926754  0.6993700247711913  1.0000
  H   H26       1.0  0.63603935470546  0.07940079594089873  0.8006360755852384  1.0000
  H   H27       1.0  0.8639542687787197  0.5793964823931577  0.3006348483467249  1.0000
  H   H28       1.0  0.36396472799103924  0.9205925851223358  0.1993609809348769  1.0000
  H   H29       1.0  0.9773862914724205  0.9661227084693353  0.7456459461294926  1.0000
  H   H30       1.0  0.4773745671352998  0.533888128525362  0.7543567653665946  1.0000
  H   H31       1.0  0.022619054701770804  0.0338784542563531  0.2543512250841644  1.0000
  H   H32       1.0  0.522634569605316  0.46610969918499745  0.24564035669880005  1.0000
  H   H33       1.0  0.1421946215623464  0.1910790098288473  0.8068919196440304  1.0000
  H   H34       1.0  0.6421797187965127  0.3089253221938792  0.693111836687116  1.0000
  H   H35       1.0  0.8578145151873998  0.8089188247424559  0.19310749824548878  1.0000
  H   H36       1.0  0.35782815444723337  0.6910691728081204  0.3068860014975953  1.0000
  H   H37       1.0  0.9970697044516044  0.3161949273648689  0.32706392741490475  1.0000
  H   H38       1.0  0.49707855689411656  0.18380615658045235  0.1729323007400723  1.0000
  H   H39       1.0  0.0029305876765021994  0.6838040189081983  0.6729355068466701  1.0000
  H   H40       1.0  0.5029192081977741  0.8161927874156307  0.8270663682432228  1.0000
  H   H41       1.0  0.8221584774443116  0.29008739105883324  0.2691495908230763  1.0000
  H   H42       1.0  0.32216247429801836  0.20990950925457247  0.2308430004773925  1.0000
  H   H43       1.0  0.177841814697949  0.709909334167655  0.7308505759441317  1.0000
  H   H44       1.0  0.677835290784742  0.7900894278805667  0.7691533726817779  1.0000
  C   C1        1.0  0.5097800198741356  0.8541940533917799  0.5378855631877144  1.0000
  C   C2        1.0  0.0097751403596646  0.6458127197261162  0.9621218356331127  1.0000
  C   C3        1.0  0.4902190087312944  0.1458048883123197  0.4621123405226513  1.0000
  C   C4        1.0  0.9902175706796683  0.3541895821600961  0.037884535243748  1.0000
  C   C5        1.0  0.518822692245088  0.6980477679996043  0.5774757696303112  1.0000
  C   C6        1.0  0.0188159173601719  0.8019544846295404  0.9225308239051273  1.0000
  C   C7        1.0  0.4811750728554073  0.30195006661668344  0.42252364824315686  1.0000
  C   C8        1.0  0.9811805842303587  0.19804447080644397  0.0774716714499277  1.0000
  C   C9        1.0  0.43026657331377294  0.9680042814522808  0.5948836649078615  1.0000
  C   C10       1.0  0.9302561644240371  0.5319991489499217  0.9051195641401293  1.0000
  C   C11       1.0  0.5697349823223162  0.031995774195586114  0.40511502046531694  1.0000
  C   C12       1.0  0.06973781014352202  0.4680020458384747  0.09488832090339369  1.0000
  C   C13       1.0  0.5796367715876655  0.8884830744525022  0.4427726481851479  1.0000
  C   C14       1.0  0.0796277418915139  0.6115116049954283  0.057231610806646  1.0000
  C   C15       1.0  0.42036352054043397  0.1115158718205578  0.557226786076427  1.0000
  C   C16       1.0  0.9203637056398365  0.3884895875159914  0.9427755089585972  1.0000
  C   C17       1.0  0.7021832566281035  0.6491216539119975  0.5909493866364528  1.0000
  C   C18       1.0  0.20218093340201193  0.8508735759651317  0.9090530510154551  1.0000
  C   C19       1.0  0.2978145084607463  0.35087728779710403  0.4090485170721365  1.0000
  C   C20       1.0  0.7978168317156786  0.1491220398915516  0.090947864638359  1.0000
  C   C21       1.0  0.8945747158471208  0.2042198156118928  0.5550721807146033  1.0000
  C   C22       1.0  0.39456944575621117  0.29579475254652016  0.9449339989531254  1.0000
  C   C23       1.0  0.1054243127048764  0.7957947077229622  0.4449320745769398  1.0000
  C   C24       1.0  0.6054321098985299  0.7041997379065067  0.05506230867324999  1.0000
  C   C25       1.0  0.8891235210128202  0.07405360041289552  0.6104166746106187  1.0000
  C   C26       1.0  0.3891190195105808  0.42595878524970493  0.8895886916240839  1.0000
  C   C27       1.0  0.11087171701112201  0.9259553600290933  0.3895859682034767  1.0000
  C   C28       1.0  0.6108863266822623  0.5740368122811503  0.1104061018427629  1.0000
  C   C29       1.0  0.06916851672777818  0.31880560755638504  0.6771773731297374  1.0000
  C   C30       1.0  0.5691559416622526  0.18120264407301087  0.8228285220081374  1.0000
  C   C31       1.0  0.9308368294460293  0.6812011340860239  0.32282676747897904  1.0000
  C   C32       1.0  0.4308456139985708  0.8187918509539857  0.17716931616765658  1.0000
  C   C33       1.0  0.9791052535701396  0.0673321347718669  0.7018321473146472  1.0000
  C   C34       1.0  0.4790948999722175  0.43267842734606893  0.7981734565723002  1.0000
  C   C35       1.0  0.020897565563885202  0.9326734860658308  0.2981689158071248  1.0000
  C   C36       1.0  0.52090918271675  0.5673182955784458  0.20182594492554526  1.0000
  C   C37       1.0  0.07040764050600502  0.19154373777932682  0.7357741039307939  1.0000
  C   C38       1.0  0.5703983644769793  0.3084589411256858  0.7642301822380515  1.0000
  C   C39       1.0  0.9295964421779389  0.8084552130527102  0.2642268608855503  1.0000
  C   C40       1.0  0.4296082452385336  0.6915366609741299  0.2357661417799903  1.0000
  N   N1        1.0  0.9829117419053973  0.32392680954684044  0.588363801424272  1.0000
  N   N2        1.0  0.4829036260921101  0.17608260849301166  0.9116410315534367  1.0000
  N   N3        1.0  0.017089813716147303  0.6760810460643257  0.4116411208383326  1.0000
  N   N4        1.0  0.517100456584153  0.8239129890428388  0.0883537619116197  1.0000
  O   O1        1.0  0.75797024359278  0.5557060291400692  0.5234213843090387  1.0000
  O   O2        1.0  0.2579687783163678  0.9443043181293264  0.9765799096813339  1.0000
  O   O3        1.0  0.24203004850092216  0.4442973546521928  0.4765750543918372  1.0000
  O   O4        1.0  0.7420327773111168  0.055696846898342804  0.023418026801678597  1.0000
  O   O5        1.0  0.8734054826205979  0.3329380007821143  0.3324414578772021  1.0000
  O   O6        1.0  0.37341193444832754  0.16705739384300952  0.16755508810118866  1.0000
  O   O7        1.0  0.12659480949890423  0.6670620548707549  0.6675572274941929  1.0000
  O   O8        1.0  0.6265858306202717  0.8329437643387083  0.8324405525523416  1.0000
  O   O9        1.0  0.7867858133993124  0.7047035518760583  0.664677053000645  1.0000
  O   O10       1.0  0.2867771459298325  0.795296587599836  0.835332592895412  1.0000
  O   O11       1.0  0.2132119516845137  0.29529761774056607  0.3353224140264287  1.0000
  O   O12       1.0  0.7132168286381032  0.20469902827184686  0.1646683227530517  1.0000
