data_image0
_chemical_formula_structural       Cd2H16C20Br4N4Cl4
_chemical_formula_sum              "Cd2 H16 C20 Br4 N4 Cl4"
_cell_length_a       3.892752348359256
_cell_length_b       11.665594448287369
_cell_length_c       14.396741322312584
_cell_angle_alpha    90.00036105451234
_cell_angle_beta     90.00064503894033
_cell_angle_gamma    88.85664012345399

_space_group_name_H-M_alt    "P 1"
_space_group_IT_number       1

loop_
  _space_group_symop_operation_xyz
  'x, y, z'

loop_
  _atom_site_type_symbol
  _atom_site_label
  _atom_site_symmetry_multiplicity
  _atom_site_fract_x
  _atom_site_fract_y
  _atom_site_fract_z
  _atom_site_occupancy
  Cd  Cd1       1.0  2.8066095510016754e-06  0.9999984326147884  2.3804037140000083e-07  1.0000
  Cd  Cd2       1.0  0.9999902156014997  0.5000032470758882  0.5000005648780572  1.0000
  H   H1        1.0  0.7393718977750724  0.8962956499356668  0.8051875575669386  1.0000
  H   H2        1.0  0.7393517615902638  0.3963024730018745  0.6948106785807298  1.0000
  H   H3        1.0  0.2606260829661411  0.10370076322708849  0.19481069522045402  1.0000
  H   H4        1.0  0.2606411594921809  0.6037016946588099  0.30518549041296694  1.0000
  H   H5        1.0  0.9792567554628776  0.12288097734373342  0.5765086042081152  1.0000
  H   H6        1.0  0.9792715596258575  0.6228717429308263  0.9234952772868681  1.0000
  H   H7        1.0  0.020741269240076604  0.8771197216094109  0.4234896485896869  1.0000
  H   H8        1.0  0.020741793464843304  0.3771202642048267  0.0765064485209166  1.0000
  H   H9        1.0  0.23949868188269363  0.254206310757219  0.6921985844122247  1.0000
  H   H10       1.0  0.23952152396038434  0.7542020598471099  0.8078078974932411  1.0000
  H   H11       1.0  0.7604890917783325  0.7457970398508922  0.3078031413848876  1.0000
  H   H12       1.0  0.7604944073395431  0.24579078441312424  0.1921959121252925  1.0000
  H   H13       1.0  0.24050303145590857  0.19796167798659073  0.8616895832772684  1.0000
  H   H14       1.0  0.24052395581446726  0.6979637588370835  0.6383159355153722  1.0000
  H   H15       1.0  0.7594821728613398  0.8020416926687659  0.1383135317193336  1.0000
  H   H16       1.0  0.7594895027990348  0.302038534198232  0.3616864849190264  1.0000
  C   C1        1.0  0.8506625829431728  0.9739776891275725  0.7769988926590373  1.0000
  C   C2        1.0  0.8506307513946326  0.47398140704500236  0.7229958820010227  1.0000
  C   C3        1.0  0.14933286353592481  0.026022172698226598  0.22299658172639172  1.0000
  C   C4        1.0  0.14936982511127184  0.5260175575529829  0.27700306539802  1.0000
  C   C5        1.0  0.8466576067638131  0.9988183923077045  0.6823080739450944  1.0000
  C   C6        1.0  0.8466348390642296  0.49881682013220546  0.8176944493312562  1.0000
  C   C7        1.0  0.1533378573730886  0.0011831838480063004  0.31769087345264785  1.0000
  C   C8        1.0  0.15336577265492932  0.5011855731063479  0.182306581881015  1.0000
  C   C9        1.0  0.9820190763444714  0.10118904423129044  0.65011340696816  1.0000
  C   C10       1.0  0.9819896541441651  0.6011778331220158  0.849888294156358  1.0000
  C   C11       1.0  0.017979009904927106  0.8988176548283777  0.34988484584422247  1.0000
  C   C12       1.0  0.018031433471883004  0.3988166853681249  0.1501148208722611  1.0000
  C   C13       1.0  0.1253717727770791  0.17458846769331163  0.7151909256283204  1.0000
  C   C14       1.0  0.1253807648560397  0.6745807062349698  0.7848162215201882  1.0000
  C   C15       1.0  0.8746442288470179  0.8254112338287813  0.2848121894052369  1.0000
  C   C16       1.0  0.8746429184515919  0.32541636367664495  0.2151841151119243  1.0000
  C   C17       1.0  0.12609434219591983  0.14413624066772  0.8086877057111367  1.0000
  C   C18       1.0  0.12607127552664116  0.6441416735698058  0.6913144343568051  1.0000
  C   C19       1.0  0.8738780152269855  0.8558672301908743  0.1913140200633237  1.0000
  C   C20       1.0  0.873924179891027  0.3558590454415835  0.308687986047012  1.0000
  Br  Br1       1.0  0.6659848594357031  0.8897171070143485  0.5985205254985007  1.0000
  Br  Br2       1.0  0.6659964603528367  0.3897168151744952  0.9014767659550386  1.0000
  Br  Br3       1.0  0.3340131212616414  0.1102793061401499  0.4014756434839981  1.0000
  Br  Br4       1.0  0.3340143760604449  0.6102803549403504  0.09852218145494619  1.0000
  N   N1        1.0  0.9891085803156944  0.0459454130245334  0.8387747277101383  1.0000
  N   N2        1.0  0.9891048107586332  0.5459513044249746  0.6612274225105921  1.0000
  N   N3        1.0  0.010879131755025601  0.9540519374687904  0.16122491426750682  1.0000
  N   N4        1.0  0.010890670992218101  0.4540519860523916  0.33877291409457655  1.0000
  Cl  Cl1       1.0  0.4869310855494504  0.1541056613120944  0.029659891432658  1.0000
  Cl  Cl2       1.0  0.486927421247529  0.6541081013655656  0.47033860007982753  1.0000
  Cl  Cl3       1.0  0.5130669040279728  0.8458916090169952  0.9703404451617176  1.0000
  Cl  Cl4       1.0  0.5130552311936754  0.34589700363117976  0.5296603473073773  1.0000
