data_image0
_chemical_formula_structural       Na2UH8C8N2O14
_chemical_formula_sum              "Na2 U1 H8 C8 N2 O14"
_cell_length_a       5.528239755669186
_cell_length_b       6.590350765691868
_cell_length_c       10.36395208135522
_cell_angle_alpha    78.13916946612464
_cell_angle_beta     87.23893611089282
_cell_angle_gamma    81.81947218857526

_space_group_name_H-M_alt    "P 1"
_space_group_IT_number       1

loop_
  _space_group_symop_operation_xyz
  'x, y, z'

loop_
  _atom_site_type_symbol
  _atom_site_label
  _atom_site_symmetry_multiplicity
  _atom_site_fract_x
  _atom_site_fract_y
  _atom_site_fract_z
  _atom_site_occupancy
  Na  Na1       1.0  0.7840850727048548  0.33165617055451707  0.013664665509978087  1.0000
  Na  Na2       1.0  0.21589890087593494  0.6683357627561294  0.9863412829256504  1.0000
  U   U1        1.0  0.9999928597407932  0.5000040709531818  0.5000038234782807  1.0000
  H   H1        1.0  0.30800422094744573  0.2876041766727155  0.877696752830431  1.0000
  H   H2        1.0  0.6919808605045717  0.7123921840175383  0.1222998511717392  1.0000
  H   H3        1.0  0.07943358265367813  0.4339268094065646  0.8086600250355361  1.0000
  H   H4        1.0  0.9205346014949928  0.5660728792347598  0.1913461670768868  1.0000
  H   H5        1.0  0.71019384257923  0.17982444155839525  0.7887830879443669  1.0000
  H   H6        1.0  0.289817542290102  0.820176951800093  0.21121698163082667  1.0000
  H   H7        1.0  0.6024581055586326  0.9925625825586409  0.877872320009672  1.0000
  H   H8        1.0  0.39752948761917406  0.007451148697619202  0.1221256044368459  1.0000
  C   C1        1.0  0.668748779412148  0.9959146847856603  0.3998049521783713  1.0000
  C   C2        1.0  0.331272747365098  0.004069454970135702  0.6001944366405638  1.0000
  C   C3        1.0  0.8884143518213535  0.9836205417099324  0.3066673837531225  1.0000
  C   C4        1.0  0.11161324495645183  0.016392081027149206  0.6933355133882914  1.0000
  C   C5        1.0  0.4567826507737038  0.1442982953919341  0.3852386878720608  1.0000
  C   C6        1.0  0.543245779079456  0.8557312523674199  0.6147521231970714  1.0000
  C   C7        1.0  0.3685232892499855  0.30915396261797673  0.2655200600983392  1.0000
  C   C8        1.0  0.6314881164750119  0.6908146933192117  0.7344895055896855  1.0000
  N   N1        1.0  0.7017697841369284  0.8550850880490374  0.5128993592701576  1.0000
  N   N2        1.0  0.29825103862522445  0.14491367093008733  0.4871143669969626  1.0000
  O   O1        1.0  0.7387615282232858  0.4588220575777555  0.4145961455658664  1.0000
  O   O2        1.0  0.2612155830799736  0.5412216415516868  0.5854064441990943  1.0000
  O   O3        1.0  0.04699473111806175  0.8193148939976569  0.3446218584000746  1.0000
  O   O4        1.0  0.9529999651188563  0.18067824432341695  0.6553701454627188  1.0000
  O   O5        1.0  0.916203181609646  0.1241375381633674  0.2103008065759155  1.0000
  O   O6        1.0  0.08381310824237428  0.8758350436334086  0.7896829878482733  1.0000
  O   O7        1.0  0.2159210560600045  0.45820376245176675  0.29693252336522846  1.0000
  O   O8        1.0  0.7840528539422708  0.5417942747287513  0.7030699044060214  1.0000
  O   O9        1.0  0.429294647517189  0.29299148133326014  0.1503118146086209  1.0000
  O   O10       1.0  0.5707255896940495  0.707000419217259  0.8496845681463725  1.0000
  O   O11       1.0  0.15191672022535133  0.37356888877614136  0.8947975198000435  1.0000
  O   O12       1.0  0.8480566796610564  0.6264213443747552  0.10520699903468507  1.0000
  O   O13       1.0  0.6020648523213696  0.14452681099106712  0.8668693901458511  1.0000
  O   O14       1.0  0.3979432057446602  0.8554946737825732  0.13312017318268227  1.0000
