data_image0
_chemical_formula_structural       Zn4H26C32N4O25
_chemical_formula_sum              "Zn4 H26 C32 N4 O25"
_cell_length_a       10.697166009166219
_cell_length_b       10.98362284435181
_cell_length_c       19.56593919009953
_cell_angle_alpha    92.70171521199207
_cell_angle_beta     97.15733088375424
_cell_angle_gamma    97.47816042407307

_space_group_name_H-M_alt    "P 1"
_space_group_IT_number       1

loop_
  _space_group_symop_operation_xyz
  'x, y, z'

loop_
  _atom_site_type_symbol
  _atom_site_label
  _atom_site_symmetry_multiplicity
  _atom_site_fract_x
  _atom_site_fract_y
  _atom_site_fract_z
  _atom_site_occupancy
  Zn  Zn1       1.0  0.4350746297179171  0.6065966170520269  0.5642866232000258  1.0000
  Zn  Zn2       1.0  0.6039838015045261  0.6196335163955313  0.4424649810481966  1.0000
  Zn  Zn3       1.0  0.3828222888345606  0.38985405138509327  0.4398463171196738  1.0000
  Zn  Zn4       1.0  0.620027861201592  0.41216395513788473  0.557420508767521  1.0000
  H   H1        1.0  0.34174719396563796  0.4900630410459427  0.985382979969934  1.0000
  H   H2        1.0  0.7417413968619185  0.4965153849010874  0.9139391269675841  1.0000
  H   H3        1.0  0.6448468347366968  0.48428301000104307  0.1121709933256412  1.0000
  H   H4        1.0  0.6301559559325439  0.47960485410920467  0.0086726822624712  1.0000
  H   H5        1.0  0.33028706704563143  0.45438774956568995  0.877805610771567  1.0000
  H   H6        1.0  0.508734843149348  0.0046800950928727  0.4131491435330474  1.0000
  H   H7        1.0  0.19417433130784895  0.5315438414683554  0.7927269627047195  1.0000
  H   H8        1.0  0.17875380872163757  0.36712452874069607  0.7904319773299519  1.0000
  H   H9        1.0  0.10441778630070075  0.3552734912307328  0.6632718505564981  1.0000
  H   H10       1.0  0.007100964216583275  0.44196461310001905  0.7085529033487105  1.0000
  H   H11       1.0  0.12604288348962456  0.5189844413819384  0.663707576636746  1.0000
  H   H12       1.0  0.8953001073561424  0.29346671274704766  0.5332253352049037  1.0000
  H   H13       1.0  0.04241939432517938  0.260052944142913  0.5067810208891643  1.0000
  H   H14       1.0  0.9314851917563585  0.1774220670353941  0.3913957663595297  1.0000
  H   H15       1.0  0.853895815126151  0.10166324692571747  0.4565468093625356  1.0000
  H   H16       1.0  0.7854619774113871  0.22052181771839932  0.4126032475927133  1.0000
  H   H17       1.0  0.9081054165377789  0.7157411649545508  0.6240151497682547  1.0000
  H   H18       1.0  0.9105409697708351  0.808968447641689  0.5510892444317292  1.0000
  H   H19       1.0  0.12360013493843519  0.9217643739578633  0.6044497236153603  1.0000
  H   H20       1.0  0.005343347688992069  0.9331012094431299  0.6602279971047835  1.0000
  H   H21       1.0  0.11897907466984489  0.829387366536878  0.6768652173025487  1.0000
  H   H22       1.0  0.17105966393476987  0.6664272349072391  0.23903072347678034  1.0000
  H   H23       1.0  0.28747391687813456  0.6206860181000663  0.3024328212622649  1.0000
  H   H24       1.0  0.12158628660299799  0.458063211115089  0.3373922123086146  1.0000
  H   H25       1.0  0.07551986341479017  0.6073336750257353  0.34616286914128114  1.0000
  H   H26       1.0  0.005038743643105194  0.505994100158972  0.2746853139903322  1.0000
  C   C1        1.0  0.843299025790756  0.5631587512801418  0.5154841741350252  1.0000
  C   C2        1.0  0.18120747582534588  0.49273395082536814  0.5016956301194497  1.0000
  C   C3        1.0  0.540909162488724  0.8394601131976389  0.5113267542081701  1.0000
  C   C4        1.0  0.5201838115133484  0.18148182906426058  0.475418376978773  1.0000
  C   C5        1.0  0.4590483039411453  0.49815857796678403  0.3140655820139173  1.0000
  C   C6        1.0  0.5436498154667717  0.4909632498824194  0.6851068792085755  1.0000
  C   C7        1.0  0.5446502198485774  0.48388466470503744  0.7615425063387278  1.0000
  C   C8        1.0  0.42600813888238775  0.4673566668773503  0.7874981218140533  1.0000
  C   C9        1.0  0.42197501992012576  0.466203912158143  0.8585545011789151  1.0000
  C   C10       1.0  0.5350473032546785  0.4782458013117789  0.9052993744107168  1.0000
  C   C11       1.0  0.6524400220510882  0.4884734065327764  0.8795621059671532  1.0000
  C   C12       1.0  0.654832851022391  0.49262814423758516  0.8087562362053191  1.0000
  C   C13       1.0  0.5555464812287738  0.4877307909349184  0.1328527838311899  1.0000
  C   C14       1.0  0.5568467452500343  0.4882398953825914  0.2035351610994098  1.0000
  C   C15       1.0  0.3324373210693776  0.49692014721146194  0.1946495214090334  1.0000
  C   C16       1.0  0.3323923081776314  0.4960696107409532  0.122638416131764  1.0000
  C   C17       1.0  0.4407962738229684  0.4896085826312343  0.089306629160113  1.0000
  C   C18       1.0  0.5361898102729938  0.4812972302184945  0.979837670861997  1.0000
  C   C19       1.0  0.4350976196615689  0.48733495173540575  0.0144665096646222  1.0000
  C   C20       1.0  0.448375338438005  0.49259526302628137  0.23674124534377228  1.0000
  C   C21       1.0  0.04407080602744877  0.49438798442182  0.4976630243068739  1.0000
  C   C22       1.0  0.9870690623456467  0.5851680974042067  0.525998058059173  1.0000
  C   C23       1.0  0.5274817111744382  0.04755611415543368  0.46548409733540547  1.0000
  C   C24       1.0  0.547546893324089  0.9763732017960365  0.5181871392902337  1.0000
  C   C25       1.0  0.19721667872121165  0.44786316688125544  0.7598712115936265  1.0000
  C   C26       1.0  0.10327729105840429  0.44043136645751685  0.6947874709218382  1.0000
  C   C27       1.0  0.9477242469985184  0.2842578044632447  0.4885931233503981  1.0000
  C   C28       1.0  0.8755311397331553  0.19045153827725872  0.433897691022409  1.0000
  C   C29       1.0  0.9699100132583567  0.7703747864418842  0.592407466261271  1.0000
  C   C30       1.0  0.060408407808807886  0.8693867345642943  0.6360012647667972  1.0000
  C   C31       1.0  0.1979852155551214  0.5888303672787033  0.2686228257273129  1.0000
  C   C32       1.0  0.0942024340994934  0.5361109337538679  0.3088066024939948  1.0000
  N   N1        1.0  0.20945709918787261  0.505751508447034  0.0811551762613405  1.0000
  N   N2        1.0  0.570358646092991  0.027453230724525202  0.5907530517948629  1.0000
  N   N3        1.0  0.679443186683123  0.4732629731408479  0.244285691986903  1.0000
  N   N4        1.0  0.7804544923992153  0.5133501233469672  0.7842773469027051  1.0000
  O   O1        1.0  0.5112103475779789  0.506397090673957  0.4985684862647375  1.0000
  O   O2        1.0  0.7947183185333058  0.4912977050480834  0.5569501052418602  1.0000
  O   O3        1.0  0.25336841421581363  0.5797847567766964  0.5390417478915168  1.0000
  O   O4        1.0  0.5734301197509664  0.7936844057351422  0.45648923781635625  1.0000
  O   O5        1.0  0.42639859738995495  0.2197958812207688  0.4406786145827226  1.0000
  O   O6        1.0  0.5390913536335376  0.5862136132563833  0.344499446899718  1.0000
  O   O7        1.0  0.5811009842926821  0.40253099799314634  0.6523873353469584  1.0000
  O   O8        1.0  0.38688876597938543  0.41867944422075704  0.3409161943446506  1.0000
  O   O9        1.0  0.49984564758165806  0.5836518915251786  0.6601301357622518  1.0000
  O   O10       1.0  0.500470007074739  0.7834362205963076  0.5611220566527422  1.0000
  O   O11       1.0  0.6079785473338929  0.24304337731356176  0.5179203231839367  1.0000
  O   O12       1.0  0.7875857629771658  0.6208257340879725  0.4685405268911467  1.0000
  O   O13       1.0  0.21742025928291034  0.40368998027314956  0.4676235298046265  1.0000
  O   O14       1.0  0.3227862034678281  0.4523045721301528  0.7389143764582329  1.0000
  O   O15       1.0  0.15849701737523958  0.4148601300540449  0.0432069479645847  1.0000
  O   O16       1.0  0.16787658845695563  0.6051232446132174  0.08663672061494049  1.0000
  O   O17       1.0  0.9626034123011491  0.4024277515964555  0.457858405412729  1.0000
  O   O18       1.0  0.0472813702578847  0.6888357228490064  0.5605255529160686  1.0000
  O   O19       1.0  0.6770378110436822  0.019442580094619206  0.62135553376568  1.0000
  O   O20       1.0  0.48338594505927546  0.070801790211263  0.6148740222094204  1.0000
  O   O21       1.0  0.6755864539447741  0.40629608355368424  0.2934229675330968  1.0000
  O   O22       1.0  0.7773982129185839  0.5256277282067358  0.2250350578747486  1.0000
  O   O23       1.0  0.21844246557739663  0.4933084844626876  0.2181675462797088  1.0000
  O   O24       1.0  0.7878117174698714  0.5662063884763171  0.7299211522520466  1.0000
  O   O25       1.0  0.8714030772161435  0.4782339041098567  0.8200404900373927  1.0000
