data_image0
_chemical_formula_structural       Mn4H16C36N8O16
_chemical_formula_sum              "Mn4 H16 C36 N8 O16"
_cell_length_a       5.840543567143268
_cell_length_b       10.353108227623535
_cell_length_c       13.508609006763773
_cell_angle_alpha    96.18807194574966
_cell_angle_beta     89.99938189855466
_cell_angle_gamma    90.00047202937678

_space_group_name_H-M_alt    "P 1"
_space_group_IT_number       1

loop_
  _space_group_symop_operation_xyz
  'x, y, z'

loop_
  _atom_site_type_symbol
  _atom_site_label
  _atom_site_symmetry_multiplicity
  _atom_site_fract_x
  _atom_site_fract_y
  _atom_site_fract_z
  _atom_site_occupancy
  Mn  Mn1       1.0  0.7181909680997833  0.255196873980239  0.33507846616727477  1.0000
  Mn  Mn2       1.0  0.21820010018687702  0.24481130975544832  0.16493173056479543  1.0000
  Mn  Mn3       1.0  0.28252849486955267  0.744583527739813  0.6653686433438039  1.0000
  Mn  Mn4       1.0  0.7825382100301184  0.7554143304514226  0.8346270157725255  1.0000
  H   H1        1.0  0.3304016212326886  0.17292154828002276  0.7294009077720247  1.0000
  H   H2        1.0  0.8304154623069736  0.3270808422368815  0.7705970110049376  1.0000
  H   H3        1.0  0.6697785065856722  0.8262423139356087  0.27088082344542386  1.0000
  H   H4        1.0  0.1697972136329255  0.6737672009791638  0.2291349864330526  1.0000
  H   H5        1.0  0.6120638606839323  0.07477690596745389  0.5283681092339663  1.0000
  H   H6        1.0  0.11207126494183939  0.4252205485399045  0.9716289897420578  1.0000
  H   H7        1.0  0.387628306764384  0.9257194916448267  0.47193399418664206  1.0000
  H   H8        1.0  0.8876311767235946  0.5742851715734074  0.028067792325330673  1.0000
  H   H9        1.0  0.1607118275865673  0.41491733064450637  0.43377268746640835  1.0000
  H   H10       1.0  0.6607310357023907  0.08509441707939658  0.06622844738306098  1.0000
  H   H11       1.0  0.8409390555969551  0.5848640227887926  0.5666700540320304  1.0000
  H   H12       1.0  0.3408924661069079  0.9151039594171658  0.9333155384289851  1.0000
  H   H13       1.0  0.3860140773458767  0.3599653706943329  0.5826068174138042  1.0000
  H   H14       1.0  0.8860289550705716  0.1400411678595788  0.9173904232753355  1.0000
  H   H15       1.0  0.6146642918265569  0.6396190761348208  0.41788463094000144  1.0000
  H   H16       1.0  0.1146597039197488  0.860371683095117  0.08212328726941105  1.0000
  C   C1        1.0  0.8182843257308294  0.029510312683001395  0.6535313916297623  1.0000
  C   C2        1.0  0.31829528769289794  0.47048326869408175  0.8464644027653845  1.0000
  C   C3        1.0  0.18139243041964193  0.9703656457809372  0.3466020602185153  1.0000
  C   C4        1.0  0.6814020192487291  0.5296467803843397  0.15340208133228825  1.0000
  C   C5        1.0  0.0222329145246647  0.05671455250146809  0.7094817258878406  1.0000
  C   C6        1.0  0.5222511242282907  0.44328050430575416  0.7905104337391362  1.0000
  C   C7        1.0  0.9776219053649484  0.9427045805983025  0.2905753281328812  1.0000
  C   C8        1.0  0.47764479616372313  0.5572995885857707  0.2094356079546741  1.0000
  C   C9        1.0  0.1757177850695655  0.1517195464739345  0.6855433637108914  1.0000
  C   C10       1.0  0.6757376818430956  0.34828209081543093  0.8144522808163825  1.0000
  C   C11       1.0  0.8244589204264655  0.8476576775010827  0.31467913059046987  1.0000
  C   C12       1.0  0.3244749921816706  0.6523515749703107  0.18532998927908295  1.0000
  C   C13       1.0  0.12372401248600802  0.2161110454080131  0.602717318618964  1.0000
  C   C14       1.0  0.6237342848114836  0.28389520870396007  0.897280425638115  1.0000
  C   C15       1.0  0.8767471863620743  0.7834832093170192  0.39759798673843955  1.0000
  C   C16       1.0  0.3767523360772458  0.7165146231808208  0.10240774934095498  1.0000
  C   C17       1.0  0.9238897831450288  0.18737629648507687  0.5446217784599056  1.0000
  C   C18       1.0  0.4239047601996688  0.3126245936220612  0.9553748289904858  1.0000
  C   C19       1.0  0.07660538841943071  0.8124759708052949  0.455629706902286  1.0000
  C   C20       1.0  0.5766109652777374  0.6875203882296076  0.04436921796590807  1.0000
  C   C21       1.0  0.769018043442827  0.09430306085465649  0.5705404186061925  1.0000
  C   C22       1.0  0.2690262207923126  0.40569513935490403  0.9294552416704672  1.0000
  C   C23       1.0  0.2309429332223942  0.9057781705066288  0.42966491947433366  1.0000
  C   C24       1.0  0.7309518815811629  0.5942276730225655  0.07033475661331315  1.0000
  C   C25       1.0  0.6457045140373054  0.9376897332634401  0.6873369818002428  1.0000
  C   C26       1.0  0.1457130036508616  0.5623016239940526  0.8126551183072832  1.0000
  C   C27       1.0  0.353148688120271  0.0629254180464827  0.3132159211702187  1.0000
  C   C28       1.0  0.8531624624255157  0.4370843852786238  0.18679449328937633  1.0000
  C   C29       1.0  0.07771354646808962  0.9820780319656562  0.79547295387173  1.0000
  C   C30       1.0  0.5777320380303054  0.5179090814172723  0.704512473687792  1.0000
  C   C31       1.0  0.9216139247496713  0.017143658855900395  0.20452468322106648  1.0000
  C   C32       1.0  0.42161941301032624  0.48287136215964205  0.2954924791344736  1.0000
  C   C33       1.0  0.10773458286226402  0.34093488438456626  0.480312995424917  1.0000
  C   C34       1.0  0.6077506768010252  0.15906980956073366  0.019687832844638792  1.0000
  C   C35       1.0  0.8934112108376269  0.6588589214975257  0.5200952069740055  1.0000
  C   C36       1.0  0.39338143185656804  0.8411200240316602  0.9798961880978322  1.0000
  N   N1        1.0  0.23413094765127337  0.3132382987149001  0.5592902925789075  1.0000
  N   N2        1.0  0.7341578228755026  0.18676752573156818  0.9407098453593575  1.0000
  N   N3        1.0  0.766679259270532  0.6863468295502955  0.4411427281439017  1.0000
  N   N4        1.0  0.2666558238115543  0.8136446296950696  0.05885932997689737  1.0000
  N   N5        1.0  0.9201073007898585  0.26724442287267186  0.4676770056390323  1.0000
  N   N6        1.0  0.4201228919534401  0.2327539901136858  0.032321813510669976  1.0000
  N   N7        1.0  0.08081933724850641  0.732698482427885  0.5326387063290949  1.0000
  N   N8        1.0  0.5807934812914725  0.7672848146324115  0.9673575061755029  1.0000
  O   O1        1.0  0.5066271458843445  0.883133521331075  0.6228106898473127  1.0000
  O   O2        1.0  0.0066227694948324  0.6168523141348742  0.8771816415970404  1.0000
  O   O3        1.0  0.4909196692530244  0.11790199237415779  0.3781036730624975  1.0000
  O   O4        1.0  0.9909411766090273  0.38211331546405347  0.12190429418125598  1.0000
  O   O5        1.0  0.6388374933425424  0.9190898262064379  0.7796408207134105  1.0000
  O   O6        1.0  0.1388604108855134  0.5809005341041314  0.7203527135793235  1.0000
  O   O7        1.0  0.360628666642647  0.0818383449618949  0.2209733112181027  1.0000
  O   O8        1.0  0.8606262985139708  0.41817244720377283  0.2790334446324393  1.0000
  O   O9        1.0  0.09186577508653218  0.8551472980333795  0.7777138682471827  1.0000
  O   O10       1.0  0.5918836818088664  0.6448467094835095  0.7222772225632851  1.0000
  O   O11       1.0  0.9064857586518185  0.14386544159793146  0.22225378662994189  1.0000
  O   O12       1.0  0.4065038187987469  0.3561436448474921  0.27775631311608606  1.0000
  O   O13       1.0  0.10998288211035148  0.04133639633079159  0.8798797928863917  1.0000
  O   O14       1.0  0.6099968082900277  0.4586591345719881  0.6201230849453195  1.0000
  O   O15       1.0  0.8898804979540316  0.9577529557780479  0.12006509595482125  1.0000
  O   O16       1.0  0.3898597329157383  0.542254618073862  0.3799339507075742  1.0000
