data_image0
_chemical_formula_structural       Ag4H32C40S4N16O12F12
_chemical_formula_sum              "Ag4 H32 C40 S4 N16 O12 F12"
_cell_length_a       9.078591528914414
_cell_length_b       11.055269947
_cell_length_c       14.1599
_cell_angle_alpha    90.0
_cell_angle_beta     104.71262735657635
_cell_angle_gamma    90.0

_space_group_name_H-M_alt    "P 1"
_space_group_IT_number       1

loop_
  _space_group_symop_operation_xyz
  'x, y, z'

loop_
  _atom_site_type_symbol
  _atom_site_label
  _atom_site_symmetry_multiplicity
  _atom_site_fract_x
  _atom_site_fract_y
  _atom_site_fract_z
  _atom_site_occupancy
  Ag  Ag1       1.0  0.4942841479687062  0.2000113982381819  0.20729884815369096  1.0000
  Ag  Ag2       1.0  0.0057158014101759014  0.7000118529082187  0.29270114360351573  1.0000
  Ag  Ag3       1.0  0.5057168896217803  0.7999886065559139  0.7927013208003543  1.0000
  Ag  Ag4       1.0  0.994282958514873  0.2999881518858771  0.7072986544712734  1.0000
  H   H1        1.0  0.5063102214677074  0.4513358808894594  0.10945836323971748  1.0000
  H   H2        1.0  0.993689626668953  0.9513354310135113  0.39054231825158325  1.0000
  H   H3        1.0  0.49368967729006397  0.5486641239046364  0.8905416202746963  1.0000
  H   H4        1.0  0.0063102720888182015  0.0486645737805773  0.6094576652628303  1.0000
  H   H5        1.0  0.3560423831988331  0.546177527002726  0.0415452738325541  1.0000
  H   H6        1.0  0.1439564273473337  0.0461770723326893  0.4584545324850282  1.0000
  H   H7        1.0  0.6439552378935005  0.4538224777913697  0.9584543388026103  1.0000
  H   H8        1.0  0.8560446102431598  0.9538229324614066  0.5415449302493442  1.0000
  H   H9        1.0  0.19691670405163114  0.4658466075174914  0.8916588990410829  1.0000
  H   H10       1.0  0.303083245327251  0.9658461576415435  0.6083410927161238  1.0000
  H   H11       1.0  0.8030831947061402  0.5341543018225892  0.1083403782536578  1.0000
  H   H12       1.0  0.6969166534305202  0.0341538471525453  0.39165959701796976  1.0000
  H   H13       1.0  0.14988746814115933  0.602270232379702  0.11318339361810809  1.0000
  H   H14       1.0  0.35011248123773  0.1022697777096653  0.3868165981390987  1.0000
  H   H15       1.0  0.8501112917838967  0.3977297724143938  0.8868164044566809  1.0000
  H   H16       1.0  0.6498885563527566  0.8977293225384528  0.6131835708149467  1.0000
  H   H17       1.0  0.120769793214798  0.4408132974918857  0.3741113222703092  1.0000
  H   H18       1.0  0.3792301561640912  0.9408137521619224  0.12588866948689767  1.0000
  H   H19       1.0  0.8792301055429732  0.5591858027562253  0.6258886612441046  1.0000
  H   H20       1.0  0.6207708814263955  0.0591862526321734  0.8741114994671475  1.0000
  H   H21       1.0  0.2095099162440448  0.097869161511845  0.8310819295252043  1.0000
  H   H22       1.0  0.2904900331348372  0.597868711635904  0.6689180622320094  1.0000
  H   H23       1.0  0.7904899825137264  0.9021308432822508  0.16891805398921628  1.0000
  H   H24       1.0  0.7095110044556493  0.4021321977041694  0.3310821067220359  1.0000
  H   H25       1.0  0.378198373721844  0.062496890922823  0.9979796460632144  1.0000
  H   H26       1.0  0.12180157565703811  0.5624973455928597  0.5020203456939994  1.0000
  H   H27       1.0  0.6218015250359272  0.9375031138712727  0.0020196312315264174  1.0000
  H   H28       1.0  0.8781994619334483  0.4375026592012361  0.4979798232600458  1.0000
  H   H29       1.0  0.3406647250116209  0.3087134024191016  0.3698670651953293  1.0000
  H   H30       1.0  0.1593352243672612  0.8087138570891383  0.1301322203422046  1.0000
  H   H31       1.0  0.659334034913428  0.6912866023749942  0.630132026659787  1.0000
  H   H32       1.0  0.8406646743905101  0.1912861477049574  0.8698677631722089  1.0000
  C   C1        1.0  0.3301692426852227  0.3558872844229057  0.010325018033981295  1.0000
  C   C2        1.0  0.16983070669365932  0.8558877390929425  0.4896749737232326  1.0000
  C   C3        1.0  0.6698306560725487  0.64411272037119  0.9896749654804395  1.0000
  C   C4        1.0  0.8301714697295426  0.144113170247131  0.5103253806704444  1.0000
  C   C5        1.0  0.3821410125905517  0.45970021757624113  0.0802302652370486  1.0000
  C   C6        1.0  0.11785893678833051  0.9596997677003003  0.4197697265201653  1.0000
  C   C7        1.0  0.6178588861672196  0.5402997872178474  0.9197697182773723  1.0000
  C   C8        1.0  0.8821409619694407  0.0403002370937955  0.5802302569942555  1.0000
  C   C9        1.0  0.2354320265645171  0.3748917954847997  0.916535824663299  1.0000
  C   C10       1.0  0.264567922814365  0.8748922501548363  0.5834641670939149  1.0000
  C   C11       1.0  0.7645678721932542  0.625108209309289  0.0834634526314417  1.0000
  C   C12       1.0  0.7354331147761215  0.1251077546392523  0.4165367080798105  1.0000
  C   C13       1.0  0.19073512005991236  0.5350172386885106  0.17021080419509355  1.0000
  C   C14       1.0  0.3092648293189769  0.0350167840184739  0.32978848134243316  1.0000
  C   C15       1.0  0.8092670563632964  0.4649809570136227  0.8297895501985763  1.0000
  C   C16       1.0  0.6907327917733639  0.9649814116836595  0.6702104250730441  1.0000
  C   C17       1.0  0.17615008944422075  0.4481337881165359  0.31459185878654233  1.0000
  C   C18       1.0  0.3238498599346614  0.9481342427865725  0.1854081329706645  1.0000
  C   C19       1.0  0.8238486704808281  0.5518653121315751  0.6854086455079268  1.0000
  C   C20       1.0  0.6761511776558251  0.0518657620075231  0.8145920359833807  1.0000
  C   C21       1.0  0.9665990739801061  0.1960133050019337  0.1122972256072359  1.0000
  C   C22       1.0  0.5334007741565472  0.6960137596719704  0.3877034558840648  1.0000
  C   C23       1.0  0.0333996859449428  0.8039848907001996  0.8877032786872261  1.0000
  C   C24       1.0  0.46659912460122405  0.3039853405761406  0.612297233850029  1.0000
  C   C25       1.0  0.3104309940219068  0.4574551344512727  0.16518342240526349  1.0000
  C   C26       1.0  0.18956781652426002  0.9574546845753317  0.3348156776926388  1.0000
  C   C27       1.0  0.6895689047358644  0.5425466794347855  0.8348165611091501  1.0000
  C   C28       1.0  0.8104309434007959  0.0425471293107265  0.6651834141624703  1.0000
  C   C29       1.0  0.2426340046713094  0.172335909401923  0.8824681830076953  1.0000
  C   C30       1.0  0.2573670835402951  0.6723363640719597  0.6175312879694701  1.0000
  C   C31       1.0  0.7573658940864618  0.8276640953921728  0.11753180050672539  1.0000
  C   C32       1.0  0.7426339540501914  0.3276636407221361  0.3824681747649024  1.0000
  C   C33       1.0  0.3363178005281284  0.1530310890743181  0.9755907847285454  1.0000
  C   C34       1.0  0.163683287683476  0.6530324482903396  0.5244086862486128  1.0000
  C   C35       1.0  0.663682098229643  0.8469689157197776  0.02440849256619521  1.0000
  C   C36       1.0  0.8363177499070178  0.3469684610497339  0.47559148270543256  1.0000
  C   C37       1.0  0.2977261762231578  0.3732419036153658  0.311394659885856  1.0000
  C   C38       1.0  0.2022726343230161  0.8732423582854025  0.18860514643172616  1.0000
  C   C39       1.0  0.7022725837018982  0.6267571966327523  0.6886051381889332  1.0000
  C   C40       1.0  0.7977284032674774  0.1267567419627085  0.8113943163026461  1.0000
  S   S1        1.0  0.7590263121888796  0.22878591044141666  0.0866755392350171  1.0000
  S   S2        1.0  0.7409746747804888  0.7287863651114534  0.4133246214762352  1.0000
  S   S3        1.0  0.2409735865688916  0.7712149988986639  0.9133251504990767  1.0000
  S   S4        1.0  0.2590263628099976  0.27121454422862  0.5866748412581302  1.0000
  N   N1        1.0  0.12432864545763071  0.5313076956202138  0.24480642927080246  1.0000
  N   N2        1.0  0.3756713039212514  0.0313072409501771  0.2551935624864043  1.0000
  N   N3        1.0  0.8756701144674184  0.4686932137198596  0.7551926625843066  1.0000
  N   N4        1.0  0.624329733669235  0.9686927638439187  0.744807312687321  1.0000
  N   N5        1.0  0.3788805345197517  0.2436864963872765  0.03975344800755918  1.0000
  N   N6        1.0  0.12111941485913041  0.7436851419653507  0.4602465437496547  1.0000
  N   N7        1.0  0.6211193642380195  0.756314412952797  0.9602458292871814  1.0000
  N   N8        1.0  0.8788816227313561  0.2563148628287379  0.5397536252043905  1.0000
  N   N9        1.0  0.19112687851480106  0.2835751650596947  0.8532229213335965  1.0000
  N   N10       1.0  0.3088742096968034  0.7835756197297314  0.646777255863242  1.0000
  N   N11       1.0  0.8088718814102478  0.7164248397344011  0.14677687674119255  1.0000
  N   N12       1.0  0.6911279667264056  0.21642438506436432  0.3532230985304352  1.0000
  N   N13       1.0  0.3650277733415521  0.3778885563200234  0.23748151731252418  1.0000
  N   N14       1.0  0.13497103720461476  0.8778890109900601  0.2625175827853781  1.0000
  N   N15       1.0  0.6349732642489343  0.6221096393821028  0.7625186516415212  1.0000
  N   N16       1.0  0.8650277227204413  0.1221100892580509  0.7374815090697309  1.0000
  O   O1        1.0  0.7160171557719153  0.2527699471289964  0.9818099531821075  1.0000
  O   O2        1.0  0.7839861088628908  0.752770401799033  0.5181898721887278  1.0000
  O   O3        1.0  0.2839827429858559  0.7472309622110771  0.018189324112633205  1.0000
  O   O4        1.0  0.2160183452257485  0.2472305075410404  0.48181085308420524  1.0000
  O   O5        1.0  0.7525850743375244  0.3338869170717658  0.14793504233080768  1.0000
  O   O6        1.0  0.7474147737991288  0.8338864671958249  0.352065639160493  1.0000
  O   O7        1.0  0.2474148244202468  0.6661121831763452  0.8520649411836059  1.0000
  O   O8        1.0  0.2525851249586424  0.1661126330522862  0.6479350505736007  1.0000
  O   O9        1.0  0.6987376469461353  0.11611837667956589  0.1162952699216575  1.0000
  O   O10       1.0  0.801262201190525  0.6161179268036179  0.38370470534996304  1.0000
  O   O11       1.0  0.3012611129789207  0.88388162811453  0.8837038219334514  1.0000
  O   O12       1.0  0.1987376975672461  0.3838820779904708  0.6162959843841236  1.0000
  F   F1        1.0  0.0415207020549175  0.2893923002638346  0.0816244664671402  1.0000
  F   F2        1.0  0.4584781084912493  0.7893918503878937  0.41837604607011497  1.0000
  F   F3        1.0  0.9584780578701314  0.710604990892314  0.9183753316076488  1.0000
  F   F4        1.0  0.5415206514338068  0.2106063453142397  0.5816244582243469  1.0000
  F   F5        1.0  0.9940768297929736  0.09465169145724421  0.06510448141961687  1.0000
  F   F6        1.0  0.5059241571764019  0.5946512415813032  0.4348963855113154  1.0000
  F   F7        1.0  0.0059219301320823  0.9053465042448892  0.9348967290945253  1.0000
  F   F8        1.0  0.4940780192468068  0.4053478586668078  0.5651039688823616  1.0000
  F   F9        1.0  0.0289662101749073  0.1800634457180479  0.20929719777684133  1.0000
  F   F10       1.0  0.47103373920398184  0.6800648049340694  0.2907035002000455  1.0000
  F   F11       1.0  0.9710336885828639  0.8199365590760478  0.7907041981769325  1.0000
  F   F12       1.0  0.5289661595537896  0.3199351998600264  0.7092964833143753  1.0000
