data_image0
_chemical_formula_structural       Cd2H14C22N4O10
_chemical_formula_sum              "Cd2 H14 C22 N4 O10"
_cell_length_a       8.247591903026358
_cell_length_b       8.38193641719854
_cell_length_c       8.769657272854847
_cell_angle_alpha    107.29297970376399
_cell_angle_beta     107.52219609450368
_cell_angle_gamma    103.06037205639089

_space_group_name_H-M_alt    "P 1"
_space_group_IT_number       1

loop_
  _space_group_symop_operation_xyz
  'x, y, z'

loop_
  _atom_site_type_symbol
  _atom_site_label
  _atom_site_symmetry_multiplicity
  _atom_site_fract_x
  _atom_site_fract_y
  _atom_site_fract_z
  _atom_site_occupancy
  Cd  Cd1       1.0  0.08413130343229368  0.30667021810066336  0.10032342722834638  1.0000
  Cd  Cd2       1.0  0.915868458104647  0.6933308789690144  0.8996779101184484  1.0000
  H   H1        1.0  0.6490643582919162  0.27688782553575214  0.8737334219346804  1.0000
  H   H2        1.0  0.3509362105243667  0.7231119436751786  0.1262677677027  1.0000
  H   H3        1.0  0.76638033168674  0.41672237951437563  0.5472047835141325  1.0000
  H   H4        1.0  0.23361885410733407  0.5832734018230781  0.45279145363922163  1.0000
  H   H5        1.0  0.35382295073097225  0.12666805582363588  0.043964214329527344  1.0000
  H   H6        1.0  0.6461730059457337  0.8733330369488215  0.956032613661449  1.0000
  H   H7        1.0  0.6995896182235626  0.17224195633023956  0.2627731923736221  1.0000
  H   H8        1.0  0.30040702635462674  0.8277538194059274  0.7372211767387851  1.0000
  H   H9        1.0  0.9664956597177792  0.2636339928789582  0.45101448964004476  1.0000
  H   H10       1.0  0.033505845040501615  0.7363684431236879  0.5489865870645687  1.0000
  H   H11       1.0  0.34661920038093536  0.9886490976675971  0.439210698039389  1.0000
  H   H12       1.0  0.6533818294427505  0.011352000834492103  0.5607921424260027  1.0000
  H   H13       1.0  0.41890670836819777  0.3861749515004719  0.9225919192654857  1.0000
  H   H14       1.0  0.5810930485263484  0.6138261428327426  0.07741055627757013  1.0000
  C   C1        1.0  0.5027092492021126  0.43078835467207466  0.42906520853976826  1.0000
  C   C2        1.0  0.4972895949624245  0.5692100865517491  0.5709316889547367  1.0000
  C   C3        1.0  0.43705763908565126  0.22107629189317632  0.17664077110597276  1.0000
  C   C4        1.0  0.5629391248703967  0.7789234730205267  0.8233559091755962  1.0000
  C   C5        1.0  0.606117854194906  0.2399553998063055  0.28479082430288116  1.0000
  C   C6        1.0  0.393881331599168  0.7600403815311481  0.7152054128504728  1.0000
  C   C7        1.0  0.18456551283735934  0.3374055954117098  0.6978947955444426  1.0000
  C   C8        1.0  0.8154355216287216  0.6625955058268432  0.3021069067246884  1.0000
  C   C9        1.0  0.08755466818576  0.24176196027706712  0.5188981650042876  1.0000
  C   C10       1.0  0.9124463709227231  0.7582391436979494  0.4811023990685826  1.0000
  C   C11       1.0  0.1448204859411462  0.11385656016047113  0.4286235719291795  1.0000
  C   C12       1.0  0.8551805485249346  0.8861445410780818  0.5713781303399512  1.0000
  C   C13       1.0  0.3029965054818931  0.0869948628764234  0.5132697110608007  1.0000
  C   C14       1.0  0.697004058691995  0.9130049035980364  0.4867326167728477  1.0000
  C   C15       1.0  0.4079467976399087  0.19306094933478593  0.68974066500072  1.0000
  C   C16       1.0  0.592055505112917  0.8069401533361785  0.3102625403870149  1.0000
  C   C17       1.0  0.34439773555407527  0.3130057241441478  0.7830349486190542  1.0000
  C   C18       1.0  0.6556028332622076  0.6869940450667755  0.2169662410183334  1.0000
  C   C19       1.0  0.11616143508232575  0.46146054589505786  0.7998149187019906  1.0000
  C   C20       1.0  0.8838378654472123  0.5385392218834607  0.20018476781678612  1.0000
  C   C21       1.0  0.0367312407514717  0.004943721184901101  0.23866970047403407  1.0000
  C   C22       1.0  0.9632697937146087  0.9950573800536517  0.7613320017950967  1.0000
  N   N1        1.0  0.37302039173202667  0.33983679101458353  0.266054283664502  1.0000
  N   N2        1.0  0.6269801910114479  0.6601629864057443  0.7339434913840888  1.0000
  N   N3        1.0  0.6445448579244938  0.37064191416408926  0.44182381034694623  1.0000
  N   N4        1.0  0.35545352059023827  0.6293551950321118  0.5581725745158082  1.0000
  O   O1        1.0  0.18778770408496828  0.5266882137707256  0.9656924075249051  1.0000
  O   O2        1.0  0.8122125231017704  0.4733142153265818  0.03430944245363317  1.0000
  O   O3        1.0  0.567530051179645  0.17241519005327186  0.7640670521877267  1.0000
  O   O4        1.0  0.43247051763663796  0.8275845791576589  0.23593413744966094  1.0000
  O   O5        1.0  0.059218228000474916  0.856945833462575  0.17692329471907428  1.0000
  O   O6        1.0  0.940782340815808  0.14305393574835534  0.8230778949183131  1.0000
  O   O7        1.0  0.9298361475895688  0.06270724057142732  0.14936718237110805  1.0000
  O   O8        1.0  0.07016442122671405  0.9372925286395031  0.8506340072662724  1.0000
  O   O9        1.0  0.9839245327889827  0.4999032698037027  0.7150752259406801  1.0000
  O   O10       1.0  0.0160760360273002  0.5000964994072277  0.2849259636967004  1.0000
