data_image0
_chemical_formula_structural       Ca2B4H32C24O12
_chemical_formula_sum              "Ca2 B4 H32 C24 O12"
_cell_length_a       5.569591016269698
_cell_length_b       7.969295061697446
_cell_length_c       15.543969180215711
_cell_angle_alpha    99.9084395868641
_cell_angle_beta     92.02166782678455
_cell_angle_gamma    90.82598806084123

_space_group_name_H-M_alt    "P 1"
_space_group_IT_number       1

loop_
  _space_group_symop_operation_xyz
  'x, y, z'

loop_
  _atom_site_type_symbol
  _atom_site_label
  _atom_site_symmetry_multiplicity
  _atom_site_fract_x
  _atom_site_fract_y
  _atom_site_fract_z
  _atom_site_occupancy
  Ca  Ca1       1.0  0.984514008328027  0.7545681002524418  0.0002560500299537926  1.0000
  Ca  Ca2       1.0  0.015479775147795694  0.24543039698137653  0.9997448142901038  1.0000
  B   B1        1.0  0.8582747893614949  0.05181508655270052  0.14496441662218024  1.0000
  B   B2        1.0  0.1417155611201508  0.9481872543105325  0.8550373879903078  1.0000
  B   B3        1.0  0.7247432083388075  0.4539109282368515  0.8844654860260875  1.0000
  B   B4        1.0  0.27525426433795275  0.5460900713488074  0.11553631800742892  1.0000
  H   H1        1.0  0.5871729114090058  0.013710124848529405  0.2910087461040547  1.0000
  H   H2        1.0  0.4128353726638068  0.9862920358113954  0.7089939970639494  1.0000
  H   H3        1.0  0.6641882940319663  0.12699658272562436  0.4464489765925777  1.0000
  H   H4        1.0  0.3358378501533679  0.8730028735281365  0.553553182844567  1.0000
  H   H5        1.0  0.024597090685595905  0.3108073197668376  0.49642228826211726  1.0000
  H   H6        1.0  0.975429075732734  0.6891871708540975  0.5035723332788822  1.0000
  H   H7        1.0  0.315228303597884  0.37455091255206696  0.38600699034427793  1.0000
  H   H8        1.0  0.6847821388016867  0.6254514086405009  0.6139861539387825  1.0000
  H   H9        1.0  0.24056469893758256  0.2599198639874132  0.23039412738589965  1.0000
  H   H10       1.0  0.759429849284409  0.7400877162751203  0.7695985849662251  1.0000
  H   H11       1.0  0.7391472699657484  0.8293330944669464  0.18255146791390334  1.0000
  H   H12       1.0  0.2608447670425633  0.17066793198289787  0.8174515309306473  1.0000
  H   H13       1.0  0.23028418594535793  0.017874230931546695  0.1327227750478599  1.0000
  H   H14       1.0  0.7697043561908785  0.9821268764928206  0.8672775968528798  1.0000
  H   H15       1.0  0.5845758726858392  0.21856267802431262  0.11189113211373321  1.0000
  H   H16       1.0  0.41541260854103274  0.7814371554739169  0.8881091205471706  1.0000
  H   H17       1.0  0.3400240430114395  0.559642403838879  0.7863315592381143  1.0000
  H   H18       1.0  0.6599770821269288  0.44035983599719236  0.2136704233656772  1.0000
  H   H19       1.0  0.1873343244899743  0.4470483209090972  0.6370209589037188  1.0000
  H   H20       1.0  0.8126663742828131  0.5529450014440653  0.3629801890211866  1.0000
  H   H21       1.0  0.41105428092777174  0.2223195748344367  0.5420480658959194  1.0000
  H   H22       1.0  0.588946223516153  0.7776711641923554  0.457954769259331  1.0000
  H   H23       1.0  0.7879493625223049  0.1075514637262742  0.601572661014494  1.0000
  H   H24       1.0  0.21204956561292937  0.8924443760182046  0.39843126333825307  1.0000
  H   H25       1.0  0.9275508701572903  0.2104370477640316  0.7525313804171176  1.0000
  H   H26       1.0  0.0724537247145918  0.7895626105440527  0.24747042303742725  1.0000
  H   H27       1.0  0.0861024317129448  0.4663039949095662  0.8495057079159026  1.0000
  H   H28       1.0  0.9139004292607071  0.533699442891269  0.15049963310966777  1.0000
  H   H29       1.0  0.5158241334784607  0.6193117914453127  0.9680093471407007  1.0000
  H   H30       1.0  0.48417139743339294  0.3806866653012477  0.03199283065126221  1.0000
  H   H31       1.0  0.5286585350530189  0.24094035597197216  0.9107822276712839  1.0000
  H   H32       1.0  0.4713353944115823  0.7590607009388037  0.08921823322511101  1.0000
  C   C1        1.0  0.7493030508141415  0.09164105483710469  0.31057125219864185  1.0000
  C   C2        1.0  0.250707247533704  0.9083636841360274  0.6894291915008851  1.0000
  C   C3        1.0  0.7913378323359552  0.1562248661965171  0.39920680708485895  1.0000
  C   C4        1.0  0.20867729355517642  0.8437695953798894  0.6007946974016249  1.0000
  C   C5        1.0  0.9943050494579211  0.2586309092829139  0.4271817254181158  1.0000
  C   C6        1.0  0.005708730224185405  0.7413700097102024  0.5728164941822841  1.0000
  C   C7        1.0  0.15573712797770156  0.2946727627927501  0.3655897449060391  1.0000
  C   C8        1.0  0.8442751836766434  0.7053320657648214  0.6344049513286053  1.0000
  C   C9        1.0  0.1122266818327802  0.2284113735839597  0.2770534336860493  1.0000
  C   C10       1.0  0.8877713486920055  0.7715948754273184  0.7229405025633611  1.0000
  C   C11       1.0  0.9088446862652972  0.12510977988856103  0.24724345708593634  1.0000
  C   C12       1.0  0.09115497084531649  0.8748963695119585  0.7527550021520926  1.0000
  C   C13       1.0  0.43473572031729196  0.4552913700461969  0.7475038902903605  1.0000
  C   C14       1.0  0.5652670787784686  0.5447083050997535  0.25249788349896823  1.0000
  C   C15       1.0  0.3502819640532806  0.39462071703719903  0.6618768249408973  1.0000
  C   C16       1.0  0.649717158410823  0.6053777060336357  0.3381254121814977  1.0000
  C   C17       1.0  0.47711944104359116  0.2696694146765281  0.6087749209493012  1.0000
  C   C18       1.0  0.522877666176953  0.7303239413523529  0.39122616764517204  1.0000
  C   C19       1.0  0.6866698552558504  0.2057528906807562  0.6419232042630583  1.0000
  C   C20       1.0  0.313340053465737  0.794244192910888  0.3580771659007667  1.0000
  C   C21       1.0  0.7659107042603213  0.26569666359348093  0.7281868135456692  1.0000
  C   C22       1.0  0.23409577146708926  0.7343042636275784  0.2718144969105937  1.0000
  C   C23       1.0  0.6431765488830408  0.3919106377486514  0.7833206079875908  1.0000
  C   C24       1.0  0.35682452694671707  0.6080890897092532  0.21667921042648436  1.0000
  O   O1        1.0  0.7236317873399402  0.8810364361603646  0.13022676678885156  1.0000
  O   O2        1.0  0.2763603347477854  0.11896587604030631  0.8697757093922007  1.0000
  O   O3        1.0  0.0893273919034527  0.023413735059520505  0.09482925815852641  1.0000
  O   O4        1.0  0.9106628725302527  0.976584831324118  0.9051696211210613  1.0000
  O   O5        1.0  0.7344793616996697  0.16327667367738033  0.09323203693611501  1.0000
  O   O6        1.0  0.2655036219808551  0.8367194240301432  0.9067658432995813  1.0000
  O   O7        1.0  0.9959956229816171  0.46657871684590896  0.9019918767335469  1.0000
  O   O8        1.0  0.004000042318267601  0.5334235380296377  0.09801194258461982  1.0000
  O   O9        1.0  0.6349013520664002  0.6250689792961879  0.9221478007772606  1.0000
  O   O10       1.0  0.3650889616759158  0.3749320994656172  0.0778532426920435  1.0000
  O   O11       1.0  0.6458582607217096  0.32916370262576317  0.9401045657772046  1.0000
  O   O12       1.0  0.35413563200356896  0.670836092183585  0.05989513397600633  1.0000
