data_image0
_chemical_formula_structural       Zn2H16C10N4O14
_chemical_formula_sum              "Zn2 H16 C10 N4 O14"
_cell_length_a       7.115835955749311
_cell_length_b       7.059205447037428
_cell_length_c       11.572655985229904
_cell_angle_alpha    109.66088294026427
_cell_angle_beta     91.3908568009201
_cell_angle_gamma    112.98352362473257

_space_group_name_H-M_alt    "P 1"
_space_group_IT_number       1

loop_
  _space_group_symop_operation_xyz
  'x, y, z'

loop_
  _atom_site_type_symbol
  _atom_site_label
  _atom_site_symmetry_multiplicity
  _atom_site_fract_x
  _atom_site_fract_y
  _atom_site_fract_z
  _atom_site_occupancy
  Zn  Zn1       1.0  0.9999974299474774  0.9999994017763923  7.942120561157426e-07  1.0000
  Zn  Zn2       1.0  0.5000024149599157  0.4999867687194951  0.4999947441502075  1.0000
  H   H1        1.0  0.2703454780606621  0.7383751985979361  0.5647229844845045  1.0000
  H   H2        1.0  0.7296630809647553  0.26161139722812987  0.43526710372444927  1.0000
  H   H3        1.0  0.37689818632762956  0.7403952814448118  0.6907596992527021  1.0000
  H   H4        1.0  0.623100799466549  0.2595883104281782  0.3092323826794613  1.0000
  H   H5        1.0  0.22610488138472115  0.17862088473408025  0.3099569488403518  1.0000
  H   H6        1.0  0.7738976990044011  0.8213760074237658  0.6900236538132847  1.0000
  H   H7        1.0  0.17756921558126493  0.3834615181906146  0.3554111482121416  1.0000
  H   H8        1.0  0.8224307475317049  0.6165312732692598  0.6445903554321009  1.0000
  H   H9        1.0  0.1661434838787344  0.7146565892699998  0.8860673185898451  1.0000
  H   H10       1.0  0.8338556193254832  0.2853481124804774  0.11393887595269094  1.0000
  H   H11       1.0  0.9241255246556436  0.5846958608939874  0.8376128306814582  1.0000
  H   H12       1.0  0.0758714046032196  0.41530698248077164  0.16239128783971082  1.0000
  H   H13       1.0  0.16950250954984372  0.1657681908213888  0.7460882847324656  1.0000
  H   H14       1.0  0.8304903541058837  0.8342314413448978  0.2539161019290504  1.0000
  H   H15       1.0  0.7594300660477701  0.3549765893016855  0.945573370850504  1.0000
  H   H16       1.0  0.24056830770380347  0.6450477056973869  0.05443367575318099  1.0000
  C   C1        1.0  0.5689633416031797  0.3445538536878204  0.7028042502517666  1.0000
  C   C2        1.0  0.43103559222850424  0.6554505447368798  0.29719929218092045  1.0000
  C   C3        1.0  0.4919644055761125  0.27666952255890465  0.8071515743344266  1.0000
  C   C4        1.0  0.5080315877481497  0.7233416116849514  0.1928539989466956  1.0000
  C   C5        1.0  0.5937735524326087  0.2943547146090567  0.9170497099356825  1.0000
  C   C6        1.0  0.40622440857529796  0.705661391889059  0.08295675532207275  1.0000
  C   C7        1.0  0.4350130448539034  0.2184754467476466  0.9824163238875275  1.0000
  C   C8        1.0  0.5649857587419261  0.7815356849771007  0.01758927063877283  1.0000
  C   C9        1.0  0.44012386333761094  0.1954845347818264  0.10533230088302055  1.0000
  C   C10       1.0  0.5598750140365568  0.8045197625342839  0.8946703575130573  1.0000
  N   N1        1.0  0.2478119488909059  0.15742474384408214  0.9163126281470116  1.0000
  N   N2        1.0  0.7521848870212793  0.8425814156264055  0.08369207440265579  1.0000
  N   N3        1.0  0.2853001086990119  0.19406909995012006  0.8118665731219753  1.0000
  N   N4        1.0  0.7146967272131732  0.8059370595203674  0.18813812942769212  1.0000
  O   O1        1.0  0.7633606693846534  0.41391582854502934  0.7020287706977941  1.0000
  O   O2        1.0  0.23663980206617916  0.5860922891502157  0.2979789025324423  1.0000
  O   O3        1.0  0.4325015206069054  0.33521552281443695  0.6256627108989152  1.0000
  O   O4        1.0  0.5674975043239529  0.6647751056843847  0.3743340752367035  1.0000
  O   O5        1.0  0.6156240099639305  0.25908839940603917  0.16978904675102777  1.0000
  O   O6        1.0  0.3843762160885121  0.7409157955419162  0.8302127382310193  1.0000
  O   O7        1.0  0.2657769747387705  0.11322312803679323  0.13876420539681086  1.0000
  O   O8        1.0  0.7342228385699984  0.886772878410213  0.8612369982393137  1.0000
  O   O9        1.0  0.3923794166734993  0.7373374989230682  0.6036545875673982  1.0000
  O   O10       1.0  0.6076160267084703  0.26262640237140294  0.3963357263992223  1.0000
  O   O11       1.0  0.19440079911617403  0.2716564009131944  0.38490372462008793  1.0000
  O   O12       1.0  0.8056063352051197  0.7283266778595064  0.6150840008645492  1.0000
  O   O13       1.0  0.030148525568286347  0.6965277173587411  0.9136397830217081  1.0000
  O   O14       1.0  0.9698492093893236  0.30347356844696805  0.08636493283312066  1.0000
