data_image0
_chemical_formula_structural       Al2H11C24ClO10F2
_chemical_formula_sum              "Al2 H11 C24 Cl1 O10 F2"
_cell_length_a       6.677392261113566
_cell_length_b       11.136219394355852
_cell_length_c       17.794915965797237
_cell_angle_alpha    84.61139296542203
_cell_angle_beta     79.0170853271639
_cell_angle_gamma    72.61003731808408

_space_group_name_H-M_alt    "P 1"
_space_group_IT_number       1

loop_
  _space_group_symop_operation_xyz
  'x, y, z'

loop_
  _atom_site_type_symbol
  _atom_site_label
  _atom_site_symmetry_multiplicity
  _atom_site_fract_x
  _atom_site_fract_y
  _atom_site_fract_z
  _atom_site_occupancy
  Al  Al1       1.0  0.5041064351626614  0.4925766267717648  0.49800094212261564  1.0000
  Al  Al2       1.0  0.006458629171803073  0.4882334185196765  0.4972922820686278  1.0000
  H   H1        1.0  0.19627717349661108  0.6396300725700427  0.4558502091068987  1.0000
  H   H2        1.0  0.751778838510624  0.4051843121040831  0.5861406050124671  1.0000
  H   H3        1.0  0.16908535088719387  0.11035047645866307  0.4558887271545515  1.0000
  H   H4        1.0  0.7300805653426679  0.11122520828886447  0.5406697698604147  1.0000
  H   H5        1.0  0.2921592289615377  0.8742212609328064  0.4590152778867988  1.0000
  H   H6        1.0  0.5416573377181493  0.5201338592475152  0.2693088352740745  1.0000
  H   H7        1.0  0.6012181848952808  0.5345005341876571  0.12554050414825466  1.0000
  H   H8        1.0  0.21591612744650493  0.43817112083181076  0.2647414251720334  1.0000
  H   H9        1.0  0.7858132151116735  0.5565030825713392  0.730154554961068  1.0000
  H   H10       1.0  0.4551861743256111  0.4893931190578014  0.7297367085996384  1.0000
  H   H11       1.0  0.38525282291447377  0.49505895630637287  0.8728418635465403  1.0000
  C   C1        1.0  0.835512821519387  0.4790519622043589  0.36057072943545165  1.0000
  C   C2        1.0  0.6384419534859161  0.7190858639422258  0.5003622265192575  1.0000
  C   C3        1.0  0.17260782885430354  0.5055985351774835  0.6367215022166661  1.0000
  C   C4        1.0  0.37575933483775265  0.2646322233146207  0.4953354904839101  1.0000
  C   C5        1.0  0.5755915173160131  0.859489817154838  0.5029396902861618  1.0000
  C   C6        1.0  0.4450493970441158  0.12414448604854299  0.4967009658863119  1.0000
  C   C7        1.0  0.6971161429340924  0.9275260304223775  0.5275861526005982  1.0000
  C   C8        1.0  0.3182851925172585  0.05826786521812008  0.4747201719404686  1.0000
  C   C9        1.0  0.6344748856134288  0.05883629378424619  0.5226864749020449  1.0000
  C   C10       1.0  0.38607326681635357  0.9275921433533436  0.4769695976261302  1.0000
  C   C11       1.0  0.8737961520391408  0.4794755512034071  0.2752998806085997  1.0000
  C   C12       1.0  0.7012326292817689  0.5052338508100646  0.236016626836232  1.0000
  C   C13       1.0  0.7340841644157835  0.5137809193213839  0.1565695112310834  1.0000
  C   C14       1.0  0.9414881910428007  0.4962417620402276  0.11387222475564578  1.0000
  C   C15       1.0  0.11143854453948876  0.4669686148515097  0.15527842259381688  1.0000
  C   C16       1.0  0.08173265654097146  0.4589030877129049  0.2343820805758483  1.0000
  C   C17       1.0  0.977713088707688  0.5087179619190607  0.03323867007456729  1.0000
  C   C18       1.0  0.0066987154273477345  0.5205819098627769  0.9634757932796134  1.0000
  C   C19       1.0  0.046942285462570565  0.526535610394198  0.8827342874500488  1.0000
  C   C20       1.0  0.8814384821856435  0.5467588778754757  0.8400622092014273  1.0000
  C   C21       1.0  0.9172416772803516  0.5425800330059615  0.7611187833491968  1.0000
  C   C22       1.0  0.12686587458455284  0.5193394960765543  0.7213521836503459  1.0000
  C   C23       1.0  0.29422278347647063  0.5049834546769673  0.761807127194487  1.0000
  C   C24       1.0  0.2557144625208919  0.5079503469246162  0.8410901789033858  1.0000
  Cl  Cl1       1.0  0.9207431253164058  0.8551460391035375  0.5686416804439317  1.0000
  O   O1        1.0  0.6435659880023294  0.4964690188264029  0.39448502652365386  1.0000
  O   O2        1.0  0.8364947087357705  0.6614852779476904  0.4893160086406069  1.0000
  O   O3        1.0  0.017211595765395795  0.5077853798010352  0.6039776339840941  1.0000
  O   O4        1.0  0.5195191761995303  0.3198308177730951  0.489844594163216  1.0000
  O   O5        1.0  0.36564777327181724  0.4896538350871537  0.6038613230275871  1.0000
  O   O6        1.0  0.17661367326626018  0.31784868242129244  0.5012669214937944  1.0000
  O   O7        1.0  0.9954424990648293  0.4648052671831734  0.39323147611029435  1.0000
  O   O8        1.0  0.4880320183718539  0.6683022452621895  0.5065281253421077  1.0000
  O   O9        1.0  0.24189461280529653  0.5489661449936419  0.4649443046425432  1.0000
  O   O10       1.0  0.7627367086346196  0.43788037643188427  0.5336077196851292  1.0000
  F   F1        1.0  0.3127447792741976  0.4474089918641223  0.11499871641058948  1.0000
  F   F2        1.0  0.678360239259753  0.5689147251100477  0.8790443440287276  1.0000
