data_image0
_chemical_formula_structural       Zn4H32C48N8O16
_chemical_formula_sum              "Zn4 H32 C48 N8 O16"
_cell_length_a       7.8457820791470105
_cell_length_b       7.845777469096813
_cell_length_c       20.079880682128568
_cell_angle_alpha    89.9999934003958
_cell_angle_beta     89.99959007563197
_cell_angle_gamma    90.04704160213679

_space_group_name_H-M_alt    "P 1"
_space_group_IT_number       1

loop_
  _space_group_symop_operation_xyz
  'x, y, z'

loop_
  _atom_site_type_symbol
  _atom_site_label
  _atom_site_symmetry_multiplicity
  _atom_site_fract_x
  _atom_site_fract_y
  _atom_site_fract_z
  _atom_site_occupancy
  Zn  Zn1       1.0  0.32656657473764744  0.32656554919943664  0.9999965155861757  1.0000
  Zn  Zn2       1.0  0.6734361838868779  0.6734385189616959  0.500004009612219  1.0000
  Zn  Zn3       1.0  0.1734178325610856  0.8265895980459136  0.7500002149931717  1.0000
  Zn  Zn4       1.0  0.8265793048493748  0.1734069094739183  0.24999982918446048  1.0000
  H   H1        1.0  0.3053449104432886  0.6954597639478663  0.9816044969059662  1.0000
  H   H2        1.0  0.6946543518914013  0.30452136705360294  0.48161094915818836  1.0000
  H   H3        1.0  0.8045472965806013  0.8056321800995153  0.7316117739028483  1.0000
  H   H4        1.0  0.19545145583902013  0.1943732566339734  0.23161016328580794  1.0000
  H   H5        1.0  0.19436742620234074  0.19546119965572478  0.7683867607523707  1.0000
  H   H6        1.0  0.805630648511304  0.8045340271251362  0.2683879043340482  1.0000
  H   H7        1.0  0.6954772027360292  0.3053375128591399  0.018389569972903492  1.0000
  H   H8        1.0  0.304535649014703  0.6946629073626128  0.5183965663262668  1.0000
  H   H9        1.0  0.46766890021125107  0.9468222498781603  0.1610505848173105  1.0000
  H   H10       1.0  0.5323132967341451  0.053174283206068707  0.6610574660686124  1.0000
  H   H11       1.0  0.5534291482612234  0.9685670909071222  0.9109568130385952  1.0000
  H   H12       1.0  0.4465650424683361  0.03143190718547122  0.4109540085211023  1.0000
  H   H13       1.0  0.031438042404467105  0.4465727892022215  0.5890417946359108  1.0000
  H   H14       1.0  0.9685709653049486  0.5534250551223465  0.08904149601598017  1.0000
  H   H15       1.0  0.9468331645176563  0.4676832505518505  0.8389428963337192  1.0000
  H   H16       1.0  0.053185298244777406  0.5323425491588694  0.3389491411261644  1.0000
  H   H17       1.0  0.500277729347154  0.6535759464781921  0.213425855855732  1.0000
  H   H18       1.0  0.49970733531014827  0.3464282165457462  0.713426343325956  1.0000
  H   H19       1.0  0.8465979253590915  0.0004620814024037001  0.9634477688874197  1.0000
  H   H20       1.0  0.1533953035238227  0.9995356230179415  0.4634457482077749  1.0000
  H   H21       1.0  0.9995365802277334  0.1534008168678299  0.5365530834083855  1.0000
  H   H22       1.0  0.00047338823625150007  0.8465957719855483  0.03655249181733919  1.0000
  H   H23       1.0  0.6535798756145823  0.5002938594408519  0.7865719784277088  1.0000
  H   H24       1.0  0.34643317185091854  0.49972813299721963  0.28657740477267873  1.0000
  H   H25       1.0  0.4302763130831125  0.3956645355080256  0.1455908939840711  1.0000
  H   H26       1.0  0.5697112658421873  0.6043332798669142  0.6455926703480941  1.0000
  H   H27       1.0  0.104475320730586  0.9298525081575164  0.8957173107717153  1.0000
  H   H28       1.0  0.8955204236489678  0.070146496003467  0.39571623805238687  1.0000
  H   H29       1.0  0.0701422690902902  0.895527013112144  0.6042843527499285  1.0000
  H   H30       1.0  0.9298524381399674  0.10446827076765433  0.10428467684119617  1.0000
  H   H31       1.0  0.3956743529202456  0.43028539832965873  0.8544059105485785  1.0000
  H   H32       1.0  0.6043425468556406  0.5697276495184556  0.35441160948179357  1.0000
  C   C1        1.0  0.34853780203285106  0.6904469323426952  0.0332641401179288  1.0000
  C   C2        1.0  0.6514543794772791  0.3095420029534495  0.5332701809460971  1.0000
  C   C3        1.0  0.8095506783184093  0.8488358106688667  0.7832709376240103  1.0000
  C   C4        1.0  0.1904471274813204  0.1511683326949154  0.28327083661361024  1.0000
  C   C5        1.0  0.1511579102328895  0.19045352501028387  0.7167281477339884  1.0000
  C   C6        1.0  0.8488309134854787  0.8095404418118123  0.2167271783286822  1.0000
  C   C7        1.0  0.6904606206128036  0.3485330465885923  0.9667288766853301  1.0000
  C   C8        1.0  0.309554219440514  0.6514735875295872  0.4667378866099057  1.0000
  C   C9        1.0  0.38326243617301964  0.8408325247841547  0.0677085166069276  1.0000
  C   C10       1.0  0.6167227432182187  0.15916021907526104  0.5677171500832259  1.0000
  C   C11       1.0  0.6592087727363846  0.8838400856202926  0.8176707538837391  1.0000
  C   C12       1.0  0.3407896734556743  0.11615384917897843  0.3176702339480286  1.0000
  C   C13       1.0  0.11616161203084371  0.3407952133337845  0.682328089070836  1.0000
  C   C14       1.0  0.883835489644447  0.6592000437169362  0.18232603134168807  1.0000
  C   C15       1.0  0.8408464505609884  0.3832682193585981  0.9322837400882589  1.0000
  C   C16       1.0  0.15917157314109429  0.6167473503394589  0.43229068156409767  1.0000
  C   C17       1.0  0.4389292610613396  0.8298061086657074  0.1337646084210249  1.0000
  C   C18       1.0  0.5610483394048699  0.17019553053963682  0.6337719030605199  1.0000
  C   C19       1.0  0.6704230184320964  0.9394988224586388  0.8837298946612435  1.0000
  C   C20       1.0  0.32956912280925366  0.06050273363706542  0.3837299061349951  1.0000
  C   C21       1.0  0.0605060499134424  0.32958036921866113  0.6162695075950778  1.0000
  C   C22       1.0  0.9394960852586249  0.6704149134395436  0.11626828990924305  1.0000
  C   C23       1.0  0.8298130135276479  0.43894333813730685  0.8662285810995484  1.0000
  C   C24       1.0  0.17019985124275652  0.5610824495515205  0.36623499577886065  1.0000
  C   C25       1.0  0.45556101970186097  0.6687300924549223  0.16245748771851246  1.0000
  C   C26       1.0  0.5444198784817402  0.3312702633080136  0.6624638268978842  1.0000
  C   C27       1.0  0.8314752129952013  0.9557621807068845  0.9124843222246353  1.0000
  C   C28       1.0  0.1685125779418399  0.04423936335601301  0.41248279240525676  1.0000
  C   C29       1.0  0.04423658484045491  0.16852399562471734  0.5875163743887625  1.0000
  C   C30       1.0  0.9557660784758185  0.8314751212100477  0.08751610133088408  1.0000
  C   C31       1.0  0.6687373583520824  0.45557155081525036  0.8375359063195021  1.0000
  C   C32       1.0  0.33127475470713824  0.5444478739349279  0.33754236940971066  1.0000
  C   C33       1.0  0.4175452149296817  0.5239270452467863  0.1250305282823518  1.0000
  C   C34       1.0  0.5824427394770595  0.4760682284670353  0.6250337678088511  1.0000
  C   C35       1.0  0.9762102195136749  0.9174302486900389  0.8751158707237322  1.0000
  C   C36       1.0  0.023780804933423404  0.08257131001736442  0.37511374800878616  1.0000
  C   C37       1.0  0.08257070807839989  0.023789240488412102  0.6248845734113573  1.0000
  C   C38       1.0  0.9174338184356401  0.9762060400808679  0.12488589620954117  1.0000
  C   C39       1.0  0.5239353191523791  0.4175502764327136  0.8749651166503369  1.0000
  C   C40       1.0  0.47607992897904683  0.582461488839037  0.3749741616774783  1.0000
  C   C41       1.0  0.3559582900969076  0.007231461083108602  0.03275417911320489  1.0000
  C   C42       1.0  0.6440338985776465  0.9927523761119093  0.53276917976833  1.0000
  C   C43       1.0  0.4926446721147499  0.856508639861524  0.7828181904210324  1.0000
  C   C44       1.0  0.5073556874539733  0.143486582714587  0.28281819994721497  1.0000
  C   C45       1.0  0.1434914528091653  0.5073559003874665  0.7171803465464703  1.0000
  C   C46       1.0  0.856498635628583  0.4926342430795075  0.217179367358618  1.0000
  C   C47       1.0  0.007246825326888002  0.355965005992907  0.9672373044875113  1.0000
  C   C48       1.0  0.9927654588894795  0.6440479997501146  0.46724639712488175  1.0000
  N   N1        1.0  0.365156924817029  0.5358304371774596  0.0611646839289222  1.0000
  N   N2        1.0  0.6348398429685603  0.4641559409165694  0.561169769497276  1.0000
  N   N3        1.0  0.9641981716789019  0.8651169329656271  0.8112305486976793  1.0000
  N   N4        1.0  0.035797847513940405  0.13488719970103352  0.3112288884898362  1.0000
  N   N5        1.0  0.13488469687170832  0.03580824212740201  0.6887708358770439  1.0000
  N   N6        1.0  0.8651071890386106  0.9641882850569418  0.18877031331039967  1.0000
  N   N7        1.0  0.5358457514189469  0.3651524402393279  0.9388295242836904  1.0000
  N   N8        1.0  0.46416959905305083  0.6348529294597187  0.4388390986860315  1.0000
  O   O1        1.0  0.3982430712508531  0.14366742824820025  0.06455261323597479  1.0000
  O   O2        1.0  0.6017434368177987  0.856316395283429  0.5645642510245137  1.0000
  O   O3        1.0  0.3563593782830168  0.899247684604916  0.8145591065529986  1.0000
  O   O4        1.0  0.6436378487539827  0.1007424270895854  0.3145587367320744  1.0000
  O   O5        1.0  0.1007590909013842  0.6436409920422437  0.6854416693488047  1.0000
  O   O6        1.0  0.899218834179969  0.35635170688512835  0.18543609364995453  1.0000
  O   O7        1.0  0.14368301033265854  0.3982526580823276  0.9354396133364488  1.0000
  O   O8        1.0  0.8563311292357199  0.6017565360411368  0.4354475948368444  1.0000
  O   O9        1.0  0.2936235360321646  0.008113198384094703  0.9750178333924494  1.0000
  O   O10       1.0  0.7063834932344976  0.9918653890095971  0.4750321957848413  1.0000
  O   O11       1.0  0.4914977034704719  0.7934793661886633  0.7251893646883545  1.0000
  O   O12       1.0  0.5085100796754817  0.20650440883310497  0.22518687862739026  1.0000
  O   O13       1.0  0.2065265450761942  0.5085033895351074  0.7748095849374721  1.0000
  O   O14       1.0  0.793500728137147  0.4914943960845903  0.27481525606712137  1.0000
  O   O15       1.0  0.008124613495354503  0.2936326369373462  0.0249742352356819  1.0000
  O   O16       1.0  0.9918855763618738  0.7063868984106708  0.524982298052194  1.0000
