data_image0
_chemical_formula_structural       Nd4Ag2H28C48N2O32
_chemical_formula_sum              "Nd4 Ag2 H28 C48 N2 O32"
_cell_length_a       8.590216847954618
_cell_length_b       11.721661149501372
_cell_length_c       13.476944642163334
_cell_angle_alpha    103.59064036615666
_cell_angle_beta     98.33017857437179
_cell_angle_gamma    99.1440468044011

_space_group_name_H-M_alt    "P 1"
_space_group_IT_number       1

loop_
  _space_group_symop_operation_xyz
  'x, y, z'

loop_
  _atom_site_type_symbol
  _atom_site_label
  _atom_site_symmetry_multiplicity
  _atom_site_fract_x
  _atom_site_fract_y
  _atom_site_fract_z
  _atom_site_occupancy
  Nd  Nd1       1.0  0.5477844205874192  0.3840875192908583  0.09973778050336078  1.0000
  Nd  Nd2       1.0  0.4522135827128935  0.6159129501757548  0.9002616424918557  1.0000
  Nd  Nd3       1.0  0.8173475844336549  0.11675899613195638  0.1130232816833185  1.0000
  Nd  Nd4       1.0  0.18265349993801286  0.8832441385388207  0.8869806888917323  1.0000
  Ag  Ag1       1.0  0.06495623959339981  0.4544574349243007  0.18090461075851041  1.0000
  Ag  Ag2       1.0  0.9350427058260707  0.5455421299526576  0.8190961919403962  1.0000
  H   H1        1.0  0.34392966154618426  0.17192188393170937  0.9016136098646044  1.0000
  H   H2        1.0  0.656067373528998  0.8280750326152667  0.09838052867101503  1.0000
  H   H3        1.0  0.24216473499109978  0.23388294198021234  0.9802093414275319  1.0000
  H   H4        1.0  0.7578384340518196  0.7661148525787027  0.019789246373079494  1.0000
  H   H5        1.0  0.7369622106266647  0.6450876526777661  0.13722108441177738  1.0000
  H   H6        1.0  0.2630322440415823  0.35490833422156237  0.8627770778840044  1.0000
  H   H7        1.0  0.8492315177160563  0.5689224330787112  0.08874544429357195  1.0000
  H   H8        1.0  0.1507662549073743  0.4310771200369742  0.9112567338500099  1.0000
  H   H9        1.0  0.9107157151660629  0.05327426535647819  0.6824969018097278  1.0000
  H   H10       1.0  0.08928490992081349  0.9467270314995273  0.3175133202008169  1.0000
  H   H11       1.0  0.7299649328537328  0.1377509180162306  0.567618809565559  1.0000
  H   H12       1.0  0.270040373863175  0.8622459274722515  0.43238793502057854  1.0000
  H   H13       1.0  0.5819908615510271  0.2902941511617101  0.6495805414023222  1.0000
  H   H14       1.0  0.41800972501597755  0.7097027188624665  0.3504213290196674  1.0000
  H   H15       1.0  0.5629442681039548  0.027811458500757193  0.4450862023224432  1.0000
  H   H16       1.0  0.4370619812195359  0.9721935252394971  0.5549112030098371  1.0000
  H   H17       1.0  0.38019297085123327  0.1580235217540817  0.5215581080676586  1.0000
  H   H18       1.0  0.6198172809729456  0.8419832737297953  0.47843781316040424  1.0000
  H   H19       1.0  0.21800454658107776  0.2517744183117401  0.4046599524919118  1.0000
  H   H20       1.0  0.7819998068809897  0.7482278813081394  0.5953359766485136  1.0000
  H   H21       1.0  0.9855567450359644  0.2797684301004608  0.4563989010971667  1.0000
  H   H22       1.0  0.014445734532706924  0.7202356531341678  0.5435979743297494  1.0000
  H   H23       1.0  0.0627328718070643  0.37568011257405937  0.6502167571615729  1.0000
  H   H24       1.0  0.9372677160381501  0.6243212763143758  0.3497801243510353  1.0000
  H   H25       1.0  0.6858583473588739  0.5566535190575479  0.6417137697150467  1.0000
  H   H26       1.0  0.31414082873748583  0.4433469621703309  0.35828427783550143  1.0000
  H   H27       1.0  0.6124720253516572  0.4838100635351878  0.4463853185188356  1.0000
  H   H28       1.0  0.38753305117578657  0.5161949084437935  0.5536134622581201  1.0000
  C   C1        1.0  0.6078341609571893  0.4021784851672691  0.843627921209702  1.0000
  C   C2        1.0  0.39215960088962726  0.5978192766564304  0.1563727764830034  1.0000
  C   C3        1.0  0.8672042538346503  0.32255038791512197  0.9827064808973348  1.0000
  C   C4        1.0  0.132791883848185  0.6774518447145965  0.017296852939480804  1.0000
  C   C5        1.0  0.9713808710133591  0.1060268591130651  0.8880039633440333  1.0000
  C   C6        1.0  0.028619752004530565  0.8939744428558497  0.11200551752773436  1.0000
  C   C7        1.0  0.6974961232578708  0.30625022985528716  0.8049664559858911  1.0000
  C   C8        1.0  0.3025014124817318  0.6937484222481982  0.19503625388972518  1.0000
  C   C9        1.0  0.807322294473991  0.2636308564871612  0.8687372776410953  1.0000
  C   C10       1.0  0.19267618338476208  0.7363668910266695  0.13126681193820383  1.0000
  C   C11       1.0  0.8768412029490663  0.1679926697024285  0.8228279126537644  1.0000
  C   C12       1.0  0.12316035805002198  0.8320077379026499  0.1771814656441464  1.0000
  C   C13       1.0  0.8511522586330996  0.1249032078038894  0.7147754685488438  1.0000
  C   C14       1.0  0.1488488265293455  0.8750954028897198  0.2852342320743658  1.0000
  C   C15       1.0  0.7491145515801206  0.1708647045354539  0.65170582703891  1.0000
  C   C16       1.0  0.25088959189488236  0.8291366276043629  0.34830026863760816  1.0000
  C   C17       1.0  0.6681998673700633  0.25679474871107993  0.6968055402683717  1.0000
  C   C18       1.0  0.33180261712734455  0.7432048003205621  0.30319854748424996  1.0000
  C   C19       1.0  0.22789530115637285  0.24584231385777128  0.20583011364541895  1.0000
  C   C20       1.0  0.7721059857172109  0.7541572847675508  0.7941664558865966  1.0000
  C   C21       1.0  0.4287893561902506  0.0927944064292205  0.1169383879207615  1.0000
  C   C22       1.0  0.5712102758437112  0.9072033988620943  0.8830576559648975  1.0000
  C   C23       1.0  0.6084259434693563  0.9642890407908594  0.2535674997357944  1.0000
  C   C24       1.0  0.39157014200151957  0.0357042768202547  0.7464280245891999  1.0000
  C   C25       1.0  0.3195082144857224  0.18291177426352334  0.2718302084827826  1.0000
  C   C26       1.0  0.6804914154792526  0.8170860361407075  0.7281650942641065  1.0000
  C   C27       1.0  0.422821889992683  0.11035950797479901  0.23067782804430695  1.0000
  C   C28       1.0  0.5771817507489133  0.8896400937214112  0.7693189551534517  1.0000
  C   C29       1.0  0.5081630396430512  0.05310444797413541  0.2944038084800198  1.0000
  C   C30       1.0  0.49183730511138174  0.9468960552408489  0.7055913813483059  1.0000
  C   C31       1.0  0.4944063463717542  0.07406105448389869  0.3988932003144257  1.0000
  C   C32       1.0  0.5055996619299421  0.9259430384699813  0.6011032544723492  1.0000
  C   C33       1.0  0.392998454478061  0.14611596287734585  0.4405189494912136  1.0000
  C   C34       1.0  0.6070125005124609  0.8538890321175997  0.5594781420337966  1.0000
  C   C35       1.0  0.30256049222978015  0.19816256682830155  0.3756637091299808  1.0000
  C   C36       1.0  0.6974424453454732  0.801838835356854  0.6243319037708305  1.0000
  C   C37       1.0  0.753340466041827  0.3278253797538112  0.3210117158420047  1.0000
  C   C38       1.0  0.24665565715814353  0.6721768886662927  0.6789864300233931  1.0000
  C   C39       1.0  0.793914322065106  0.375688061550953  0.4376439525393607  1.0000
  C   C40       1.0  0.2060869867764978  0.6243160048094935  0.562355039471008  1.0000
  C   C41       1.0  0.9203285602510505  0.3436556923410521  0.4955050478214673  1.0000
  C   C42       1.0  0.07967250136182  0.656347498571769  0.504490770227072  1.0000
  C   C43       1.0  0.9618379844715007  0.3950697205934474  0.6023116084677015  1.0000
  C   C44       1.0  0.03816307921034924  0.6049334652064571  0.3976849507196079  1.0000
  C   C45       1.0  0.7531528909611324  0.4988131981619974  0.5973178247373383  1.0000
  C   C46       1.0  0.2468451123391802  0.501187271304616  0.4026815982578782  1.0000
  C   C47       1.0  0.7096968447445987  0.4557526763359975  0.489976432529815  1.0000
  C   C48       1.0  0.2903042272131771  0.5442504890122635  0.510023091212588  1.0000
  N   N1        1.0  0.8788389636888708  0.4709278066182279  0.6526676169226775  1.0000
  N   N2        1.0  0.12115973450185888  0.5290708828110978  0.34733001181439255  1.0000
  O   O1        1.0  0.6106057125396802  0.44278480515040275  0.9419743495337299  1.0000
  O   O2        1.0  0.3893908968418387  0.5572192346166174  0.058027179700232426  1.0000
  O   O3        1.0  0.5294664186697773  0.44465203348102733  0.7787311132638877  1.0000
  O   O4        1.0  0.47052568833741054  0.555343935008672  0.22126905878246822  1.0000
  O   O5        1.0  0.7805156650009691  0.3014711923530555  0.04972951563649268  1.0000
  O   O6        1.0  0.2194842486436386  0.6985319254435396  0.9502765715220036  1.0000
  O   O7        1.0  0.0029615311455727903  0.3917574990458731  0.00854223445217876  1.0000
  O   O8        1.0  0.9970352993586998  0.608242958659474  0.991458563987713  1.0000
  O   O9        1.0  0.9904050377903671  0.14181329737583326  0.9870039045776763  1.0000
  O   O10       1.0  0.00959416727172887  0.8581871122712672  0.013004518915700184  1.0000
  O   O11       1.0  0.0279131999751527  0.0199190487909107  0.8409994174144089  1.0000
  O   O12       1.0  0.9720886082526762  0.9800822342618004  0.15901313484533122  1.0000
  O   O13       1.0  0.3034083767585543  0.3056065169016122  0.1533739006256525  1.0000
  O   O14       1.0  0.6965902692202092  0.6943832575091093  0.8466159185996035  1.0000
  O   O15       1.0  0.08032363315338388  0.24202922689413234  0.20878021205000152  1.0000
  O   O16       1.0  0.9196793566338284  0.7579810903096269  0.7912232103626238  1.0000
  O   O17       1.0  0.5400634417270211  0.16240939368697127  0.09223760440026041  1.0000
  O   O18       1.0  0.45993996419972644  0.8375893018841293  0.9077604516683094  1.0000
  O   O19       1.0  0.3171977126526286  0.01786687671080499  0.0528684273919637  1.0000
  O   O20       1.0  0.6828045184090997  0.9821318122119466  0.9471302629825048  1.0000
  O   O21       1.0  0.6374419175032314  0.9620129066656983  0.16020532647884514  1.0000
  O   O22       1.0  0.3625605305432842  0.0379822104212053  0.8397911508240057  1.0000
  O   O23       1.0  0.653399237831259  0.8975788398651615  0.30615929469399816  1.0000
  O   O24       1.0  0.3465829414163649  0.10241088748476557  0.6938327345648715  1.0000
  O   O25       1.0  0.6770782473372563  0.38761789022667165  0.2709731303322727  1.0000
  O   O26       1.0  0.32291574311746263  0.6123807930608718  0.7290240710732973  1.0000
  O   O27       1.0  0.801346711161294  0.2335051489235838  0.2826617541352263  1.0000
  O   O28       1.0  0.19864776547497343  0.7664953057108689  0.7173388306389157  1.0000
  O   O29       1.0  0.3306194896960263  0.2531003451421299  0.9443047139076982  1.0000
  O   O30       1.0  0.6693787223131552  0.7468965729402869  0.05568953146079991  1.0000
  O   O31       1.0  0.7789509083209649  0.5718760017240285  0.1406445728790828  1.0000
  O   O32       1.0  0.2210437894380632  0.4281208708487511  0.8593552811009816  1.0000
