data_image0
_chemical_formula_structural       Al4H25C37I2NO20
_chemical_formula_sum              "Al4 H25 C37 I2 N1 O20"
_cell_length_a       6.663436403809547
_cell_length_b       16.480477496690394
_cell_length_c       18.54161497873609
_cell_angle_alpha    106.79836624245647
_cell_angle_beta     90.08585587771807
_cell_angle_gamma    90.040763878979

_space_group_name_H-M_alt    "P 1"
_space_group_IT_number       1

loop_
  _space_group_symop_operation_xyz
  'x, y, z'

loop_
  _atom_site_type_symbol
  _atom_site_label
  _atom_site_symmetry_multiplicity
  _atom_site_fract_x
  _atom_site_fract_y
  _atom_site_fract_z
  _atom_site_occupancy
  Al  Al1       1.0  0.1329674052261893  0.5001756747020352  0.5003263976173429  1.0000
  Al  Al2       1.0  0.6340477616502654  0.5006726171105242  0.49970556115843584  1.0000
  Al  Al3       1.0  0.6435368146322062  0.0007560975467412996  0.00032623936989750003  1.0000
  Al  Al4       1.0  0.1427314586325252  0.00028478383470090035  0.9990824991506386  1.0000
  H   H1        1.0  0.590143782533488  0.771050211982427  0.8329600873634249  1.0000
  H   H2        1.0  0.5897084885163438  0.8455401605919306  0.7818846200705778  1.0000
  H   H3        1.0  0.5877426196320386  0.7364554295991752  0.6681759051817338  1.0000
  H   H4        1.0  0.5770116062003936  0.6620111359562557  0.7192067401921421  1.0000
  H   H5        1.0  0.9236103801054584  0.7174062806144903  0.8708266232493357  1.0000
  H   H6        1.0  0.9014389079229446  0.6057505003539064  0.7603267298980542  1.0000
  H   H7        1.0  0.14824893915409382  0.8595975342999154  0.7666457124393347  1.0000
  H   H8        1.0  0.916669660334371  0.8929910946387807  0.7379285874027063  1.0000
  H   H9        1.0  0.15463562784846377  0.7399909686509359  0.6625351260339798  1.0000
  H   H10       1.0  0.1507488564634087  0.7520288904033946  0.8401483942500861  1.0000
  H   H11       1.0  0.13471183296533704  0.6363413036538361  0.7310659687441615  1.0000
  H   H12       1.0  0.7147845227464202  0.31795220675383007  0.3022458531499908  1.0000
  H   H13       1.0  0.6660491890016687  0.1382394661070521  0.2292688244950796  1.0000
  H   H14       1.0  0.7065355117696089  0.2171139770779362  0.18424738424646142  1.0000
  H   H15       1.0  0.45761616812307443  0.38609721099052763  0.24301936049307224  1.0000
  H   H16       1.0  0.4054643105753116  0.27901818048552235  0.13010753789548352  1.0000
  H   H17       1.0  0.09023166682129612  0.2675264674467357  0.3280402185191705  1.0000
  H   H18       1.0  0.2699740985797945  0.21749340860252891  0.36952451138412107  1.0000
  H   H19       1.0  0.0972711624460345  0.1524305213252575  0.22011738441465675  1.0000
  H   H20       1.0  0.20021429466832794  0.3773828499728963  0.2626295622534442  1.0000
  H   H21       1.0  0.161464113261097  0.25805528364410424  0.1576788073434372  1.0000
  H   H22       1.0  0.38343934794458806  0.6026485484506667  0.4905868110083135  1.0000
  H   H23       1.0  0.8802869718576718  0.38729578315684426  0.46851136635935836  1.0000
  H   H24       1.0  0.3910300226095912  0.9034145682703353  0.017489710482735243  1.0000
  H   H25       1.0  0.8945267536762957  0.10203501155788791  0.9876216460022249  1.0000
  C   C1        1.0  0.3920693553595172  0.3825574617629712  0.3869426831139933  1.0000
  C   C2        1.0  0.37780822463090397  0.41417275607624043  0.5845908589568509  1.0000
  C   C3        1.0  0.87570690486978  0.6139049038908339  0.6153887662590023  1.0000
  C   C4        1.0  0.8906795543496601  0.59053784928161  0.41716572796225654  1.0000
  C   C5        1.0  0.8887279059604725  0.6424232908649188  0.36669771826719716  1.0000
  C   C6        1.0  0.889096009849098  0.6871671451054624  0.32412936060620723  1.0000
  C   C7        1.0  0.8896807744363286  0.7357154502685364  0.27728795646885374  1.0000
  C   C8        1.0  0.8905419789796483  0.7799126260160775  0.23375503923033147  1.0000
  C   C9        1.0  0.8911075668800735  0.827067670181698  0.1857582375307345  1.0000
  C   C10       1.0  0.8921466235905415  0.8697432000364316  0.14143278279366464  1.0000
  C   C11       1.0  0.6678213541240084  0.789094794504301  0.7877283751621106  1.0000
  C   C12       1.0  0.6624645454999084  0.7165977981782278  0.7131732755773116  1.0000
  C   C13       1.0  0.9944943707684076  0.7345679592126332  0.8237188161559035  1.0000
  C   C14       1.0  0.9948951297701997  0.8389819748940679  0.7486949412373463  1.0000
  C   C15       1.0  0.8859792388584324  0.8127628122493603  0.8118365187893631  1.0000
  C   C16       1.0  0.8761456979058907  0.6870547665935832  0.6878802282929328  1.0000
  C   C17       1.0  0.9839744890853198  0.659445438999697  0.7507108370387883  1.0000
  C   C18       1.0  0.9997214645810716  0.7625344825857284  0.6755931075882347  1.0000
  C   C19       1.0  0.6048736115351403  0.2679308967943043  0.2998334500175091  1.0000
  C   C20       1.0  0.6071344683051338  0.1983324023745396  0.2238927048452055  1.0000
  C   C21       1.0  0.34076147013984576  0.3413851693503176  0.24901662625977392  1.0000
  C   C22       1.0  0.2402311497418239  0.2390966858845971  0.3198414215897785  1.0000
  C   C23       1.0  0.3952971984473876  0.30687664140887694  0.3163697672055292  1.0000
  C   C24       1.0  0.39414153893891785  0.18376242775656243  0.1905544034986306  1.0000
  C   C25       1.0  0.3186184324317268  0.2671067870577133  0.17639550563554  1.0000
  C   C26       1.0  0.2451276420476134  0.16509435221752258  0.2467316955207437  1.0000
  C   C27       1.0  0.38297905141110533  0.3635110773683507  0.6362283266500555  1.0000
  C   C28       1.0  0.38663528231619193  0.31948185814528063  0.6793929951480707  1.0000
  C   C29       1.0  0.3898692076198742  0.27120999632468573  0.726475501556628  1.0000
  C   C30       1.0  0.3922013930961371  0.22666743583042148  0.7696947612870702  1.0000
  C   C31       1.0  0.39449159742819984  0.17841336597119553  0.8167887612861406  1.0000
  C   C32       1.0  0.3966075973217117  0.13446528783560296  0.8600663104754817  1.0000
  C   C33       1.0  0.39836865500110724  0.0840977866533663  0.9117217501184812  1.0000
  C   C34       1.0  0.3893577281759235  0.11547224150433517  0.114908560713495  1.0000
  C   C35       1.0  0.8887970135616572  0.918220450952667  0.08835865495345277  1.0000
  C   C36       1.0  0.8961491566612454  0.8841749784232461  0.885416389257884  1.0000
  C   C37       1.0  0.9253494082269642  0.7850033971491257  0.6098185674330808  1.0000
  I   I1        1.0  0.7116823665765396  0.22117676112372917  0.39332072492186404  1.0000
  I   I2        1.0  0.30865112582223025  0.04281666762582149  0.2668835592440573  1.0000
  N   N1        1.0  0.8620340585474722  0.8006384444396843  0.5566635976515855  1.0000
  O   O1        1.0  0.544121865177928  0.42503674216283127  0.555262336824228  1.0000
  O   O2        1.0  0.22389379094680356  0.40331482082569886  0.4194231731157174  1.0000
  O   O3        1.0  0.06132058115387201  0.5620826933952329  0.429388097928694  1.0000
  O   O4        1.0  0.20691279350277375  0.44227533787660883  0.5729537362508594  1.0000
  O   O5        1.0  0.0436108454668087  0.5932456068468781  0.5826464036943335  1.0000
  O   O6        1.0  0.5581373531130965  0.4205989449213802  0.40638351828062724  1.0000
  O   O7        1.0  0.3830880090471567  0.5520478115701977  0.5073661058638521  1.0000
  O   O8        1.0  0.7079821207097228  0.5795490631149889  0.5926729241667061  1.0000
  O   O9        1.0  0.7224324925997793  0.5780513172012577  0.44464291509789433  1.0000
  O   O10       1.0  0.8834514247092928  0.44874224330661144  0.48964200077541165  1.0000
  O   O11       1.0  0.21785289129156382  0.08672369379870298  0.0900100855505883  1.0000
  O   O12       1.0  0.5685687401989911  0.05759523368146801  0.9264443660678409  1.0000
  O   O13       1.0  0.7321947041084655  0.9057241631988048  0.9208257558329793  1.0000
  O   O14       1.0  0.5557615091565681  0.09605254489524379  0.0807920485476501  1.0000
  O   O15       1.0  0.7180278016052172  0.9448757692613868  0.07431428500637347  1.0000
  O   O16       1.0  0.2294342911371601  0.07134815768647229  0.9385948474357093  1.0000
  O   O17       1.0  0.392899013918651  0.9494052116203235  0.9945312201260919  1.0000
  O   O18       1.0  0.05592460861658571  0.9292693403208644  0.05922498708424937  1.0000
  O   O19       1.0  0.06825367538458242  0.915348068557023  0.9073874373882448  1.0000
  O   O20       1.0  0.8934630653854541  0.052387254883626604  0.005671028600481502  1.0000
