data_image0
_chemical_formula_structural       Er2P2H22C18S2N2O18
_chemical_formula_sum              "Er2 P2 H22 C18 S2 N2 O18"
_cell_length_a       6.723058051864441
_cell_length_b       7.485051501829113
_cell_length_c       13.314532659486794
_cell_angle_alpha    90.62448354075046
_cell_angle_beta     93.13140740275317
_cell_angle_gamma    102.10319423392144

_space_group_name_H-M_alt    "P 1"
_space_group_IT_number       1

loop_
  _space_group_symop_operation_xyz
  'x, y, z'

loop_
  _atom_site_type_symbol
  _atom_site_label
  _atom_site_symmetry_multiplicity
  _atom_site_fract_x
  _atom_site_fract_y
  _atom_site_fract_z
  _atom_site_occupancy
  Er  Er1       1.0  0.2849994366291213  0.7683014420973963  0.45588339076058293  1.0000
  Er  Er2       1.0  0.7149971469535571  0.23170476113471494  0.5441181793737967  1.0000
  P   P1        1.0  0.25099760281521105  0.3835318378131731  0.6196068274790462  1.0000
  P   P2        1.0  0.7490008015932476  0.6164757193768365  0.38039179687337565  1.0000
  H   H1        1.0  0.1624595075763793  0.10221280529520273  0.7740662236844356  1.0000
  H   H2        1.0  0.8375442648767405  0.8977796764959367  0.22592646789603069  1.0000
  H   H3        1.0  0.16291458641571674  0.12213711636837842  0.9614143122020449  1.0000
  H   H4        1.0  0.8370774123510928  0.8778622371355952  0.03857883162068279  1.0000
  H   H5        1.0  0.21061070825544453  0.318479346241901  0.12028744126490658  1.0000
  H   H6        1.0  0.7893833387320939  0.6815035950512469  0.8797071795406949  1.0000
  H   H7        1.0  0.2718708240927512  0.628769008456274  0.19863833344435014  1.0000
  H   H8        1.0  0.7281295323869584  0.37120300144275137  0.8013654234881853  1.0000
  H   H9        1.0  0.332337507516101  0.9017338806640256  0.0946543269821092  1.0000
  H   H10       1.0  0.6676711975886177  0.09825454419733863  0.90535876246237  1.0000
  H   H11       1.0  0.3390025612113945  0.8720331723894007  0.9062274284124426  1.0000
  H   H12       1.0  0.6609993026026544  0.12797031213111862  0.09378479242734267  1.0000
  H   H13       1.0  0.3136353628484941  0.6774145226462664  0.7653851549496621  1.0000
  H   H14       1.0  0.6863641998455918  0.3225916704101125  0.23461574849530814  1.0000
  H   H15       1.0  0.023256062032516005  0.4191149739930395  0.38625161839734545  1.0000
  H   H16       1.0  0.9767424834184484  0.5808994163992481  0.6137455424629933  1.0000
  H   H17       1.0  0.2309153412632341  0.3929606896939077  0.3444894133235081  1.0000
  H   H18       1.0  0.7690865068435643  0.6070550594341031  0.6555078480150056  1.0000
  H   H19       1.0  0.2311038800019035  0.9191020819037591  0.6455788978453396  1.0000
  H   H20       1.0  0.7688943504886865  0.0809109286152037  0.354413740730898  1.0000
  H   H21       1.0  0.1073875599523717  0.034822197070468505  0.5764600986975664  1.0000
  H   H22       1.0  0.8926214149637276  0.9651921544182047  0.42353360221488145  1.0000
  C   C1        1.0  0.238752934055718  0.39399410100507737  0.75740591034873  1.0000
  C   C2        1.0  0.7612491483132687  0.6060038731847117  0.24259276966142804  1.0000
  C   C3        1.0  0.19448716834366309  0.23354831510583549  0.8136596827364355  1.0000
  C   C4        1.0  0.8055112809578233  0.7664469402062936  0.18634113372114308  1.0000
  C   C5        1.0  0.19428379115802835  0.24559177125765788  0.916970052423238  1.0000
  C   C6        1.0  0.8057151364648759  0.7544116686291961  0.08302405952344567  1.0000
  C   C7        1.0  0.23351434087562242  0.4175412699760487  0.967576949871308  1.0000
  C   C8        1.0  0.7664902543010255  0.5824484941166547  0.032422510797225385  1.0000
  C   C9        1.0  0.23539273191342863  0.4389339421883705  0.0734835088799315  1.0000
  C   C10       1.0  0.7646055832127914  0.5610544711519696  0.9265157669765286  1.0000
  C   C11       1.0  0.2714436914879386  0.6110739140043292  0.11744826163692319  1.0000
  C   C12       1.0  0.7285589401036103  0.38890766512057706  0.8825563593289585  1.0000
  C   C13       1.0  0.3064867176253756  0.7678988156221321  0.05729091206423219  1.0000
  C   C14       1.0  0.6935091192853521  0.232085519091676  0.9427142813788051  1.0000
  C   C15       1.0  0.30878649725958957  0.753144154519518  0.9538789575444894  1.0000
  C   C16       1.0  0.6912187278378142  0.2468483693198422  0.046129547692238794  1.0000
  C   C17       1.0  0.2725796473127033  0.5771993982263127  0.9082884905719195  1.0000
  C   C18       1.0  0.7274196384467971  0.4227931218483718  0.09171308678731548  1.0000
  S   S1        1.0  0.393576789348998  0.07804300748152573  0.31000014817709587  1.0000
  S   S2        1.0  0.6064166757965808  0.9219563705316531  0.6900028011154757  1.0000
  N   N1        1.0  0.27437235436312335  0.5561894327141702  0.8057715862068874  1.0000
  N   N2        1.0  0.7256321890532575  0.44381264202591103  0.19422868644968355  1.0000
  O   O1        1.0  0.2500359153597671  0.5785964718485913  0.5866916209051282  1.0000
  O   O2        1.0  0.7499600280013041  0.421406984791119  0.41330541080086647  1.0000
  O   O3        1.0  0.4437234251136887  0.3163073751040245  0.6024188793607406  1.0000
  O   O4        1.0  0.5562710226828429  0.6836960942968702  0.39758111427151016  1.0000
  O   O5        1.0  0.056908024436637616  0.24698317857809834  0.5835343820168645  1.0000
  O   O6        1.0  0.943087915490814  0.7530202824463643  0.41646415173573087  1.0000
  O   O7        1.0  0.2661143508962738  0.8925008486394717  0.28890947203056777  1.0000
  O   O8        1.0  0.73386515129976  0.10751498009507542  0.7110939160134747  1.0000
  O   O9        1.0  0.4314022422073834  0.08482601835272162  0.42377757917198267  1.0000
  O   O10       1.0  0.5686042510596039  0.9151842588941649  0.5762235413736434  1.0000
  O   O11       1.0  0.29279020792453286  0.22379174843302962  0.2753565319672475  1.0000
  O   O12       1.0  0.7072261795754785  0.7762226225600204  0.7246508981993356  1.0000
  O   O13       1.0  0.5934381457765524  0.09730499789361602  0.2619870540965579  1.0000
  O   O14       1.0  0.40655286003844554  0.9026902773768983  0.7380135515262933  1.0000
  O   O15       1.0  0.1596636393774986  0.4862466973403344  0.3702734139800653  1.0000
  O   O16       1.0  0.8403360729431455  0.5137663179564598  0.6297222708563197  1.0000
  O   O17       1.0  0.14162163716554227  0.9119713472502299  0.5831354150578676  1.0000
  O   O18       1.0  0.8583789184803621  0.08803892403960842  0.4168580265869791  1.0000
