data_image0
_chemical_formula_structural       Zn2H32C36N4Cl4O4
_chemical_formula_sum              "Zn2 H32 C36 N4 Cl4 O4"
_cell_length_a       8.758146801661269
_cell_length_b       10.26256893157346
_cell_length_c       10.541057840312106
_cell_angle_alpha    86.9704404228502
_cell_angle_beta     72.34713045489255
_cell_angle_gamma    73.02648196566975

_space_group_name_H-M_alt    "P 1"
_space_group_IT_number       1

loop_
  _space_group_symop_operation_xyz
  'x, y, z'

loop_
  _atom_site_type_symbol
  _atom_site_label
  _atom_site_symmetry_multiplicity
  _atom_site_fract_x
  _atom_site_fract_y
  _atom_site_fract_z
  _atom_site_occupancy
  Zn  Zn1       1.0  0.708709467152978  0.790528107057554  0.2941591995042856  1.0000
  Zn  Zn2       1.0  0.2912912341642127  0.20947138900734785  0.705840372252851  1.0000
  H   H1        1.0  0.8905739423929756  0.5774709307826669  0.4219896509308469  1.0000
  H   H2        1.0  0.10942594456950167  0.42252754049347613  0.5780092200611547  1.0000
  H   H3        1.0  0.05300205163288751  0.32918362423776404  0.3906764445324668  1.0000
  H   H4        1.0  0.9469942490864938  0.6708148240576361  0.6093233076617395  1.0000
  H   H5        1.0  0.05402847680858256  0.19742152095049192  0.19478685823683148  1.0000
  H   H6        1.0  0.9459673544590568  0.8025748757674123  0.8052150028454859  1.0000
  H   H7        1.0  0.892073649175344  0.31827492635833465  0.043387083165157596  1.0000
  H   H8        1.0  0.10792181911098452  0.6817224923181867  0.956613870340135  1.0000
  H   H9        1.0  0.5741341804896861  0.6164821366217977  0.12172307896071287  1.0000
  H   H10       1.0  0.42586614880701745  0.38351837898667895  0.8782765362575159  1.0000
  H   H11       1.0  0.7455750425826931  0.6809042933730395  0.03350995785821452  1.0000
  H   H12       1.0  0.25442877552585236  0.31909317409511556  0.9664908415848285  1.0000
  H   H13       1.0  0.7767139125214936  0.3640677950299532  0.7467039904958522  1.0000
  H   H14       1.0  0.22328399882896127  0.6359326980128583  0.25329906530484436  1.0000
  H   H15       1.0  0.6473724237119567  0.4454311303166349  0.5638072835201484  1.0000
  H   H16       1.0  0.35262391116447117  0.5545703721944406  0.4361970605138125  1.0000
  H   H17       1.0  0.3999786381419099  0.8367215257119368  0.7720127089268017  1.0000
  H   H18       1.0  0.6000177148128641  0.16327998162924467  0.2279897330309381  1.0000
  H   H19       1.0  0.5226922572804112  0.7557653219064163  0.9511880183235418  1.0000
  H   H20       1.0  0.47730730989697173  0.24423722795908276  0.04881358589308594  1.0000
  H   H21       1.0  0.43310399655141624  0.8899423343111013  0.561433757516923  1.0000
  H   H22       1.0  0.5668951282917475  0.11005817122206449  0.4385671024734846  1.0000
  H   H23       1.0  0.2442471914060461  0.8422115272466043  0.6274677528942121  1.0000
  H   H24       1.0  0.755751588534146  0.1577900050752987  0.3725302974429495  1.0000
  H   H25       1.0  0.06684491802091935  0.8632717302380757  0.49409177203250454  1.0000
  H   H26       1.0  0.9331574481623688  0.13672982506457734  0.5059053971024594  1.0000
  H   H27       1.0  0.007689862930419635  0.9280115838861958  0.27907846724008306  1.0000
  H   H28       1.0  0.9923132382546669  0.07198792991425758  0.7209195660108062  1.0000
  H   H29       1.0  0.24351774906962495  0.9573609803414339  0.08167460834982875  1.0000
  H   H30       1.0  0.7564841747794444  0.042638530628892085  0.918321816558908  1.0000
  H   H31       1.0  0.5310660240566134  0.9040301990844739  0.10884374085063082  1.0000
  H   H32       1.0  0.46893790956153203  0.09597034433485868  0.8911530910891656  1.0000
  C   C1        1.0  0.8945617351097821  0.514868582725029  0.3400808570306423  1.0000
  C   C2        1.0  0.10543894812906265  0.48513090850976676  0.659920616802715  1.0000
  C   C3        1.0  0.9830843593348815  0.3773496705456125  0.32244535209932196  1.0000
  C   C4        1.0  0.01691313679886263  0.6226487854100354  0.6775541063608229  1.0000
  C   C5        1.0  0.9836017953925588  0.3048483540638216  0.21421500461794094  1.0000
  C   C6        1.0  0.016391742477608794  0.6951510984546444  0.7857853785054871  1.0000
  C   C7        1.0  0.894247868997944  0.37164133679384287  0.12890644019991976  1.0000
  C   C8        1.0  0.10574952066537692  0.6283540456256773  0.8710960347253546  1.0000
  C   C9        1.0  0.8082944839031112  0.5099467245323551  0.15266534864025522  1.0000
  C   C10       1.0  0.1917027105238915  0.4900558148427549  0.8473349409682879  1.0000
  C   C11       1.0  0.7086899601836192  0.5870691217165243  0.0648415746561639  1.0000
  C   C12       1.0  0.2913095366800248  0.4129303642730733  0.9351592418731511  1.0000
  C   C13       1.0  0.65998399712835  0.5547220440586074  0.8596321299979193  1.0000
  C   C14       1.0  0.3400143746346698  0.44528049814664433  0.14036976795276956  1.0000
  C   C15       1.0  0.693720141445617  0.4670954790410703  0.7505421368417512  1.0000
  C   C16       1.0  0.30628253348395856  0.5329050398126114  0.24946164609889365  1.0000
  C   C17       1.0  0.6236321106312344  0.5122807623002429  0.6487155330326642  1.0000
  C   C18       1.0  0.37636343700800273  0.4877197226672364  0.3512852571218303  1.0000
  C   C19       1.0  0.5197190965146985  0.6462056152402126  0.6540235752857909  1.0000
  C   C20       1.0  0.4802811875861435  0.3537948882929811  0.34598079512299046  1.0000
  C   C21       1.0  0.48268087290641387  0.7329912895239302  0.7636104912239146  1.0000
  C   C22       1.0  0.5173174988566059  0.26701125268131415  0.23639140672677425  1.0000
  C   C23       1.0  0.5531777016599194  0.6867480858453802  0.8665314975175773  1.0000
  C   C24       1.0  0.44682058171102296  0.3132513876538566  0.1334715148220269  1.0000
  C   C25       1.0  0.3633537213694565  0.8214349289237932  0.5464230290316293  1.0000
  C   C26       1.0  0.636648998755973  0.17856560200517888  0.45357599871846327  1.0000
  C   C27       1.0  0.3287667282767826  0.8485429741078716  0.4149184900335071  1.0000
  C   C28       1.0  0.6712368242817062  0.151458586439972  0.5850793364054991  1.0000
  C   C29       1.0  0.16704566279284447  0.8732583240965397  0.4065134420441367  1.0000
  C   C30       1.0  0.8329570663717614  0.12674220924748877  0.5934846346678454  1.0000
  C   C31       1.0  0.1335347814899776  0.9110501663558636  0.2866620700812561  1.0000
  C   C32       1.0  0.8664683287342779  0.08894934985965357  0.713335012131523  1.0000
  C   C33       1.0  0.264024433754905  0.9252492618620134  0.17698016149951454  1.0000
  C   C34       1.0  0.7359790484898452  0.0747492348099357  0.8230168772521792  1.0000
  C   C35       1.0  0.42331747668253394  0.8955849410263355  0.19096632118293402  1.0000
  C   C36       1.0  0.5766844813235892  0.10441762415965881  0.8090346955655575  1.0000
  N   N1        1.0  0.8094877660976607  0.5808942156945065  0.2569341942976067  1.0000
  N   N2        1.0  0.19050974811442958  0.41910424509125466  0.7430633620863175  1.0000
  N   N3        1.0  0.45677581376680365  0.8553196514390179  0.30602950186522543  1.0000
  N   N4        1.0  0.5432265433773151  0.1446819014485783  0.6939686183078421  1.0000
  Cl  Cl1       1.0  0.769011708846811  0.8357017920256952  0.4762040476820102  1.0000
  Cl  Cl2       1.0  0.23099210926174144  0.16429567544245322  0.5237967517610328  1.0000
  Cl  Cl3       1.0  0.8277170139733199  0.9013467570073531  0.11679236559301387  1.0000
  Cl  Cl4       1.0  0.1722794273735317  0.0986578190398433  0.8832089619758178  1.0000
  O   O1        1.0  0.7398532726048683  0.5014343429844033  0.9528155146023422  1.0000
  O   O2        1.0  0.26014704765266555  0.49856617020900973  0.04718505165399732  1.0000
  O   O3        1.0  0.4608306240961824  0.682377495774645  0.5458526187238347  1.0000
  O   O4        1.0  0.539168491707805  0.3176230073434638  0.4541491923046762  1.0000
