data_image0
_chemical_formula_structural       Cu2H30C26S2N2O8
_chemical_formula_sum              "Cu2 H30 C26 S2 N2 O8"
_cell_length_a       4.824626096108253
_cell_length_b       11.632179418618117
_cell_length_c       12.341948610293912
_cell_angle_alpha    96.07825309109771
_cell_angle_beta     89.99925596064739
_cell_angle_gamma    90.00033289827387

_space_group_name_H-M_alt    "P 1"
_space_group_IT_number       1

loop_
  _space_group_symop_operation_xyz
  'x, y, z'

loop_
  _atom_site_type_symbol
  _atom_site_label
  _atom_site_symmetry_multiplicity
  _atom_site_fract_x
  _atom_site_fract_y
  _atom_site_fract_z
  _atom_site_occupancy
  Cu  Cu1       1.0  0.738464735200928  0.9086088305905732  0.9261157052126237  1.0000
  Cu  Cu2       1.0  0.23845934424285525  0.0913951589102453  0.07387996153742188  1.0000
  H   H1        1.0  0.4076788149412423  0.6347971273634557  0.05529499593288282  1.0000
  H   H2        1.0  0.9076901442283755  0.36519846689895996  0.9447119273658299  1.0000
  H   H3        1.0  0.07283723370647979  0.6050752635268283  0.1088537034947308  1.0000
  H   H4        1.0  0.5728591050795231  0.3949249229968715  0.891156169164212  1.0000
  H   H5        1.0  0.1543788491038853  0.7485719033963105  0.07527928672342199  1.0000
  H   H6        1.0  0.654387121358127  0.2514215385082395  0.9247221926261844  1.0000
  H   H7        1.0  0.0310639180298935  0.46511244530044143  0.7893969614747078  1.0000
  H   H8        1.0  0.5310010693234304  0.5348746900319625  0.2106142041417485  1.0000
  H   H9        1.0  0.6821901462637924  0.5881651941505269  0.5907741964370246  1.0000
  H   H10       1.0  0.18215940625284327  0.41183868053744993  0.4092257897124013  1.0000
  H   H11       1.0  0.3059957969787561  0.44477280769775973  0.615463552328606  1.0000
  H   H12       1.0  0.8059459990523266  0.5552226128835044  0.3845422385133332  1.0000
  H   H13       1.0  0.931973476688995  0.7491427643867183  0.6457553941394423  1.0000
  H   H14       1.0  0.43194432269817895  0.2508667544042922  0.35423988026381176  1.0000
  H   H15       1.0  0.27067868746381407  0.891568818552578  0.7082839344858911  1.0000
  H   H16       1.0  0.770644164842757  0.1084360954701395  0.2917108571788987  1.0000
  H   H17       1.0  0.8779964442221624  0.9585493868884428  0.601527379912902  1.0000
  H   H18       1.0  0.3779565117860031  0.04144532093915391  0.3984714972566223  1.0000
  H   H19       1.0  0.7869364371653801  0.0631537155530424  0.7105979673758326  1.0000
  H   H20       1.0  0.2869195059788794  0.936837367042401  0.28940260937298495  1.0000
  H   H21       1.0  0.3421806933917466  0.05122722546075661  0.5853216132440265  1.0000
  H   H22       1.0  0.842145986883878  0.9487907769210223  0.4146757928775599  1.0000
  H   H23       1.0  0.2540692449422295  0.16028684072102098  0.6908637704856417  1.0000
  H   H24       1.0  0.7540696887689363  0.83972496946928  0.30912938407239204  1.0000
  H   H25       1.0  0.6114665513089433  0.24474067247476938  0.6249523242518009  1.0000
  H   H26       1.0  0.11145857024087041  0.755262203485664  0.3750503414046875  1.0000
  H   H27       1.0  0.7632274698378083  0.3546643972113656  0.5539185298292323  1.0000
  H   H28       1.0  0.2632196183083194  0.6453344610762385  0.44607324363676065  1.0000
  H   H29       1.0  0.9169489433536596  0.3187785719054189  0.6773605158295622  1.0000
  H   H30       1.0  0.4169354405680182  0.6812309203396438  0.322634830533758  1.0000
  C   C1        1.0  0.1861095045597878  0.6557354819075841  0.05303391685116309  1.0000
  C   C2        1.0  0.6861225239253982  0.3442580038450557  0.9469706501703782  1.0000
  C   C3        1.0  0.24178277673249224  0.6152616338736931  0.8576727745668362  1.0000
  C   C4        1.0  0.7417635774049315  0.38473110410100736  0.1423265769922253  1.0000
  C   C5        1.0  0.1951187626836344  0.5262345663628452  0.7755856191613048  1.0000
  C   C6        1.0  0.6950628430969061  0.4737597538628435  0.2244311430137671  1.0000
  C   C7        1.0  0.5551345437048241  0.5951190390315092  0.6643427594661873  1.0000
  C   C8        1.0  0.055081325367780196  0.40487852251470724  0.3356669307588334  1.0000
  C   C9        1.0  0.34839646748282854  0.5159125322385378  0.6780986943950538  1.0000
  C   C10       1.0  0.848333246114336  0.4840691337232884  0.3219046569867743  1.0000
  C   C11       1.0  0.6072684636799508  0.6885596522724385  0.7452653218284908  1.0000
  C   C12       1.0  0.10724149800655168  0.3114354507094603  0.2547325119845283  1.0000
  C   C13       1.0  0.44506158918238736  0.7028208866451847  0.8432897264896723  1.0000
  C   C14       1.0  0.9450489133343892  0.2971799762242071  0.156713502947774  1.0000
  C   C15       1.0  0.8209212075018683  0.7683607746887448  0.7233863501641622  1.0000
  C   C16       1.0  0.32089855173312287  0.2316433513739184  0.27661135129825  1.0000
  C   C17       1.0  0.2132975818029479  0.014281755035952403  0.8482894529175551  1.0000
  C   C18       1.0  0.7132578276696933  0.9857265279503618  0.15170273058694755  1.0000
  C   C19       1.0  0.09687420044495099  0.9399058411075812  0.7494301728263081  1.0000
  C   C20       1.0  0.5968465854995343  0.06009443379521432  0.2505674357537018  1.0000
  C   C21       1.0  0.9626125921579813  0.0171223690935136  0.6692454610658203  1.0000
  C   C22       1.0  0.4625845672336908  0.9828750880668834  0.33075165817137986  1.0000
  C   C23       1.0  0.16768395088619312  0.0998904112554442  0.625067343835596  1.0000
  C   C24       1.0  0.6676706086924683  0.9001169112708068  0.37492901870858464  1.0000
  C   C25       1.0  0.8075155584001407  0.2837857139076547  0.6032088431308296  1.0000
  C   C26       1.0  0.30751041463870615  0.7162201114263239  0.3967907206945753  1.0000
  S   S1        1.0  0.027134486041418895  0.18301833314110635  0.5217667423969132  1.0000
  S   S2        1.0  0.5271350789106748  0.8169835506435347  0.47823056867086666  1.0000
  N   N1        1.0  0.8899458677755945  0.8609469669250275  0.7855339718456166  1.0000
  N   N2        1.0  0.3899177494629171  0.13905294927069892  0.2144653829242387  1.0000
  O   O1        1.0  0.43340631127290397  0.0684957165297746  0.8432884919646213  1.0000
  O   O2        1.0  0.9334049766139498  0.9315060392781974  0.1567019234996323  1.0000
  O   O3        1.0  0.0630958618102042  0.017642888909442395  0.9369552758692521  1.0000
  O   O4        1.0  0.5630901571720414  0.982367731389438  0.0630354649630789  1.0000
  O   O5        1.0  0.4614435870085671  0.791175926067147  0.9178258122649722  1.0000
  O   O6        1.0  0.9614404397557407  0.20882757163543894  0.08217436635561629  1.0000
  O   O7        1.0  0.0714655219778777  0.6204140431113103  0.9463029699197134  1.0000
  O   O8        1.0  0.5714596176324137  0.379574058851624  0.05369999176261331  1.0000
