data_image0
_chemical_formula_structural       Cd2H8C14N12O4
_chemical_formula_sum              "Cd2 H8 C14 N12 O4"
_cell_length_a       3.575574868727844
_cell_length_b       11.465660070507724
_cell_length_c       12.005216758071384
_cell_angle_alpha    70.78052581578109
_cell_angle_beta     82.82550589480967
_cell_angle_gamma    87.40357743457658

_space_group_name_H-M_alt    "P 1"
_space_group_IT_number       1

loop_
  _space_group_symop_operation_xyz
  'x, y, z'

loop_
  _atom_site_type_symbol
  _atom_site_label
  _atom_site_symmetry_multiplicity
  _atom_site_fract_x
  _atom_site_fract_y
  _atom_site_fract_z
  _atom_site_occupancy
  Cd  Cd1       1.0  0.31515828399467694  0.5006289952926649  0.365812220714176  1.0000
  Cd  Cd2       1.0  0.6848403514689494  0.49937109312734407  0.6341879705127484  1.0000
  H   H1        1.0  0.11067521012174099  0.5243928044135586  0.09147371917101313  1.0000
  H   H2        1.0  0.8893234099048826  0.4756072785535822  0.9085273072885515  1.0000
  H   H3        1.0  0.7269917925346191  0.9982792026005428  0.4035995980946937  1.0000
  H   H4        1.0  0.27300969080015847  0.0017199679462506993  0.5963999424978895  1.0000
  H   H5        1.0  0.6828999580758791  0.9579700149507249  0.2128402530637175  1.0000
  H   H6        1.0  0.3171014842848905  0.0420319265241815  0.78715843264078  1.0000
  H   H7        1.0  0.43955002687155803  0.1318585794605198  0.0409185617605132  1.0000
  H   H8        1.0  0.5604542479233598  0.8681424386882952  0.9590803085422905  1.0000
  C   C1        1.0  0.21549227504571886  0.4307976656961614  0.1281317491146297  1.0000
  C   C2        1.0  0.784509179194053  0.5692024230404655  0.8718683417479056  1.0000
  C   C3        1.0  0.42384113768851256  0.2673145975976681  0.2513030870154083  1.0000
  C   C4        1.0  0.5761575132121164  0.7326854962752096  0.7486962689788755  1.0000
  C   C5        1.0  0.6301365290624331  0.0713938589170979  0.32853475211920374  1.0000
  C   C6        1.0  0.3698620927431904  0.9286071531456132  0.6714651541450182  1.0000
  C   C7        1.0  0.6035026458145368  0.04744501708564291  0.221484857246466  1.0000
  C   C8        1.0  0.39649600508609234  0.9525550767872348  0.7785144987478105  1.0000
  C   C9        1.0  0.47561383715638067  0.1386616315877447  0.127292182100355  1.0000
  C   C10       1.0  0.5243876034253886  0.8613393807915842  0.8727076237994781  1.0000
  C   C11       1.0  0.8085272644688998  0.2786661978760065  0.5403606069470187  1.0000
  C   C12       1.0  0.19146855043958064  0.7213329611318147  0.4596408048396298  1.0000
  C   C13       1.0  0.8758627632134616  0.7228385176122599  0.189270552225537  1.0000
  C   C14       1.0  0.12413587225016441  0.27716157080774917  0.8107296390013801  1.0000
  N   N1        1.0  0.24798916649467626  0.3522649591931427  0.06624857529285318  1.0000
  N   N2        1.0  0.7520122740870931  0.6477360531861862  0.933751230606987  1.0000
  N   N3        1.0  0.3182175332799346  0.38482928494827473  0.23945855419257364  1.0000
  N   N4        1.0  0.6817839209598303  0.6151708037883522  0.7605415366699617  1.0000
  N   N5        1.0  0.5454598783918526  0.1799201727410988  0.3439836162707053  1.0000
  N   N6        1.0  0.45454158950591506  0.8200789923528262  0.6560167595545252  1.0000
  N   N7        1.0  0.3826171488837389  0.248291960457351  0.1444892513475153  1.0000
  N   N8        1.0  0.617384289919023  0.7517081228264006  0.8555116747476604  1.0000
  N   N9        1.0  0.7693190727409982  0.3889009032827245  0.48943080720726334  1.0000
  N   N10       1.0  0.23067959003863342  0.6110973378518735  0.5105699539450584  1.0000
  N   N11       1.0  0.8348183911386045  0.6224911590100675  0.2646327890393963  1.0000
  N   N12       1.0  0.1651802425460218  0.37750800031437143  0.7353685223828634  1.0000
  O   O1        1.0  0.8530268273669745  0.17210075645905226  0.5930802962952768  1.0000
  O   O2        1.0  0.14696901663651118  0.8278974843589284  0.40692056522142656  1.0000
  O   O3        1.0  0.9204781745328602  0.8225799984342075  0.11416595516320173  1.0000
  O   O4        1.0  0.07952047458876878  0.17741916634309263  0.8858345210264177  1.0000
