data_image0
_chemical_formula_structural       Zn2H32C44N6O8
_chemical_formula_sum              "Zn2 H32 C44 N6 O8"
_cell_length_a       9.940478993050453
_cell_length_b       10.82581389262822
_cell_length_c       15.39066385945397
_cell_angle_alpha    84.86496958577524
_cell_angle_beta     89.25846128806762
_cell_angle_gamma    88.76133329617215

_space_group_name_H-M_alt    "P 1"
_space_group_IT_number       1

loop_
  _space_group_symop_operation_xyz
  'x, y, z'

loop_
  _atom_site_type_symbol
  _atom_site_label
  _atom_site_symmetry_multiplicity
  _atom_site_fract_x
  _atom_site_fract_y
  _atom_site_fract_z
  _atom_site_occupancy
  Zn  Zn1       1.0  0.650562486572646  0.506149641019441  0.49700997626386817  1.0000
  Zn  Zn2       1.0  0.3494212685172259  0.4938560895811933  0.5030279042318213  1.0000
  H   H1        1.0  0.4747241546539911  0.8063922674346528  0.0720716789100422  1.0000
  H   H2        1.0  0.5253525050249694  0.19360533286787523  0.927945868076037  1.0000
  H   H3        1.0  0.5516377632167035  0.8730740108234656  0.8506427915007249  1.0000
  H   H4        1.0  0.37784210057279927  0.8883905225653805  0.8706575665452971  1.0000
  H   H5        1.0  0.49373690462898184  0.9296878024949887  0.949536935012901  1.0000
  H   H6        1.0  0.44840677861940054  0.1269227210689436  0.14936460678280375  1.0000
  H   H7        1.0  0.5063233091342029  0.07032293115508989  0.05047031237206309  1.0000
  H   H8        1.0  0.6222120964878642  0.1116525873779466  0.1293500492811432  1.0000
  H   H9        1.0  0.2214840445207358  0.8264681649207475  0.4618248988451228  1.0000
  H   H10       1.0  0.17199968901801552  0.9822670302238877  0.4305726698344826  1.0000
  H   H11       1.0  0.2660492032251086  0.8959282727015181  0.3568632126015742  1.0000
  H   H12       1.0  0.7785367610639184  0.1735177207054832  0.5381662976608723  1.0000
  H   H13       1.0  0.7339589826255165  0.10410623372357013  0.6431431785495221  1.0000
  H   H14       1.0  0.8280086139068248  0.017727076998411903  0.5694552372849131  1.0000
  H   H15       1.0  0.34912627157854814  0.26118346338506626  0.3899714597188435  1.0000
  H   H16       1.0  0.27408243328365967  0.1300167462784785  0.3514779599908096  1.0000
  H   H17       1.0  0.21374120236439612  0.18916182135699702  0.4485558685098069  1.0000
  H   H18       1.0  0.650879107112985  0.7388112210506037  0.6100336922292158  1.0000
  H   H19       1.0  0.7862621832319688  0.8108329691590515  0.5514447418860369  1.0000
  H   H20       1.0  0.7259258658000222  0.869980655259191  0.6485302866278957  1.0000
  H   H21       1.0  0.24052086461840366  0.3046335738308273  0.5974605203729481  1.0000
  H   H22       1.0  0.1452681422069375  0.35874512329576913  0.6853581069684082  1.0000
  H   H23       1.0  0.0828066382908617  0.23878016371661906  0.626514169635186  1.0000
  H   H24       1.0  0.7594262565417297  0.695330069961571  0.4025127646955795  1.0000
  H   H25       1.0  0.9171235062823939  0.761238794099732  0.3735006472908182  1.0000
  H   H26       1.0  0.8547710904979979  0.6412630629851535  0.31463510527717625  1.0000
  H   H27       1.0  0.2477771590595524  0.6491747022684818  0.37650962286222966  1.0000
  H   H28       1.0  0.16758787931175337  0.5496316625564646  0.3097930140399043  1.0000
  H   H29       1.0  0.09466792209804  0.6976290510898124  0.324983746501168  1.0000
  H   H30       1.0  0.7523076919044345  0.35065796168160546  0.6234758315602349  1.0000
  H   H31       1.0  0.9054081010491475  0.30260051768191687  0.6751612697165115  1.0000
  H   H32       1.0  0.8321033965908814  0.45051387797082737  0.6901403162439195  1.0000
  C   C1        1.0  0.47305154007831623  0.7358244449515824  0.4910287941350973  1.0000
  C   C2        1.0  0.5269424711657111  0.26417597550771177  0.5090021379246963  1.0000
  C   C3        1.0  0.5255424075960492  0.48773515325108724  0.328739702977252  1.0000
  C   C4        1.0  0.4744361169574631  0.5122792152430266  0.671285431589176  1.0000
  C   C5        1.0  0.5094196178395691  0.39903790954198837  0.8189620863374356  1.0000
  C   C6        1.0  0.4905796654858037  0.6009574574444088  0.1810508687700647  1.0000
  C   C7        1.0  0.4840254591204457  0.5116424192794966  0.7693583996016925  1.0000
  C   C8        1.0  0.5159807068684544  0.4883575123382969  0.23065883210670524  1.0000
  C   C9        1.0  0.4651855673465804  0.6214072969112934  0.8111292525354017  1.0000
  C   C10       1.0  0.5348467611186295  0.3785917616676073  0.18889240439307287  1.0000
  C   C11       1.0  0.4786018733524529  0.6220550386070586  0.9033030897953225  1.0000
  C   C12       1.0  0.5214454955427216  0.37794602638718544  0.09671642092012428  1.0000
  C   C13       1.0  0.49714614587656314  0.504608995943542  0.9535145000393966  1.0000
  C   C14       1.0  0.502916419357824  0.4953895405811082  0.0464991911801391  1.0000
  C   C15       1.0  0.5107203226387328  0.3930835823102539  0.9113747804425996  1.0000
  C   C16       1.0  0.489325203730978  0.6069130197494131  0.08863781689432669  1.0000
  C   C17       1.0  0.47500818190884814  0.7340795897034624  0.9480222731549616  1.0000
  C   C18       1.0  0.5250270763472146  0.2659233523426181  0.05199332203078199  1.0000
  C   C19       1.0  0.478132654276081  0.7225285646903289  0.0375858165965681  1.0000
  C   C20       1.0  0.5219208525926292  0.27746987751812213  0.9624292370356  1.0000
  C   C21       1.0  0.381827338832288  0.9561923108939399  0.46297622616638273  1.0000
  C   C22       1.0  0.6181727971454123  0.043807614729757895  0.5370397447228115  1.0000
  C   C23       1.0  0.40338809032250833  0.08448596294039852  0.46085570833901807  1.0000
  C   C24       1.0  0.5966109531592565  0.9155167212959369  0.5391607813992607  1.0000
  C   C25       1.0  0.5189764926821924  0.1275641874193738  0.500464136735566  1.0000
  C   C26       1.0  0.481025647069771  0.8724357003839955  0.4995537727926944  1.0000
  C   C27       1.0  0.06777898574272713  0.4190868169285694  0.558327960931784  1.0000
  C   C28       1.0  0.9322043404946216  0.5809360856824385  0.4416908672592754  1.0000
  C   C29       1.0  0.0722496921479205  0.5599248311351702  0.4337160679938704  1.0000
  C   C30       1.0  0.9277368955183936  0.4401219902101304  0.5663099909217661  1.0000
  C   C31       1.0  0.5320482312078029  0.28837828016656175  0.7768120812157733  1.0000
  C   C32       1.0  0.46793803810045637  0.7116140809991408  0.2232063064177652  1.0000
  C   C33       1.0  0.423828495903912  0.7283586669060469  0.7563126675697089  1.0000
  C   C34       1.0  0.5761796911582878  0.27164023117637026  0.2437091519082698  1.0000
  C   C35       1.0  0.47414613405263856  0.86262371140986  0.902091812558602  1.0000
  C   C36       1.0  0.5258999958360705  0.137385813447132  0.09792273387542849  1.0000
  C   C37       1.0  0.2530511884011588  0.912794142572352  0.4260280019809173  1.0000
  C   C38       1.0  0.7469560101772715  0.08720596638291768  0.5739827156717183  1.0000
  C   C39       1.0  0.3055076169815153  0.17134531842149409  0.4103823711223597  1.0000
  C   C40       1.0  0.6944976391184384  0.8286530075741323  0.5896251988693706  1.0000
  C   C41       1.0  0.13869294165880322  0.325642239412133  0.6201111109022363  1.0000
  C   C42       1.0  0.8612802138973238  0.6743542224583267  0.37988895951745855  1.0000
  C   C43       1.0  0.14937354359619806  0.6183295112869375  0.3574289272764517  1.0000
  C   C44       1.0  0.8505973521340381  0.3817365839130176  0.6426001670376207  1.0000
  N   N1        1.0  0.8622220018679628  0.5184406972365068  0.506926245679949  1.0000
  N   N2        1.0  0.13776708794824802  0.48159157124367613  0.4930901275151953  1.0000
  N   N3        1.0  0.5528639556279559  0.1960147328549624  0.7445005528660289  1.0000
  N   N4        1.0  0.44718539045275213  0.8039883369440942  0.2555136460426012  1.0000
  N   N5        1.0  0.3833729232549318  0.8105926832343259  0.7086977024357494  1.0000
  N   N6        1.0  0.616636702610741  0.18939018176021702  0.2913353076171674  1.0000
  O   O1        1.0  0.5838181762894195  0.6813520171924452  0.4728277620391167  1.0000
  O   O2        1.0  0.41617874477666567  0.3186532653840715  0.5271951098757127  1.0000
  O   O3        1.0  0.6385650648877147  0.3202717963417214  0.49962884022454546  1.0000
  O   O4        1.0  0.36143002945353697  0.6797246991397616  0.5004107293995403  1.0000
  O   O5        1.0  0.6422526106948255  0.49635823698632464  0.3581754452896462  1.0000
  O   O6        1.0  0.3577259923846938  0.5036188047752148  0.6418600042121055  1.0000
  O   O7        1.0  0.5859088596025899  0.5193849556325815  0.630252827934406  1.0000
  O   O8        1.0  0.41407739364683493  0.4806396001053272  0.36977434697094935  1.0000
