data_image0
_chemical_formula_structural       Dy2CuH16C32N4O26
_chemical_formula_sum              "Dy2 Cu1 H16 C32 N4 O26"
_cell_length_a       9.806252852962665
_cell_length_b       10.270655015390213
_cell_length_c       11.018740737038659
_cell_angle_alpha    69.91518872525266
_cell_angle_beta     86.13465970850923
_cell_angle_gamma    71.15058254761509

_space_group_name_H-M_alt    "P 1"
_space_group_IT_number       1

loop_
  _space_group_symop_operation_xyz
  'x, y, z'

loop_
  _atom_site_type_symbol
  _atom_site_label
  _atom_site_symmetry_multiplicity
  _atom_site_fract_x
  _atom_site_fract_y
  _atom_site_fract_z
  _atom_site_occupancy
  Dy  Dy1       1.0  0.4030430145705706  0.40786423345113587  0.4166739497201633  1.0000
  Dy  Dy2       1.0  0.5969578661460772  0.5921364328250718  0.5833232809724151  1.0000
  Cu  Cu1       1.0  0.5000009825291797  0.9999999082215183  0.5000006725925132  1.0000
  H   H1        1.0  0.9176282157004535  0.3648027533988199  0.4821160566761121  1.0000
  H   H2        1.0  0.08237095358711598  0.6352000875574363  0.5178842157994694  1.0000
  H   H3        1.0  0.8140550690696103  0.9656821765094676  0.6663341671616791  1.0000
  H   H4        1.0  0.18593898988334698  0.03432066158236321  0.3336673166860251  1.0000
  H   H5        1.0  0.25628095803623546  0.9546184260536777  0.6504167333263383  1.0000
  H   H6        1.0  0.7437117602830339  0.04537894461563501  0.3495856568335327  1.0000
  H   H7        1.0  0.45821520258774473  0.3756161516308866  0.9765662716305812  1.0000
  H   H8        1.0  0.5417839664261949  0.6243866928154346  0.023433092204449286  1.0000
  H   H9        1.0  0.34594013262417883  0.9922349505454094  0.20105048584587593  1.0000
  H   H10       1.0  0.6540662055434653  0.007764599907176301  0.7989522206211676  1.0000
  H   H11       1.0  0.293340669951661  0.15183259293015539  0.7851789884210587  1.0000
  H   H12       1.0  0.7066605702681343  0.8481636859706045  0.214822335390501  1.0000
  H   H13       1.0  0.13408543689579483  0.5650069638551188  0.24215755567906433  1.0000
  H   H14       1.0  0.86591853632747  0.4349871472205963  0.7578388485220843  1.0000
  H   H15       1.0  0.22490357211926684  0.6741018656830351  0.18291680794366982  1.0000
  H   H16       1.0  0.7751034699316078  0.32589221360670717  0.8170875923834654  1.0000
  C   C1        1.0  0.09795495998206147  0.1678010277631899  0.5581886935931023  1.0000
  C   C2        1.0  0.9020442227867914  0.8321985305454122  0.4418126194170497  1.0000
  C   C3        1.0  0.9506267905799957  0.24731204731929068  0.5341334558232376  1.0000
  C   C4        1.0  0.04937102349808234  0.7526886228223619  0.4658630478677423  1.0000
  C   C5        1.0  0.8483110671480956  0.17466218846868742  0.5706219240719435  1.0000
  C   C6        1.0  0.15168503440638406  0.8253406703132742  0.42937398683984174  1.0000
  C   C7        1.0  0.8918546720560626  0.024505865967547915  0.6391559730759723  1.0000
  C   C8        1.0  0.10813938498149146  0.9754969965547393  0.36083915028789443  1.0000
  C   C9        1.0  0.03756668930488863  0.9501466221510598  0.6716959995942487  1.0000
  C   C10       1.0  0.962427022805315  0.04985733113875312  0.32829970574741196  1.0000
  C   C11       1.0  0.14271386358959148  0.017993400843508305  0.6291556496093591  1.0000
  C   C12       1.0  0.8572819067924438  0.9820072625682672  0.37084279245534896  1.0000
  C   C13       1.0  0.2031288850350279  0.2466823805969653  0.5018377520499868  1.0000
  C   C14       1.0  0.7968689295903104  0.753318282564557  0.4981605689220884  1.0000
  C   C15       1.0  0.6939450531176662  0.255047169635681  0.5285737337995116  1.0000
  C   C16       1.0  0.3060530791988327  0.7449589715436745  0.4714210154850705  1.0000
  C   C17       1.0  0.38112098691828317  0.271406415606485  0.8683896098383598  1.0000
  C   C18       1.0  0.6188775057222456  0.7285953277272414  0.13161195848683593  1.0000
  C   C19       1.0  0.4157529046059451  0.2878159786392446  0.9827656488650619  1.0000
  C   C20       1.0  0.5842418315413127  0.7121879500949859  0.017236356414123723  1.0000
  C   C21       1.0  0.40183594450002846  0.18794906060568212  0.10292741492983028  1.0000
  C   C22       1.0  0.5981639157367482  0.8120515848552616  0.8970753281523542  1.0000
  C   C23       1.0  0.3497936934788796  0.07453437881928694  0.10874104455285759  1.0000
  C   C24       1.0  0.6502092325755839  0.9254662732463999  0.8912596996092859  1.0000
  C   C25       1.0  0.3042923045284526  0.06790263510296769  0.994996735549698  1.0000
  C   C26       1.0  0.6957150686948597  0.9320936395569674  0.005005133624514772  1.0000
  C   C27       1.0  0.3206714124149883  0.1635505413438026  0.8740091044945543  1.0000
  C   C28       1.0  0.6793315262998615  0.8364468385444258  0.12598995428052012  1.0000
  C   C29       1.0  0.4170221629646846  0.3621760914044288  0.7381223620131152  1.0000
  C   C30       1.0  0.5829790767078505  0.6378201944764613  0.26187714451734223  1.0000
  C   C31       1.0  0.4433557793011005  0.19227538614727285  0.23013592335528438  1.0000
  C   C32       1.0  0.5566495359240092  0.8077241749006278  0.7698641177364395  1.0000
  N   N1        1.0  0.08146467315045669  0.7926870724009804  0.7486027521004956  1.0000
  N   N2        1.0  0.9185276853920356  0.20731468913383824  0.25139463629985664  1.0000
  N   N3        1.0  0.24238588045420073  0.9530671025268376  0.004489858246330424  1.0000
  N   N4        1.0  0.7576211486626504  0.04693025243042831  0.9955153188273158  1.0000
  O   O1        1.0  0.337298861522882  0.17753532451791196  0.4945560576947797  1.0000
  O   O2        1.0  0.6627003069438046  0.8224675269085397  0.5054414888591622  1.0000
  O   O3        1.0  0.16148535956682508  0.38508003240669814  0.45854629820325943  1.0000
  O   O4        1.0  0.8385138232020208  0.614919525901904  0.5414550148068997  1.0000
  O   O5        1.0  0.640804118046141  0.3888734718597748  0.5209978008304503  1.0000
  O   O6        1.0  0.35919777131087466  0.6111304769389536  0.4789983287812375  1.0000
  O   O7        1.0  0.6177545841080914  0.1925347352004537  0.4955695475026616  1.0000
  O   O8        1.0  0.38224183513754884  0.807473601599348  0.5044227917216303  1.0000
  O   O9        1.0  0.9838951453157634  0.7380551350887077  0.7895510016436729  1.0000
  O   O10       1.0  0.016099935758845198  0.2619477028779968  0.2104504216577183  1.0000
  O   O11       1.0  0.2120856095326856  0.7241283841152468  0.766865077762091  1.0000
  O   O12       1.0  0.787907105503031  0.27586902843485467  0.23312640871120746  1.0000
  O   O13       1.0  0.384228320061247  0.3364213861890662  0.6411961779513432  1.0000
  O   O14       1.0  0.6157753090555645  0.6635738051839796  0.35880353414924565  1.0000
  O   O15       1.0  0.4813198561719575  0.45199219392264933  0.7368765906463464  1.0000
  O   O16       1.0  0.5186810377523442  0.5480051931959696  0.26312077194026534  1.0000
  O   O17       1.0  0.42519607758019606  0.31261260800761903  0.24488682553783994  1.0000
  O   O18       1.0  0.5748126486635741  0.6873858653874411  0.7551115432965858  1.0000
  O   O19       1.0  0.4935178334141383  0.06323725709510343  0.3144577999900661  1.0000
  O   O20       1.0  0.5064857824950195  0.9367612134355315  0.6855417802164893  1.0000
  O   O21       1.0  0.2500701896121953  0.8573386589395967  0.11323872679637498  1.0000
  O   O22       1.0  0.7499528754862367  0.14265321948784757  0.8867681445831791  1.0000
  O   O23       1.0  0.18549507142326135  0.9562954417603395  0.9062686378191174  1.0000
  O   O24       1.0  0.8144959249955619  0.043707347845959525  0.0937457486352002  1.0000
  O   O25       1.0  0.21755378706991718  0.589923501514214  0.2567683251859236  1.0000
  O   O26       1.0  0.7824457417207992  0.41007495206660155  0.7432360404086324  1.0000
