data_image0
_chemical_formula_structural       Mn2H30C32N2O10
_chemical_formula_sum              "Mn2 H30 C32 N2 O10"
_cell_length_a       7.591890936350959
_cell_length_b       8.133933052200655
_cell_length_c       13.562228482374751
_cell_angle_alpha    77.9243431619039
_cell_angle_beta     75.18502685475583
_cell_angle_gamma    63.82379673652762

_space_group_name_H-M_alt    "P 1"
_space_group_IT_number       1

loop_
  _space_group_symop_operation_xyz
  'x, y, z'

loop_
  _atom_site_type_symbol
  _atom_site_label
  _atom_site_symmetry_multiplicity
  _atom_site_fract_x
  _atom_site_fract_y
  _atom_site_fract_z
  _atom_site_occupancy
  Mn  Mn1       1.0  0.2603410505080673  0.6678967019596556  0.93499432861023  1.0000
  Mn  Mn2       1.0  0.7396529345443881  0.33211433377301364  0.06500745585677235  1.0000
  H   H1        1.0  0.9005032088168645  0.6593111415170442  0.06544486267397791  1.0000
  H   H2        1.0  0.09949900970597975  0.34068477924537177  0.9345560712551446  1.0000
  H   H3        1.0  0.9523093686083824  0.8223735741203271  0.08256152271189882  1.0000
  H   H4        1.0  0.04768234453986506  0.1776306286575462  0.9174369441035992  1.0000
  H   H5        1.0  0.30643739000778686  0.11499149351175222  0.7515597357303178  1.0000
  H   H6        1.0  0.6935686407785865  0.8849963488150367  0.24843350099510522  1.0000
  H   H7        1.0  0.3722906423504568  0.13651153948267586  0.5603506724291734  1.0000
  H   H8        1.0  0.6277348792310988  0.8634543477910269  0.43964169745414955  1.0000
  H   H9        1.0  0.7002188398206003  0.13196092438415263  0.4612520310636299  1.0000
  H   H10       1.0  0.2998109402890918  0.8679925467948308  0.5387411963290987  1.0000
  H   H11       1.0  0.9481632755114547  0.1234201607107366  0.553658868689105  1.0000
  H   H12       1.0  0.051854502388145554  0.8765566256228825  0.44633772422730533  1.0000
  H   H13       1.0  0.8455337902449144  0.23860034986206097  0.8032554955874717  1.0000
  H   H14       1.0  0.15445718338852285  0.7614024457685388  0.19674397401219323  1.0000
  H   H15       1.0  0.02961480045800609  0.15878460585263807  0.6955276054140285  1.0000
  H   H16       1.0  0.970379821007988  0.841225086372873  0.3044727727995422  1.0000
  H   H17       1.0  0.42016107178349676  0.04208339607879451  0.9020835024561932  1.0000
  H   H18       1.0  0.5798300368868606  0.9579401367813959  0.09791427514696242  1.0000
  H   H19       1.0  0.6739620722470503  0.9830042273393786  0.9058608832543413  1.0000
  H   H20       1.0  0.326035519713571  0.0170111282605774  0.09413400318888417  1.0000
  H   H21       1.0  0.3542210735627976  0.5859527256870009  0.7134748384153653  1.0000
  H   H22       1.0  0.6457779281856731  0.4140473532762527  0.2865245798263487  1.0000
  H   H23       1.0  0.6205883297301042  0.5281218713972464  0.5587695767190084  1.0000
  H   H24       1.0  0.37941740243557837  0.4718781083422456  0.4412355639389745  1.0000
  H   H25       1.0  0.9684834765352547  0.6358945137901201  0.726164310405217  1.0000
  H   H26       1.0  0.03151607457910889  0.3641039781684513  0.2738440660188601  1.0000
  H   H27       1.0  0.6915361813906028  0.6807418128881652  0.8737480733871124  1.0000
  H   H28       1.0  0.3084584801525735  0.31925255645320766  0.12625850534569594  1.0000
  H   H29       1.0  0.11825098386254493  0.5541235084416556  0.554764167370344  1.0000
  H   H30       1.0  0.8817489796569262  0.44588598613461994  0.44524582293076514  1.0000
  C   C1        1.0  0.7681868421783093  0.11574086819841516  0.7038705005667509  1.0000
  C   C2        1.0  0.23181685537416274  0.8842578668585405  0.2961284277940379  1.0000
  C   C3        1.0  0.5863479299122645  0.11062338686697612  0.7601925720859695  1.0000
  C   C4        1.0  0.4136486132297106  0.8893823096224268  0.23980210673365582  1.0000
  C   C5        1.0  0.4458754494382048  0.11970645121024151  0.7070690104026198  1.0000
  C   C6        1.0  0.5541340354135473  0.8802828211879684  0.29292284736451524  1.0000
  C   C7        1.0  0.48382628577261494  0.1292216569356199  0.6002611557009275  1.0000
  C   C8        1.0  0.5161952608666879  0.8707469292136168  0.3997329222296742  1.0000
  C   C9        1.0  0.6670665339421545  0.1269065521160471  0.5447644847286313  1.0000
  C   C10       1.0  0.3329537585231391  0.8730647732255437  0.45523018475829974  1.0000
  C   C11       1.0  0.8065581817636697  0.12085914053002972  0.5969009381115029  1.0000
  C   C12       1.0  0.1934532159469454  0.879128573718255  0.4030989494340886  1.0000
  C   C13       1.0  0.9167806665384148  0.12547333026757462  0.7547031403911149  1.0000
  C   C14       1.0  0.08321769879652409  0.8745280922028298  0.24529768410402403  1.0000
  C   C15       1.0  0.03312743573096798  0.9533373582506925  0.8199006525544305  1.0000
  C   C16       1.0  0.9668642711995902  0.0466668271345014  0.18009855457790988  1.0000
  C   C17       1.0  0.5418157496752017  0.08870124149675722  0.8764808986280669  1.0000
  C   C18       1.0  0.45818047879245655  0.9113140852484423  0.1235149162190652  1.0000
  C   C19       1.0  0.47909725320715074  0.2645547770601553  0.9247507352585628  1.0000
  C   C20       1.0  0.5208932902153052  0.735454863386451  0.07525094753303556  1.0000
  C   C21       1.0  0.4939137012177922  0.5944799108870952  0.712528799623982  1.0000
  C   C22       1.0  0.5060745835830359  0.4055408310018436  0.2874696910008794  1.0000
  C   C23       1.0  0.643768561470381  0.5627496833246112  0.6263085722360273  1.0000
  C   C24       1.0  0.3562263817348211  0.43726829564954534  0.37369153575163944  1.0000
  C   C25       1.0  0.8231570032221499  0.5731798670768812  0.6282616623681321  1.0000
  C   C26       1.0  0.17683959949728495  0.42682845831819083  0.3717386021386417  1.0000
  C   C27       1.0  0.8369470131624792  0.6206411909345207  0.7189001112802273  1.0000
  C   C28       1.0  0.1630482322816746  0.37936712299847397  0.2811003413136106  1.0000
  C   C29       1.0  0.6797636526486243  0.6491710319879758  0.8021712672287862  1.0000
  C   C30       1.0  0.32022803562887237  0.35083310121917327  0.1978301608540818  1.0000
  C   C31       1.0  0.9928619817371497  0.5323505627676185  0.5435876492425179  1.0000
  C   C32       1.0  0.007143210898590182  0.46765349374077664  0.456420041454983  1.0000
  N   N1        1.0  0.5101079499326386  0.6359226436444276  0.8003437676779939  1.0000
  N   N2        1.0  0.48987875273728326  0.36409253329554053  0.19965632504594308  1.0000
  O   O1        1.0  0.12417394991120977  0.974096548470854  0.881484496893961  1.0000
  O   O2        1.0  0.8758248269816421  0.025897977005499204  0.1185163353597716  1.0000
  O   O3        1.0  0.04687194094083193  0.7957111398655956  0.8123708545015802  1.0000
  O   O4        1.0  0.9531129485248753  0.20429290124582883  0.18763299465028643  1.0000
  O   O5        1.0  0.6036853160034779  0.2795244566845341  0.9648126826816679  1.0000
  O   O6        1.0  0.39630100896803083  0.7204822769726678  0.035194343119755354  1.0000
  O   O7        1.0  0.30270013947379226  0.39097176505829623  0.9215948061108464  1.0000
  O   O8        1.0  0.6972911248104126  0.6090392303575456  0.07840809484711289  1.0000
  O   O9        1.0  0.011704375580599308  0.6969545927618841  0.05811405278751638  1.0000
  O   O10       1.0  0.9882926386967484  0.30304683563912965  0.9418862194778441  1.0000
