data_image0
_chemical_formula_structural       Cu2H28C22Br6N8
_chemical_formula_sum              "Cu2 H28 C22 Br6 N8"
_cell_length_a       4.077314270687044
_cell_length_b       8.590979056106777
_cell_length_c       20.98459677006719
_cell_angle_alpha    89.99987676747605
_cell_angle_beta     89.99974089667586
_cell_angle_gamma    92.71790752247934

_space_group_name_H-M_alt    "P 1"
_space_group_IT_number       1

loop_
  _space_group_symop_operation_xyz
  'x, y, z'

loop_
  _atom_site_type_symbol
  _atom_site_label
  _atom_site_symmetry_multiplicity
  _atom_site_fract_x
  _atom_site_fract_y
  _atom_site_fract_z
  _atom_site_occupancy
  Cu  Cu1       1.0  0.039433411011479805  0.5851329527534547  0.7500007939423983  1.0000
  Cu  Cu2       1.0  0.9605648648040628  0.4148663653560121  0.2499994295082786  1.0000
  H   H1        1.0  0.7288186241120654  0.6516347211041803  0.623274173046326  1.0000
  H   H2        1.0  0.27118529769940375  0.3483676692386766  0.12327490915181025  1.0000
  H   H3        1.0  0.2711846596348551  0.348365776600616  0.3767246207815732  1.0000
  H   H4        1.0  0.7288179860306555  0.6516328284619775  0.876725314296124  1.0000
  H   H5        1.0  0.47796313595624434  0.5254331547101572  0.5742621996762551  1.0000
  H   H6        1.0  0.5220465446133176  0.47456603809279574  0.07426164893888651  1.0000
  H   H7        1.0  0.5220424996584824  0.474566184837883  0.4257370706911203  1.0000
  H   H8        1.0  0.47795673911111436  0.5254344596064727  0.925739051049064  1.0000
  H   H9        1.0  0.8739994022376932  0.5879358909032248  0.5476958436879472  1.0000
  H   H10       1.0  0.1260063027574532  0.4120669374813488  0.04769712935132731  1.0000
  H   H11       1.0  0.1260016310194132  0.4120669302562092  0.4523034266799399  1.0000
  H   H12       1.0  0.8739923786037451  0.5879370418279422  0.9523040471771441  1.0000
  H   H13       1.0  0.03231618497353847  0.9523922289319768  0.6030171109475476  1.0000
  H   H14       1.0  0.9676833082549976  0.0476102645275915  0.10301796903849691  1.0000
  H   H15       1.0  0.9676774885068652  0.0476105707944114  0.3969812063435968  1.0000
  H   H16       1.0  0.032317319433964514  0.9523878954264975  0.896982254411647  1.0000
  H   H17       1.0  0.9694104016851383  0.9426662589872027  0.6866123009480136  1.0000
  H   H18       1.0  0.0305842603859148  0.0573310816167805  0.18661302998953036  1.0000
  H   H19       1.0  0.030585218106161  0.05733072137984859  0.3133864928848311  1.0000
  H   H20       1.0  0.9694092102935555  0.9426693875027966  0.8133871934627736  1.0000
  H   H21       1.0  0.3658471296700937  0.9895380861808787  0.6560992149586796  1.0000
  H   H22       1.0  0.634150908360418  0.010461769018675704  0.156100402018744  1.0000
  H   H23       1.0  0.6341462396426394  0.010461217643573701  0.3438991023341345  1.0000
  H   H24       1.0  0.3658471646766727  0.9895352184895004  0.8438998214330484  1.0000
  H   H25       1.0  0.5151833649524987  0.34940389966305224  0.7500002096207156  1.0000
  H   H26       1.0  0.4848102071218178  0.6505977347585484  0.24999953729102498  1.0000
  H   H27       1.0  0.40516480480698647  0.14313964458047929  0.7499998725707826  1.0000
  H   H28       1.0  0.5948283617048061  0.8568573286371546  0.2500003508831909  1.0000
  C   C1        1.0  0.730348115609523  0.5529295329359272  0.5901499194848512  1.0000
  C   C2        1.0  0.2696613928761167  0.4470718983828235  0.09015009368038561  1.0000
  C   C3        1.0  0.2696551681317843  0.4470709647674909  0.40984935088306446  1.0000
  C   C4        1.0  0.7303444455001936  0.552929771762365  0.9098506063059093  1.0000
  C   C5        1.0  0.8680343373194788  0.4160462316407845  0.6218445946652196  1.0000
  C   C6        1.0  0.13197707941076686  0.5839573537272145  0.12184429437606072  1.0000
  C   C7        1.0  0.131971399684474  0.5839542732079084  0.37815467570160183  1.0000
  C   C8        1.0  0.8680335640903748  0.4160431654051139  0.8781573586886328  1.0000
  C   C9        1.0  0.8673503317630776  0.2595130159311624  0.6010789561676049  1.0000
  C   C10       1.0  0.13265912163802798  0.7404906826444488  0.1010794708145397  1.0000
  C   C11       1.0  0.1326529519782298  0.7404874817722559  0.3989203142003036  1.0000
  C   C12       1.0  0.8673490686004682  0.25950982934260486  0.8989221822512478  1.0000
  C   C13       1.0  0.030256134350963693  0.17395982379978384  0.6465565320565717  1.0000
  C   C14       1.0  0.9697423316250279  0.8260424173136797  0.1465562278124679  1.0000
  C   C15       1.0  0.9697371335444345  0.8260383147171168  0.35344416793686423  1.0000
  C   C16       1.0  0.0302634053508157  0.1739580875281064  0.8534454252544068  1.0000
  C   C17       1.0  0.1036572552266932  0.006838060685765901  0.6485246831200869  1.0000
  C   C18       1.0  0.8963410629133575  0.9931630037173489  0.14852525033002453  1.0000
  C   C19       1.0  0.896336012685566  0.9931600778352774  0.351474587253314  1.0000
  C   C20       1.0  0.1036596661592029  0.0068363215360066  0.8514754496595743  1.0000
  C   C21       1.0  0.31159776089040037  0.26053266480555237  0.7500008156427926  1.0000
  C   C22       1.0  0.6884005149195149  0.7394666533025358  0.24999988434790055  1.0000
  Br  Br1       1.0  0.5589759904492766  0.7455808398137052  0.7500000161173477  1.0000
  Br  Br2       1.0  0.4410223867611122  0.2544196435977852  0.24999973079275864  1.0000
  Br  Br3       1.0  0.6852402164607908  0.1792312218687542  0.5249260722324609  1.0000
  Br  Br4       1.0  0.3147736897022071  0.8207752558205429  0.024928737239328307  1.0000
  Br  Br5       1.0  0.314763067302998  0.8207692758401848  0.4750712919754038  1.0000
  Br  Br6       1.0  0.6852320472680161  0.17922524901985784  0.9750733923675629  1.0000
  N   N1        1.0  0.026458560880484996  0.42740141051629615  0.6780380852245288  1.0000
  N   N2        1.0  0.9735440688557517  0.5726006624263675  0.17803704720968483  1.0000
  N   N3        1.0  0.9735398163242834  0.5725990728938156  0.3219621382255867  1.0000
  N   N4        1.0  0.026456761606034697  0.42739982812763344  0.8219636527793528  1.0000
  N   N5        1.0  0.12214111515386607  0.28068084123289333  0.6923757665229503  1.0000
  N   N6        1.0  0.8778560669911996  0.7193188037171366  0.1923751611466216  1.0000
  N   N7        1.0  0.8778522541307511  0.7193184625846526  0.3076249334699242  1.0000
  N   N8        1.0  0.12213975554482202  0.28068050724292  0.8076264919251844  1.0000
