data_image0
_chemical_formula_structural       Cd4H24C34N36
_chemical_formula_sum              "Cd4 H24 C34 N36"
_cell_length_a       9.620449397558206
_cell_length_b       11.044720235780446
_cell_length_c       12.50770035093895
_cell_angle_alpha    86.13862051758129
_cell_angle_beta     80.95307554032946
_cell_angle_gamma    79.43344976671807

_space_group_name_H-M_alt    "P 1"
_space_group_IT_number       1

loop_
  _space_group_symop_operation_xyz
  'x, y, z'

loop_
  _atom_site_type_symbol
  _atom_site_label
  _atom_site_symmetry_multiplicity
  _atom_site_fract_x
  _atom_site_fract_y
  _atom_site_fract_z
  _atom_site_occupancy
  Cd  Cd1       1.0  0.17388403111752385  0.5091069859431273  0.01992746861122188  1.0000
  Cd  Cd2       1.0  0.8261166665092932  0.49089206240035566  0.9800713430452033  1.0000
  Cd  Cd3       1.0  0.3186977723117651  0.3509095538391022  0.2885986862394105  1.0000
  Cd  Cd4       1.0  0.6813029031835499  0.649089492715092  0.7114025266611959  1.0000
  H   H1        1.0  0.05587295983398381  0.7307454500965422  0.8406620798851064  1.0000
  H   H2        1.0  0.9441308897321437  0.2692535889313988  0.15933716768152098  1.0000
  H   H3        1.0  0.07185535359199245  0.9503511959360864  0.7815541980085641  1.0000
  H   H4        1.0  0.9281455282028972  0.04964693065850411  0.2184446456509335  1.0000
  H   H5        1.0  0.18725704865933326  0.07374398524210331  0.8917873204209668  1.0000
  H   H6        1.0  0.8127447020729834  0.9262550601950109  0.10821136973395083  1.0000
  H   H7        1.0  0.28644165337708943  0.9739482306785092  0.05410743852425529  1.0000
  H   H8        1.0  0.7135611430835455  0.026050811255799996  0.9458919305438798  1.0000
  H   H9        1.0  0.6391264966241226  0.5755129575650174  0.2943783627091746  1.0000
  H   H10       1.0  0.3608727574295615  0.42448793539332996  0.7056229076867877  1.0000
  H   H11       1.0  0.7536834184876755  0.5758888079921006  0.461243067132365  1.0000
  H   H12       1.0  0.24631479721485056  0.4241120890654742  0.5387567239356555  1.0000
  H   H13       1.0  0.36957452721215145  0.730982711698701  0.6404227822904005  1.0000
  H   H14       1.0  0.6304251099320056  0.2690163389547209  0.3595769512822571  1.0000
  H   H15       1.0  0.24017923567611627  0.7444630214358771  0.48126746064339426  1.0000
  H   H16       1.0  0.7598197093215191  0.2555341880297065  0.5187332588516469  1.0000
  H   H17       1.0  0.11191145264009356  0.9290633359580769  0.31340488058209803  1.0000
  H   H18       1.0  0.8880850178104114  0.0709357228180281  0.6865960179098208  1.0000
  H   H19       1.0  0.13164505410385632  0.1447077629338906  0.3590399285523276  1.0000
  H   H20       1.0  0.8683512321785827  0.8552922175910993  0.640960937936505  1.0000
  H   H21       1.0  0.5580040584534843  0.0965417630761394  0.22369042013939117  1.0000
  H   H22       1.0  0.44199308938921433  0.9034591356949448  0.7763110932595932  1.0000
  H   H23       1.0  0.5581973628353724  0.8782776548768679  0.1746493058091048  1.0000
  H   H24       1.0  0.4417997850073193  0.1217232438942091  0.8253522075898727  1.0000
  C   C1        1.0  0.10182396720199456  0.7887075413924975  0.8880256586325501  1.0000
  C   C2        1.0  0.8981779750755552  0.2112905828921541  0.1119722631107152  1.0000
  C   C3        1.0  0.11239333003789657  0.9105914089507221  0.8550209715222152  1.0000
  C   C4        1.0  0.8876082365263473  0.08940855823528442  0.14497768662962326  1.0000
  C   C5        1.0  0.1772921297594863  0.9785226031438017  0.9161566177723158  1.0000
  C   C6        1.0  0.8227106740783158  0.0214764393869444  0.08384195088109439  1.0000
  C   C7        1.0  0.23028905092853347  0.9230167101728314  0.008624241814210612  1.0000
  C   C8        1.0  0.7697135687412031  0.0769832541067998  0.9913742948361203  1.0000
  C   C9        1.0  0.21323367142188235  0.801579280389582  0.03736742191679808  1.0000
  C   C10       1.0  0.7867678877651941  0.1984206861999951  0.962632036649772  1.0000
  C   C11       1.0  0.26465527429196106  0.7311574317402717  0.131459681662399  1.0000
  C   C12       1.0  0.7353456075029217  0.2688406948543189  0.8685391619970985  1.0000
  C   C13       1.0  0.3590087275981234  0.6647278050104717  0.27870743674112214  1.0000
  C   C14       1.0  0.6409907180007937  0.3352721667954128  0.7212930652431877  1.0000
  C   C15       1.0  0.43086707278646963  0.6627007442773734  0.3745235207065676  1.0000
  C   C16       1.0  0.5691323801896148  0.337299228124941  0.6254761808630178  1.0000
  C   C17       1.0  0.5764778060304679  0.6130401968430803  0.36887020481504607  1.0000
  C   C18       1.0  0.42352145540038344  0.38696069671168937  0.6311302651661918  1.0000
  C   C19       1.0  0.6402543886744284  0.6123144393543073  0.461551144723927  1.0000
  C   C20       1.0  0.35974486537925554  0.3876864536040401  0.5384501256720354  1.0000
  C   C21       1.0  0.42614260810528765  0.7022444553273388  0.5611563531557023  1.0000
  C   C22       1.0  0.5738580747671947  0.29775459182328495  0.43884405933017223  1.0000
  C   C23       1.0  0.35449726217400734  0.7089684048621976  0.4721175853465879  1.0000
  C   C24       1.0  0.6454998856686843  0.29103249390888664  0.5278839280523968  1.0000
  C   C25       1.0  0.33436688672414044  0.8905958489279088  0.2406747642457248  1.0000
  C   C26       1.0  0.6656302611185512  0.10940504984317564  0.7593267491532528  1.0000
  C   C27       1.0  0.21217862521930902  0.9638521738959797  0.29335349003161326  1.0000
  C   C28       1.0  0.7878197672741153  0.0361478008162734  0.7066471334542043  1.0000
  C   C29       1.0  0.22309210497937937  0.08203032025111412  0.318607862067843  1.0000
  C   C30       1.0  0.7769054259537855  0.9179687362150446  0.6813921145078295  1.0000
  C   C31       1.0  0.46242130022885436  0.0547168579849497  0.24428371477637253  1.0000
  C   C32       1.0  0.5375767239284316  0.9452849602250877  0.7557168447032936  1.0000
  C   C33       1.0  0.4628780695704721  0.934040913812531  0.21699898323837627  1.0000
  C   C34       1.0  0.53711821671196  0.06595906671245902  0.7830018832504633  1.0000
  N   N1        1.0  0.14994139049058935  0.7358972184584263  0.9775591632356393  1.0000
  N   N2        1.0  0.8500614059700455  0.26410182347588324  0.022440205832495497  1.0000
  N   N3        1.0  0.26238890843026047  0.6118005621956469  0.1479401233577136  1.0000
  N   N4        1.0  0.7376138954075487  0.3881984803350988  0.8520584452956896  1.0000
  N   N5        1.0  0.31935331978434794  0.5705654012894358  0.2390572759247362  1.0000
  N   N6        1.0  0.6806482467798889  0.4294345658965639  0.7609413822271023  1.0000
  N   N7        1.0  0.3246761883882599  0.7684994775925348  0.21392784549636448  1.0000
  N   N8        1.0  0.6753209668316061  0.23150142177497918  0.7860728674878885  1.0000
  N   N9        1.0  0.5661151943971704  0.6553864134205654  0.5557429863524703  1.0000
  N   N10       1.0  0.4338853043072391  0.3446135554789437  0.44425739413033216  1.0000
  N   N11       1.0  0.34561055201840685  0.12681057848523378  0.29388744642015036  1.0000
  N   N12       1.0  0.654385557473134  0.8731903243850779  0.7061125876508852  1.0000
  N   N13       1.0  0.9403452689938665  0.5566404997189666  0.10965101538972984  1.0000
  N   N14       1.0  0.05965648911561775  0.44335854631457744  0.8903468743504559  1.0000
  N   N15       1.0  0.9012884990229113  0.6491219790162859  0.160204063767047  1.0000
  N   N16       1.0  0.09871286861892513  0.3508789087257469  0.8397961632111687  1.0000
  N   N17       1.0  0.8651787255432668  0.7374901992396731  0.21075513705157076  1.0000
  N   N18       1.0  0.13482320197994827  0.2625079238521124  0.7892443855211438  1.0000
  N   N19       1.0  0.23933021936989016  0.32636198726898163  0.1176368775395389  1.0000
  N   N20       1.0  0.7606701025436212  0.6736389039758494  0.8823626705254666  1.0000
  N   N21       1.0  0.3142097828813207  0.2449739937299924  0.06443617132345739  1.0000
  N   N22       1.0  0.6857880497307253  0.7550287456325009  0.9355651565678681  1.0000
  N   N23       1.0  0.38574844407474984  0.1644611754135425  0.015167940559010206  1.0000
  N   N24       1.0  0.6142497568734345  0.8355397204511735  0.9848334513384669  1.0000
  N   N25       1.0  0.1063897668114748  0.379996297263702  0.3933354040936123  1.0000
  N   N26       1.0  0.8936101720115632  0.6200064362860545  0.6066656807946984  1.0000
  N   N27       1.0  0.9948701778299455  0.37332926644775455  0.36432941995332147  1.0000
  N   N28       1.0  0.0051322355402163775  0.6266716177914804  0.6356714859381185  1.0000
  N   N29       1.0  0.8834697244532496  0.36626784310323046  0.3404117019832923  1.0000
  N   N30       1.0  0.116533742022405  0.6337330382296359  0.6595890824066399  1.0000
  N   N31       1.0  0.45064590235363516  0.6740316959267929  0.8123335886402003  1.0000
  N   N32       1.0  0.5493539042042529  0.3259664317848845  0.187667777764986  1.0000
  N   N33       1.0  0.41544074689174704  0.5832217465245436  0.8550944115253143  1.0000
  N   N34       1.0  0.5845611361057126  0.4167819047506499  0.14490399711271348  1.0000
  N   N35       1.0  0.38177686181807513  0.491177726380883  0.8965036344472991  1.0000
  N   N36       1.0  0.6182227679489147  0.5088213236761163  0.10349689954008306  1.0000
