data_image0
_chemical_formula_structural       Cd2H44C48S4N8O8
_chemical_formula_sum              "Cd2 H44 C48 S4 N8 O8"
_cell_length_a       9.097138148214924
_cell_length_b       10.907442627908392
_cell_length_c       14.010323903260918
_cell_angle_alpha    73.88994985463141
_cell_angle_beta     72.99611823171072
_cell_angle_gamma    68.12792381129127

_space_group_name_H-M_alt    "P 1"
_space_group_IT_number       1

loop_
  _space_group_symop_operation_xyz
  'x, y, z'

loop_
  _atom_site_type_symbol
  _atom_site_label
  _atom_site_symmetry_multiplicity
  _atom_site_fract_x
  _atom_site_fract_y
  _atom_site_fract_z
  _atom_site_occupancy
  Cd  Cd1       1.0  0.4461614910128375  0.23373169458493231  0.4882955957731667  1.0000
  Cd  Cd2       1.0  0.5538387010949322  0.7662680795334821  0.5117052340848005  1.0000
  H   H1        1.0  0.7491323797026793  0.2333038881209006  0.5358434514957082  1.0000
  H   H2        1.0  0.25086130510068483  0.766700947803727  0.4641603634414012  1.0000
  H   H3        1.0  0.9977729712726744  0.07877033286274579  0.5997632895464519  1.0000
  H   H4        1.0  0.002223406047321017  0.921233480534674  0.4002380988208857  1.0000
  H   H5        1.0  0.012766611385757107  0.8390147115766027  0.6770065012355887  1.0000
  H   H6        1.0  0.9872336222240534  0.16098806973102595  0.3229901025885554  1.0000
  H   H7        1.0  0.7739475154618988  0.7656875391553866  0.6917492721445556  1.0000
  H   H8        1.0  0.22605499637499804  0.2343122177080587  0.3082482703582272  1.0000
  H   H9        1.0  0.159215276024284  0.19517702424074193  0.7803322803539602  1.0000
  H   H10       1.0  0.8407860642221864  0.8048227440554426  0.21966904871392498  1.0000
  H   H11       1.0  0.10710691909384448  0.1922963761567189  0.9654710119922997  1.0000
  H   H12       1.0  0.8928967032883292  0.807700366760187  0.03453054145839478  1.0000
  H   H13       1.0  0.4052948017664376  0.7771808477954563  0.011294827200991658  1.0000
  H   H14       1.0  0.5947096155100342  0.22281688989603043  0.9887027931950243  1.0000
  H   H15       1.0  0.4525485892367627  0.7789297995600034  0.8269817260860607  1.0000
  H   H16       1.0  0.547452770552816  0.22106996406075297  0.1730160315026409  1.0000
  H   H17       1.0  0.1448730245725827  0.08268980675981649  0.13160792501360422  1.0000
  H   H18       1.0  0.855129860051818  0.91730894483139  0.8683904782745915  1.0000
  H   H19       1.0  0.33649742653623355  0.9576241363000688  0.13755936543626043  1.0000
  H   H20       1.0  0.6635042864977407  0.042374626723884  0.8624428244170376  1.0000
  H   H21       1.0  0.16196078448125206  0.9102086618150903  0.15912942839874947  1.0000
  H   H22       1.0  0.8380417195384027  0.0897910969185176  0.840869542695714  1.0000
  H   H23       1.0  0.036797115207683424  0.3833418785071742  0.43464489632732045  1.0000
  H   H24       1.0  0.9632065228089812  0.6166548606693921  0.5653537999400271  1.0000
  H   H25       1.0  0.9087615093922141  0.6106479309508612  0.3395585858225303  1.0000
  H   H26       1.0  0.09123558131081919  0.3893478453675456  0.6604436903373953  1.0000
  H   H27       1.0  0.07599595648036236  0.7671641393454889  0.2626248403063371  1.0000
  H   H28       1.0  0.923998844269718  0.2328346642223664  0.7373786400624596  1.0000
  H   H29       1.0  0.3614546951523537  0.6916143240620868  0.28240125650522435  1.0000
  H   H30       1.0  0.6385412693709114  0.3083844699431921  0.7175998658901362  1.0000
  H   H31       1.0  0.7775439683826733  0.2875210445263434  0.23302597452494217  1.0000
  H   H32       1.0  0.22245585484621705  0.7124797339292214  0.7669732802517757  1.0000
  H   H33       1.0  0.8494190225650158  0.29495122208653873  0.047033619562611845  1.0000
  H   H34       1.0  0.1505804239677388  0.7050505625763462  0.9529654887245301  1.0000
  H   H35       1.0  0.7006203710600687  0.7273926376637474  0.9928550387776269  1.0000
  H   H36       1.0  0.2993805963988905  0.27260813590466876  0.007145429504852533  1.0000
  H   H37       1.0  0.628801453115969  0.7201565316651467  0.1799712835041376  1.0000
  H   H38       1.0  0.3711960660182854  0.27984426030505455  0.8200284014444108  1.0000
  H   H39       1.0  0.8021298364071612  0.6186318276916792  0.8505824523509775  1.0000
  H   H40       1.0  0.1978692256122159  0.38137096504870266  0.149417938038269  1.0000
  H   H41       1.0  0.7566650540085149  0.4668791300545577  0.8722237056155892  1.0000
  H   H42       1.0  0.24333285987216874  0.5331236685080467  0.12777618556373943  1.0000
  H   H43       1.0  0.9547825867653899  0.46098732968781053  0.8693225896698209  1.0000
  H   H44       1.0  0.04521648307122924  0.5390154611823945  0.1306763721277449  1.0000
  C   C1        1.0  0.7592758988317883  0.12925520899472787  0.5728196302545572  1.0000
  C   C2        1.0  0.24072047067096486  0.8707486062728618  0.4271831867044612  1.0000
  C   C3        1.0  0.8967567860301672  0.043382411303717595  0.6081977996039285  1.0000
  C   C4        1.0  0.10324073942852156  0.9566213962714655  0.39180408797333405  1.0000
  C   C5        1.0  0.9045136434960598  0.909735522511063  0.6511705706677233  1.0000
  C   C6        1.0  0.09548695508401292  0.0902662553945035  0.3488283225335067  1.0000
  C   C7        1.0  0.7740001383254838  0.8684725504657675  0.6585747640185816  1.0000
  C   C8        1.0  0.22599931211588847  0.1315292332620288  0.3414236299727236  1.0000
  C   C9        1.0  0.6383759582100554  0.9599522836759528  0.6204240686930335  1.0000
  C   C10       1.0  0.36162348050545756  0.040049502857101495  0.3795764681857889  1.0000
  C   C11       1.0  0.30604948558978146  0.9870630684141087  0.7935735243381006  1.0000
  C   C12       1.0  0.6939514896864196  0.012937703284137599  0.20642551535270573  1.0000
  C   C13       1.0  0.2097295933682588  0.1035224643609354  0.8318839517940404  1.0000
  C   C14       1.0  0.790272123574333  0.896476297727929  0.16811752376342076  1.0000
  C   C15       1.0  0.1821895773742526  0.10110245958146179  0.9355813820678665  1.0000
  C   C16       1.0  0.8178132916156642  0.8988962957500917  0.06441987840367594  1.0000
  C   C17       1.0  0.2516406189117503  0.9847842692106493  0.0017060131722104837  1.0000
  C   C18       1.0  0.7483649386861727  0.0152134645287774  0.9982935350254039  1.0000
  C   C19       1.0  0.3498714426311124  0.8689901560019422  0.9610899193116965  1.0000
  C   C20       1.0  0.650132962919493  0.13100758449479596  0.03890984397183668  1.0000
  C   C21       1.0  0.3773274087975054  0.8692852369214135  0.8579035772782788  1.0000
  C   C22       1.0  0.6226754680096533  0.13071351653996288  0.14209625460159  1.0000
  C   C23       1.0  0.22235951800908552  0.9842787761681674  0.11295095531317408  1.0000
  C   C24       1.0  0.7776437354942091  0.015718971085888697  0.8870490230562709  1.0000
  C   C25       1.0  0.10483661266290764  0.45399379885381563  0.39959616703163897  1.0000
  C   C26       1.0  0.895166224135025  0.5459989299431952  0.6004042596616659  1.0000
  C   C27       1.0  0.03442281821838824  0.5803654857488141  0.3455694941222589  1.0000
  C   C28       1.0  0.9655762077003874  0.4196312813921067  0.6544307767845865  1.0000
  C   C29       1.0  0.12868382958143337  0.6660663190822476  0.30326860095838987  1.0000
  C   C30       1.0  0.871313689552821  0.3339344728879538  0.6967310839901586  1.0000
  C   C31       1.0  0.28803718557831826  0.6249086338181014  0.31375719313978573  1.0000
  C   C32       1.0  0.711963018255318  0.3750911374950546  0.6862414938306715  1.0000
  C   C33       1.0  0.3515619506330268  0.49564637860841976  0.3702490274848032  1.0000
  C   C34       1.0  0.6484378584541802  0.5043513861123328  0.6297494532548813  1.0000
  C   C35       1.0  0.7009072252961771  0.5039882762142368  0.2168363268337714  1.0000
  C   C36       1.0  0.29909182258152356  0.49601150279132616  0.7831632895184344  1.0000
  C   C37       1.0  0.7631539349905127  0.3836002204898746  0.1800454682089878  1.0000
  C   C38       1.0  0.23684435558630682  0.6164015718654098  0.8199545694599094  1.0000
  C   C39       1.0  0.8027278175054064  0.3887474734475589  0.07561200301348948  1.0000
  C   C40       1.0  0.19727085367616584  0.611253311765324  0.9243874668491472  1.0000
  C   C41       1.0  0.7814716235712993  0.5119729298576061  0.006333310513056742  1.0000
  C   C42       1.0  0.2185258955629551  0.48802786211259525  0.9936663744354918  1.0000
  C   C43       1.0  0.7181620536395247  0.6306835461206429  0.04528146210793699  1.0000
  C   C44       1.0  0.2818362369372949  0.3693182462346414  0.9547185755609605  1.0000
  C   C45       1.0  0.677161972603031  0.6276455400443267  0.14993291857600613  1.0000
  C   C46       1.0  0.3228363218824128  0.3723562513758764  0.8500664047970545  1.0000
  C   C47       1.0  0.8255639836161706  0.5151943870605961  0.8939240072810222  1.0000
  C   C48       1.0  0.17443393026451307  0.48480841150201553  0.10607588389830624  1.0000
  S   S1        1.0  0.3295280036039969  0.9843182237738262  0.6634634630790828  1.0000
  S   S2        1.0  0.6704706597603264  0.0156825633092339  0.3365374353752273  1.0000
  S   S3        1.0  0.6477159854184008  0.49678807942437675  0.3507297856716676  1.0000
  S   S4        1.0  0.35228230906703567  0.5032137119958263  0.6492695377013931  1.0000
  N   N1        1.0  0.5151558443256761  0.9119143081139711  0.6220932896249138  1.0000
  N   N2        1.0  0.4848451231332831  0.08808646545445238  0.3779071786575586  1.0000
  N   N3        1.0  0.6334783127791327  0.08866657036137579  0.5777770892546172  1.0000
  N   N4        1.0  0.36651803867331273  0.9113342321064831  0.4222256679631969  1.0000
  N   N5        1.0  0.5027996293753745  0.4340276143406853  0.3921670281627955  1.0000
  N   N6        1.0  0.4972005705496444  0.5659721579075594  0.6078323731034985  1.0000
  N   N7        1.0  0.2575616519619928  0.41366717746377885  0.4119613030510649  1.0000
  N   N8        1.0  0.7424381610338316  0.5863305863218854  0.5880364633927827  1.0000
  O   O1        1.0  0.24291370124684158  0.897832782891079  0.6598648725290418  1.0000
  O   O2        1.0  0.757086110256175  0.10216799836974386  0.3401365251351862  1.0000
  O   O3        1.0  0.264305042616563  0.12650905335761556  0.6146737641784628  1.0000
  O   O4        1.0  0.7356939974438886  0.8734907275181171  0.38532728076542366  1.0000
  O   O5        1.0  0.6005948245325784  0.6364026620864535  0.36350439016284514  1.0000
  O   O6        1.0  0.39940231790554054  0.3635991360910679  0.6364951482961274  1.0000
  O   O7        1.0  0.7830604759501086  0.40004879973616164  0.3938104242648066  1.0000
  O   O8        1.0  0.21693590918712866  0.5999550117910813  0.6061895355108575  1.0000
