data_image0
_chemical_formula_structural       Cu4H16C24N16O8
_chemical_formula_sum              "Cu4 H16 C24 N16 O8"
_cell_length_a       4.891032903315747
_cell_length_b       10.537881984428829
_cell_length_c       14.387323610439848
_cell_angle_alpha    90.00069730927541
_cell_angle_beta     89.99853398067346
_cell_angle_gamma    90.36418174241572

_space_group_name_H-M_alt    "P 1"
_space_group_IT_number       1

loop_
  _space_group_symop_operation_xyz
  'x, y, z'

loop_
  _atom_site_type_symbol
  _atom_site_label
  _atom_site_symmetry_multiplicity
  _atom_site_fract_x
  _atom_site_fract_y
  _atom_site_fract_z
  _atom_site_occupancy
  Cu  Cu1       1.0  0.3657879148830574  0.0566952125707161  0.0914319310709288  1.0000
  Cu  Cu2       1.0  0.13422298587887835  0.4433017586607236  0.5914254993047123  1.0000
  Cu  Cu3       1.0  0.6342129152985834  0.9433023245836621  0.9085686285738246  1.0000
  Cu  Cu4       1.0  0.8657717234781758  0.5566976673995896  0.4085764504876508  1.0000
  H   H1        1.0  0.04292441350703769  0.7556548236567052  0.2743405165108896  1.0000
  H   H2        1.0  0.4570617620204302  0.7443423979971014  0.7743295062963822  1.0000
  H   H3        1.0  0.9570682708048182  0.2443474462909592  0.725660043190345  1.0000
  H   H4        1.0  0.5429390682134353  0.25565513914588667  0.22566966323575594  1.0000
  H   H5        1.0  0.491444255792878  0.0673979270242242  0.320731203441241  1.0000
  H   H6        1.0  0.008549426745346998  0.4326047001291824  0.8207257678046245  1.0000
  H   H7        1.0  0.5085566263921067  0.9326072018978451  0.6792686611808276  1.0000
  H   H8        1.0  0.9914718883864283  0.567398561000843  0.1792727066077617  1.0000
  H   H9        1.0  0.2837050897569142  0.9417869578592286  0.4516401285704674  1.0000
  H   H10       1.0  0.21625759759797347  0.558221695241805  0.9516330254967045  1.0000
  H   H11       1.0  0.7162835379412869  0.058220050897176585  0.5483583460005903  1.0000
  H   H12       1.0  0.7837453031350492  0.4417796408212311  0.048368229212293584  1.0000
  H   H13       1.0  0.46060223647896953  0.7229233421606479  0.4823584831002704  1.0000
  H   H14       1.0  0.0393458684228776  0.7770848473179652  0.9823520880226013  1.0000
  H   H15       1.0  0.5393781933983348  0.2770808076099698  0.5176392964373377  1.0000
  H   H16       1.0  0.9606406495320884  0.22291266874531587  0.017651251909434503  1.0000
  C   C1        1.0  0.8732980339798219  0.8001765229981501  0.3106711770422379  1.0000
  C   C2        1.0  0.6266898600558122  0.699819960417585  0.8106598592555017  1.0000
  C   C3        1.0  0.12669259269660668  0.19982384600129408  0.6893307727720668  1.0000
  C   C4        1.0  0.3733130212641028  0.3001785287133458  0.18933931027197556  1.0000
  C   C5        1.0  0.782430257533356  0.9214401519630471  0.28741761351351147  1.0000
  C   C6        1.0  0.7175594098167648  0.5785597462628189  0.7874092905303839  1.0000
  C   C7        1.0  0.217564471367389  0.07856212100089267  0.7125829461788553  1.0000
  C   C8        1.0  0.28244961831634186  0.42144064984887564  0.21258848886628096  1.0000
  C   C9        1.0  0.5662701526485633  0.9733553999230933  0.3379424266528304  1.0000
  C   C10       1.0  0.933721871096587  0.5266481823293814  0.8379359334922966  1.0000
  C   C11       1.0  0.43372868499976386  0.02664972597131049  0.6620560478654907  1.0000
  C   C12       1.0  0.06628921459360268  0.4733541147476216  0.1620625409602212  1.0000
  C   C13       1.0  0.45052221791235775  0.9037515822814229  0.4103000656408042  1.0000
  C   C14       1.0  0.049445594640751295  0.5962526004272277  0.9102926655113703  1.0000
  C   C15       1.0  0.5494684349354984  0.0962525825648441  0.5896970187961655  1.0000
  C   C16       1.0  0.9505572996212377  0.4037477866584353  0.0897078941371205  1.0000
  C   C17       1.0  0.5489550547207428  0.7830807861348745  0.4285526688359553  1.0000
  C   C18       1.0  0.9510056379255473  0.7169261428551221  0.9285442468257371  1.0000
  C   C19       1.0  0.4510314959550356  0.21692147473550694  0.571444415610344  1.0000
  C   C20       1.0  0.0489890649082341  0.2830723342392146  0.0714583980187342  1.0000
  C   C21       1.0  0.9088779773387826  0.9949732220599256  0.20875717499209398  1.0000
  C   C22       1.0  0.591131867742483  0.5050187653210684  0.7087492945303778  1.0000
  C   C23       1.0  0.09112900615320998  0.0050271710468833995  0.7912419945260536  1.0000
  C   C24       1.0  0.4088893889410271  0.49497595505820163  0.2912484847878787  1.0000
  N   N1        1.0  0.7555226694830779  0.7324571676938233  0.37911358106600795  1.0000
  N   N2        1.0  0.7444539473952074  0.7675404284018369  0.8791060145148535  1.0000
  N   N3        1.0  0.24446590623789174  0.2675422492892067  0.6208848934714338  1.0000
  N   N4        1.0  0.2555468762631606  0.2324561597865653  0.1208952401820014  1.0000
  N   N5        1.0  0.47646328952600925  0.8899822036835157  0.034957670422812705  1.0000
  N   N6        1.0  0.023502079129301  0.610018629334341  0.5349624343552648  1.0000
  N   N7        1.0  0.5235272982197329  0.1100124714744979  0.9650428892536593  1.0000
  N   N8        1.0  0.9764783181316614  0.38998077560638916  0.46503882044286365  1.0000
  N   N9        1.0  0.5012899525042727  0.7888873169859563  0.0745419586025236  1.0000
  N   N10       1.0  0.9987076239945905  0.711122366071258  0.5745455816562383  1.0000
  N   N11       1.0  0.49871293520833143  0.21111212113943614  0.9254599911543834  1.0000
  N   N12       1.0  0.0012870983828818998  0.28887895792670537  0.42545567308822996  1.0000
  N   N13       1.0  0.5249218723581278  0.6909535293512332  0.1106065009315884  1.0000
  N   N14       1.0  0.9751036696496981  0.8090577389101623  0.6106014716294795  1.0000
  N   N15       1.0  0.47509123808998044  0.30904592390105984  0.8894010092314345  1.0000
  N   N16       1.0  0.0248972062731738  0.19094644098897354  0.3893921374816358  1.0000
  O   O1        1.0  0.7699608668339336  0.0790195453775766  0.16934817232156257  1.0000
  O   O2        1.0  0.7300464524506933  0.4209583868002581  0.6693525250116679  1.0000
  O   O3        1.0  0.23003993764636022  0.9209741958274619  0.8306447416870099  1.0000
  O   O4        1.0  0.269970636645226  0.5790249399832205  0.3306570702310906  1.0000
  O   O5        1.0  0.1565713044703188  0.9647547519746733  0.18809002809302908  1.0000
  O   O6        1.0  0.3434500029297779  0.5352448942044317  0.6880746650581244  1.0000
  O   O7        1.0  0.8434377104334414  0.03524374624493729  0.8119140068019844  1.0000
  O   O8        1.0  0.6565774201889666  0.46475458004213965  0.3119182488604011  1.0000
