data_image0
_chemical_formula_structural       AlH9C27N10O12
_chemical_formula_sum              "Al1 H9 C27 N10 O12"
_cell_length_a       4.023681306980751
_cell_length_b       18.116298832299005
_cell_length_c       18.08439995748416
_cell_angle_alpha    121.67215032031982
_cell_angle_beta     103.43142711268756
_cell_angle_gamma    91.20579983220127

_space_group_name_H-M_alt    "P 1"
_space_group_IT_number       1

loop_
  _space_group_symop_operation_xyz
  'x, y, z'

loop_
  _atom_site_type_symbol
  _atom_site_label
  _atom_site_symmetry_multiplicity
  _atom_site_fract_x
  _atom_site_fract_y
  _atom_site_fract_z
  _atom_site_occupancy
  Al  Al1       1.0  0.04869799085420111  0.0063148792351554964  0.5003770236610237  1.0000
  H   H1        1.0  0.27873064964663286  0.29182860233292723  0.39466273291019854  1.0000
  H   H2        1.0  0.6337702393943232  0.08229064173504949  0.8896997894030534  1.0000
  H   H3        1.0  0.41888036699280207  0.6018579548165378  0.18771257731732044  1.0000
  H   H4        1.0  0.6718754247276877  0.3333713912559162  0.9158227303255443  1.0000
  H   H5        1.0  0.6893675758578436  0.011320732082921788  0.7322147590786726  1.0000
  H   H6        1.0  0.46409167260136286  0.7657363390707275  0.2763048913664505  1.0000
  H   H7        1.0  0.3620987468056071  0.6010212499480756  0.4223671927337731  1.0000
  H   H8        1.0  0.5143758673820429  0.0694754574885437  0.1676758163943148  1.0000
  H   H9        1.0  0.3108971729808587  0.20942433922921572  0.4710177133173446  1.0000
  C   C1        1.0  0.4714338252345696  0.051576087765766894  0.4164127186399256  1.0000
  C   C2        1.0  0.6872747768302432  0.0862251043297562  0.6375240987473063  1.0000
  C   C3        1.0  0.4818749059170314  0.8734423597810447  0.445920131767977  1.0000
  C   C4        1.0  0.3330062969695291  0.22486827167440987  0.3616671996605945  1.0000
  C   C5        1.0  0.39216939099839004  0.1859581942329882  0.2761523035485496  1.0000
  C   C6        1.0  0.6563217923983372  0.12124944804051549  0.8607676966658104  1.0000
  C   C7        1.0  0.6423353885699541  0.2115795748372165  0.912051737475359  1.0000
  C   C8        1.0  0.38703036464582413  0.591065315556101  0.2990212294507302  1.0000
  C   C9        1.0  0.4144339191720617  0.6379302338684809  0.25807958709234663  1.0000
  C   C10       1.0  0.674394982650618  0.26298198561317315  0.8762332304912944  1.0000
  C   C11       1.0  0.7114734710677693  0.22296971881959848  0.7897890719100289  1.0000
  C   C12       1.0  0.7135847986878472  0.1323559855844465  0.7363193452160601  1.0000
  C   C13       1.0  0.6906609900532529  0.08198574424455532  0.7735044487170342  1.0000
  C   C14       1.0  0.4417137890422039  0.72881233072237  0.3073955571537893  1.0000
  C   C15       1.0  0.4456381859086349  0.7755365810291507  0.3988501694273054  1.0000
  C   C16       1.0  0.4129003649743693  0.7275518661379508  0.43820186609990225  1.0000
  C   C17       1.0  0.3793592652584437  0.6363292947532954  0.3894654038027027  1.0000
  C   C18       1.0  0.46585091359243336  0.1002829460249899  0.2335271758410045  1.0000
  C   C19       1.0  0.4820985147939324  0.055284500202894486  0.2766820405702077  1.0000
  C   C20       1.0  0.4261295933010345  0.0931289962310018  0.362136672176149  1.0000
  C   C21       1.0  0.35053875767147946  0.17886124972667966  0.4039962199515514  1.0000
  C   C22       1.0  0.3634598602972687  0.3663840684992508  0.2425985291619241  1.0000
  C   C23       1.0  0.49935929662093764  0.2393451816205143  0.11553664646946518  1.0000
  C   C24       1.0  0.3959128500739837  0.23560208437152846  0.23275224158158633  1.0000
  C   C25       1.0  0.38946739840988437  0.4955287106056332  0.24797095144734266  1.0000
  C   C26       1.0  0.49327257738860897  0.3776487299284027  0.12340710152617615  1.0000
  C   C27       1.0  0.5875019784335789  0.25335077442391446  0.0025021578307046566  1.0000
  N   N1        1.0  0.4514619479065941  0.32775894398425726  0.16047410753381536  1.0000
  N   N2        1.0  0.47858702063108877  0.19451504073062148  0.1540336222218315  1.0000
  N   N3        1.0  0.32490648245039466  0.31798002200668657  0.2766659622943378  1.0000
  N   N4        1.0  0.3224856623046646  0.4506716628571467  0.28469971287774587  1.0000
  N   N5        1.0  0.4684401872804428  0.46253533845909084  0.16929966912825015  1.0000
  N   N6        1.0  0.5684978426301868  0.202654879677162  0.035824097804578466  1.0000
  N   N7        1.0  0.56048511124213  0.3391711312193806  0.043599395279137754  1.0000
  N   N8        1.0  0.570900250426476  0.9660305912826246  0.23072180763791272  1.0000
  N   N9        1.0  0.4419392560741215  0.7730822505954648  0.5359278114014002  1.0000
  N   N10       1.0  0.7616645480024004  0.2787736142310422  0.7548344318625196  1.0000
  O   O1        1.0  0.29446885787243815  0.9145330929165708  0.4972800516559842  1.0000
  O   O2        1.0  0.214568261430891  0.0028237568662418996  0.4069689615444503  1.0000
  O   O3        1.0  0.4219517911963634  0.09492292516588921  0.5899862790153207  1.0000
  O   O4        1.0  0.6934037580083867  0.9073636700716179  0.42500204478199777  1.0000
  O   O5        1.0  0.9053881821468224  0.0373142686647725  0.6073710988346974  1.0000
  O   O6        1.0  0.7678086091655558  0.07720459771523018  0.4742913798504135  1.0000
  O   O7        1.0  0.5316454532172729  0.9213193122166955  0.26239668153186807  1.0000
  O   O8        1.0  0.6806572695653087  0.9420657987867996  0.164303681934882  1.0000
  O   O9        1.0  0.6522462693369063  0.8426475920640683  0.588113631326692  1.0000
  O   O10       1.0  0.2586749374883156  0.7369566956667059  0.558321438850534  1.0000
  O   O11       1.0  0.9049867061072091  0.249286585332321  0.6933117236304511  1.0000
  O   O12       1.0  0.6646953722963997  0.35078775855870253  0.7898186499961639  1.0000
