data_image0
_chemical_formula_structural       H24Pb2C30N4O8
_chemical_formula_sum              "H24 Pb2 C30 N4 O8"
_cell_length_a       8.886369590530489
_cell_length_b       8.885653936408005
_cell_length_c       11.263511922473072
_cell_angle_alpha    106.8482666055149
_cell_angle_beta     106.8705896724475
_cell_angle_gamma    105.25909850333096

_space_group_name_H-M_alt    "P 1"
_space_group_IT_number       1

loop_
  _space_group_symop_operation_xyz
  'x, y, z'

loop_
  _atom_site_type_symbol
  _atom_site_label
  _atom_site_symmetry_multiplicity
  _atom_site_fract_x
  _atom_site_fract_y
  _atom_site_fract_z
  _atom_site_occupancy
  H   H1        1.0  0.6801960005857097  0.024201452778612496  0.022121539792443887  1.0000
  H   H2        1.0  0.0030041653104433226  0.658378655747029  0.9780304768607662  1.0000
  H   H3        1.0  0.9081351098083771  0.7531515741089977  0.47817194063158996  1.0000
  H   H4        1.0  0.27505787517322494  0.4295296766881407  0.5219339793729176  1.0000
  H   H5        1.0  0.6879541533449257  0.19375818742207682  0.8797373295339455  1.0000
  H   H6        1.0  0.3146024200133155  0.8088429668302978  0.12025603058894056  1.0000
  H   H7        1.0  0.058410371202782606  0.0647029391392024  0.6204234593041136  1.0000
  H   H8        1.0  0.4441604392772546  0.4375403358779195  0.3792667827240592  1.0000
  H   H9        1.0  0.6678285177537902  0.7542343213986128  0.5708872870073591  1.0000
  H   H10       1.0  0.18293064347714963  0.09699654717070422  0.42881391961841314  1.0000
  H   H11       1.0  0.3471569887528504  0.933172654738094  0.9289062717890174  1.0000
  H   H12       1.0  0.0042616540667382045  0.41835760470416256  0.07123403531182497  1.0000
  H   H13       1.0  0.6853242147509064  0.20580464627148837  0.6639145761006019  1.0000
  H   H14       1.0  0.5419841746272028  0.0219434893684181  0.33614291516474276  1.0000
  H   H15       1.0  0.2724457840163836  0.2922136617714699  0.8359960878503543  1.0000
  H   H16       1.0  0.4558012264245478  0.4360280583078194  0.16356544072016282  1.0000
  H   H17       1.0  0.7526113096941743  0.059186210816420684  0.5665080271014986  1.0000
  H   H18       1.0  0.4925032191796604  0.18649669256998178  0.43340236454255177  1.0000
  H   H19       1.0  0.4366530443891606  0.24243938275489538  0.9334810174831532  1.0000
  H   H20       1.0  0.30880483251250723  0.5031258282644516  0.06622592927826083  1.0000
  H   H21       1.0  0.38772863093592497  0.9960157309496297  0.5448070345335054  1.0000
  H   H22       1.0  0.45093882880777875  0.8433317323393084  0.45526760198925587  1.0000
  H   H23       1.0  0.09334833168001917  0.20139294867706772  0.9549730858388301  1.0000
  H   H24       1.0  0.2459962766270891  0.13833141846292557  0.044827688744604195  1.0000
  Pb  Pb1       1.0  0.8693686764452907  0.3692444067916015  0.5002845408249924  1.0000
  Pb  Pb2       1.0  0.6195099379749535  0.6192279794293609  0.00015389178393826597  1.0000
  C   C1        1.0  0.6787110426378078  0.9705893298243282  0.9212120153889954  1.0000
  C   C2        1.0  0.050049668735681604  0.7578229403007201  0.0788349515526363  1.0000
  C   C3        1.0  0.007550147715996023  0.8001708117545262  0.5789943481294131  1.0000
  C   C4        1.0  0.22123466851751064  0.4282533934829686  0.4211089133895456  1.0000
  C   C5        1.0  0.6821636525825526  0.0637818820382492  0.8408579677486898  1.0000
  C   C6        1.0  0.2234059000624527  0.8417980201573484  0.15912122879861096  1.0000
  C   C7        1.0  0.09148069175442687  0.9735152103560124  0.6592824102422197  1.0000
  C   C8        1.0  0.31420343273511264  0.43187323365592073  0.34060892274820276  1.0000
  C   C9        1.0  0.6751370327835461  0.986899340907975  0.7108395089646891  1.0000
  C   C10       1.0  0.2761831728533579  0.964788493617  0.28901592654082003  1.0000
  C   C11       1.0  0.21467585947456064  0.0263789650740236  0.7891400885335854  1.0000
  C   C12       1.0  0.23714094837437472  0.4254558607196444  0.21080047564128523  1.0000
  C   C13       1.0  0.6716425915684782  0.8208572939013122  0.670181253575002  1.0000
  C   C14       1.0  0.15060873142696352  0.0017223348130101998  0.3295683426947633  1.0000
  C   C15       1.0  0.25164845998602914  0.9008019613996083  0.8297251409300654  1.0000
  C   C16       1.0  0.07110983580868442  0.4219816832791281  0.1704255766160117  1.0000
  C   C17       1.0  0.670914605530335  0.7364620414749294  0.7564316469844028  1.0000
  C   C18       1.0  0.9802004077073861  0.9145940090054339  0.24337628628008895  1.0000
  C   C19       1.0  0.16446927574641987  0.7303604117808503  0.7435817820547682  1.0000
  C   C20       1.0  0.9869513999140411  0.4209467330078169  0.25677962549289646  1.0000
  C   C21       1.0  0.6712293109054955  0.5576479404566044  0.7147863556841259  1.0000
  C   C22       1.0  0.8429829348946356  0.9564788824072038  0.2850532079609137  1.0000
  C   C23       1.0  0.206497799942305  0.5932070735911381  0.7853254939352253  1.0000
  C   C24       1.0  0.8080939029823427  0.42118867964011736  0.21509823161113667  1.0000
  C   C25       1.0  0.6601781142291259  0.0705515628326054  0.6125487892219182  1.0000
  C   C26       1.0  0.45789099891710805  0.0481101286113699  0.3873992946026448  1.0000
  C   C27       1.0  0.2983136794704038  0.2081178591607227  0.8873672536560376  1.0000
  C   C28       1.0  0.32046716252212804  0.4107693237236917  0.1123188959426997  1.0000
  C   C29       1.0  0.4805882435118107  0.9809034005232531  0.5000262249055537  1.0000
  C   C30       1.0  0.2309198890700657  0.23109068886104464  0.9998831792961411  1.0000
  N   N1        1.0  0.6715558582782677  0.8104496917869143  0.8794562604998005  1.0000
  N   N2        1.0  0.9314692084515527  0.7922001799978844  0.12050852792624765  1.0000
  N   N3        1.0  0.04204373338342294  0.6815788535249183  0.6206756643790285  1.0000
  N   N4        1.0  0.0611225689639738  0.421311345178239  0.3796899020035339  1.0000
  O   O1        1.0  0.657549555928739  0.4864226831797822  0.5953655577374589  1.0000
  O   O2        1.0  0.8909367259001968  0.062171915942634784  0.4043920268539338  1.0000
  O   O3        1.0  0.3124831251352447  0.6413521817175719  0.9046154818601905  1.0000
  O   O4        1.0  0.7368929655236586  0.40764995622703976  0.09569668472082064  1.0000
  O   O5        1.0  0.6869481827458017  0.49304614061413327  0.8032907735294612  1.0000
  O   O6        1.0  0.6900425769598472  0.8836037789277497  0.19667892894531022  1.0000
  O   O7        1.0  0.13361540260148536  0.44019972537871155  0.6970977392342091  1.0000
  O   O8        1.0  0.7433712684468787  0.43662492400174807  0.30350063659305687  1.0000
