data_image0
_chemical_formula_structural       K4Gd4H8C8S4O36
_chemical_formula_sum              "K4 Gd4 H8 C8 S4 O36"
_cell_length_a       6.58876655894021
_cell_length_b       8.561329354031763
_cell_length_c       13.512702459362561
_cell_angle_alpha    90.00027486352555
_cell_angle_beta     93.94372061378422
_cell_angle_gamma    90.00012063679391

_space_group_name_H-M_alt    "P 1"
_space_group_IT_number       1

loop_
  _space_group_symop_operation_xyz
  'x, y, z'

loop_
  _atom_site_type_symbol
  _atom_site_label
  _atom_site_symmetry_multiplicity
  _atom_site_fract_x
  _atom_site_fract_y
  _atom_site_fract_z
  _atom_site_occupancy
  K   K1        1.0  0.7647536067938602  0.6480291461063176  0.8024646048539739  1.0000
  K   K2        1.0  0.7352359051621279  0.14803745018357972  0.6975392534833136  1.0000
  K   K3        1.0  0.23524422769420988  0.3519801427234129  0.19752749678862364  1.0000
  K   K4        1.0  0.2647665003523798  0.8519683345522397  0.3024611410011531  1.0000
  Gd  Gd1       1.0  0.754663061120489  0.7449798315363766  0.0846108953635536  1.0000
  Gd  Gd2       1.0  0.7453390354566949  0.24497928242492864  0.41539229210533085  1.0000
  Gd  Gd3       1.0  0.24533782240901297  0.25502011298077326  0.9153887083378935  1.0000
  Gd  Gd4       1.0  0.25466032737408983  0.7550206620936494  0.5846080009538428  1.0000
  H   H1        1.0  0.8863708822170439  0.9605033417665043  0.9171250425533871  1.0000
  H   H2        1.0  0.6136242252656743  0.4605059215561624  0.582872555165956  1.0000
  H   H3        1.0  0.1136254372994756  0.039495434703660195  0.0828744090221321  1.0000
  H   H4        1.0  0.386375135017758  0.5394975270799593  0.4171247776357348  1.0000
  H   H5        1.0  0.6473715770021471  0.9653376761515986  0.9140898263772359  1.0000
  H   H6        1.0  0.8526235510088327  0.46534181439216843  0.5859129670891933  1.0000
  H   H7        1.0  0.3526247418799642  0.034663436401572795  0.0859088851362202  1.0000
  H   H8        1.0  0.14737580990900767  0.534659298160932  0.41408510577456087  1.0000
  C   C1        1.0  0.6334774462594694  0.041284621423677906  0.21895887472646797  1.0000
  C   C2        1.0  0.8665376657382567  0.5412704720053725  0.2810441250863819  1.0000
  C   C3        1.0  0.36652039715305307  0.9587176591877199  0.781043587825643  1.0000
  C   C4        1.0  0.1334753878413011  0.4587248003482572  0.7189551442061489  1.0000
  C   C5        1.0  0.8659387129326676  0.03633584917785979  0.2313701065391812  1.0000
  C   C6        1.0  0.6340763864679602  0.536328256957539  0.26863731803243246  1.0000
  C   C7        1.0  0.1340606511688804  0.9636605912175893  0.768631666645966  1.0000
  C   C8        1.0  0.3659351489757441  0.4636728556232086  0.7313656008900794  1.0000
  S   S1        1.0  0.2345453605792613  0.6640385820049773  0.9741006968171534  1.0000
  S   S2        1.0  0.2654555354250263  0.16404213343863458  0.5259024868381844  1.0000
  S   S3        1.0  0.7654524796379222  0.33596136250665154  0.025898065402479603  1.0000
  S   S4        1.0  0.7345423067050947  0.8359566430384717  0.4740984955768683  1.0000
  O   O1        1.0  0.43940556672948367  0.7353057810907444  0.9931464417626615  1.0000
  O   O2        1.0  0.06059404657163011  0.23530887383958543  0.5068591367009817  1.0000
  O   O3        1.0  0.5605922734915795  0.264696499506698  0.0068523204606663  1.0000
  O   O4        1.0  0.9394083595695337  0.7646899026415995  0.4931419978381656  1.0000
  O   O5        1.0  0.7682121369435961  0.9057688544553247  0.9420446177216278  1.0000
  O   O6        1.0  0.7317873546619751  0.40577259596719983  0.5579551792712679  1.0000
  O   O7        1.0  0.23178418257098343  0.09422875397193309  0.057954833852036806  1.0000
  O   O8        1.0  0.2682120056214572  0.5942308526689146  0.44204215353042303  1.0000
  O   O9        1.0  0.16410126500473152  0.6867425503914363  0.8692817442357494  1.0000
  O   O10       1.0  0.3358981869861495  0.18674349686332192  0.6307236806860247  1.0000
  O   O11       1.0  0.8358965745819164  0.31326206628902054  0.13071627792550802  1.0000
  O   O12       1.0  0.6640996545095633  0.8132576156967987  0.3692765616669719  1.0000
  O   O13       1.0  0.09328877520523803  0.7395127175440736  0.0409431113345775  1.0000
  O   O14       1.0  0.4067155079916277  0.23951625016558623  0.4590612495147469  1.0000
  O   O15       1.0  0.9067105857087228  0.2604860589232204  0.9590549615254815  1.0000
  O   O16       1.0  0.5932808134455954  0.7604860304416621  0.5409404222635815  1.0000
  O   O17       1.0  0.24428361344641297  0.4928024214688947  0.9978873937441296  1.0000
  O   O18       1.0  0.2557122879446396  0.9928035178251805  0.5021151463699455  1.0000
  O   O19       1.0  0.7557157461929123  0.5071975230357283  0.002109198986268295  1.0000
  O   O20       1.0  0.7442885968633846  0.007197594740453902  0.49788593746486504  1.0000
  O   O21       1.0  0.5496202056469243  0.950905896287239  0.1531156279888677  1.0000
  O   O22       1.0  0.9503871312697711  0.45089813730984935  0.3468794818635389  1.0000
  O   O23       1.0  0.450376115150064  0.0490952162743099  0.8468853037218483  1.0000
  O   O24       1.0  0.0496137541707284  0.549099471129864  0.6531223420314805  1.0000
  O   O25       1.0  0.9531300257411603  0.951566212683616  0.1695334245391464  1.0000
  O   O26       1.0  0.5468773242263154  0.4515623816139893  0.3304742685249948  1.0000
  O   O27       1.0  0.0468647743571111  0.0484348998793678  0.8304681965293028  1.0000
  O   O28       1.0  0.45312203732400036  0.5484352268131973  0.669524544398975  1.0000
  O   O29       1.0  0.5414888257748771  0.1312754579312241  0.27455698454014055  1.0000
  O   O30       1.0  0.9585235424659686  0.6312645346032326  0.2254461983785561  1.0000
  O   O31       1.0  0.45850901954282364  0.868720982474038  0.7254476982  1.0000
  O   O32       1.0  0.04148342767265941  0.36872606558171134  0.7745550882717468  1.0000
  O   O33       1.0  0.9544753414756997  0.1111364841469182  0.302246977791043  1.0000
  O   O34       1.0  0.545532393967882  0.6111387333911082  0.19775376915534795  1.0000
  O   O35       1.0  0.0455209799556968  0.8888622923316235  0.6977546939817433  1.0000
  O   O36       1.0  0.4544745755537889  0.388864715262983  0.8022467774495042  1.0000
