data_image0
_chemical_formula_structural       Li4H16C24N4O8
_chemical_formula_sum              "Li4 H16 C24 N4 O8"
_cell_length_a       5.354934019338742
_cell_length_b       11.014554126083798
_cell_length_c       14.266373610725703
_cell_angle_alpha    89.9989990094795
_cell_angle_beta     90.00089684795965
_cell_angle_gamma    108.54677859693687

_space_group_name_H-M_alt    "P 1"
_space_group_IT_number       1

loop_
  _space_group_symop_operation_xyz
  'x, y, z'

loop_
  _atom_site_type_symbol
  _atom_site_label
  _atom_site_symmetry_multiplicity
  _atom_site_fract_x
  _atom_site_fract_y
  _atom_site_fract_z
  _atom_site_occupancy
  Li  Li1       1.0  0.926150951268383  0.7380459385505277  0.018917348069045697  1.0000
  Li  Li2       1.0  0.07386117938357734  0.261954899996745  0.5189082274567198  1.0000
  Li  Li3       1.0  0.5674868278188966  0.7606104288559694  0.15305948391284113  1.0000
  Li  Li4       1.0  0.43252778821841525  0.23941699583671291  0.6530683317088375  1.0000
  H   H1        1.0  0.40768125682829764  0.9356003960251233  0.3527469764801622  1.0000
  H   H2        1.0  0.592326563696936  0.06439747197948983  0.8527493232589476  1.0000
  H   H3        1.0  0.3579192911083595  0.08470734063721612  0.4797258383551578  1.0000
  H   H4        1.0  0.6420609681813118  0.9152759195657509  0.9797284817741101  1.0000
  H   H5        1.0  0.8026186317131944  0.18793391640021898  0.3254827293271063  1.0000
  H   H6        1.0  0.19740521658830826  0.812078131425992  0.825484646532388  1.0000
  H   H7        1.0  0.8138125162568028  0.03508451548896121  0.1958972327574457  1.0000
  H   H8        1.0  0.18620341018156966  0.9649355126729661  0.6959040717386741  1.0000
  H   H9        1.0  0.9113370642833727  0.4368098739147114  0.3184593210352276  1.0000
  H   H10       1.0  0.08861389493502989  0.5631578472939298  0.8184820658407757  1.0000
  H   H11       1.0  0.8559048888408755  0.5843547447402245  0.19135649721045667  1.0000
  H   H12       1.0  0.1440696662243895  0.4156133568219504  0.6913934533472029  1.0000
  H   H13       1.0  0.32251538829383014  0.5372905803471114  0.4776135850757867  1.0000
  H   H14       1.0  0.6774938240153076  0.46271520647785286  0.9776399477711875  1.0000
  H   H15       1.0  0.306111284887301  0.6887722895557149  0.3477379035241199  1.0000
  H   H16       1.0  0.6939169531693776  0.31123944517977264  0.8477747798955518  1.0000
  C   C1        1.0  0.14181451928784858  0.8858330412311307  0.18672810751782265  1.0000
  C   C2        1.0  0.8581975332990125  0.11419081955806122  0.6867237545978853  1.0000
  C   C3        1.0  0.11521138180519593  0.9747001942340675  0.2641865053609748  1.0000
  C   C4        1.0  0.8848008346802061  0.025301436836166116  0.7641947075850621  1.0000
  C   C5        1.0  0.26848165579631483  0.9887294381147317  0.3453729069690539  1.0000
  C   C6        1.0  0.7314998885956924  0.011258401070747902  0.8453845385959153  1.0000
  C   C7        1.0  0.24239788498830706  0.07211313760570454  0.4151737658688717  1.0000
  C   C8        1.0  0.757617109075838  0.9278902900707567  0.9151811733880564  1.0000
  C   C9        1.0  0.9332093487066685  0.12944484014654026  0.3292651446468895  1.0000
  C   C10       1.0  0.06679128400059389  0.8705551654324707  0.8292549564559265  1.0000
  C   C11       1.0  0.9415931027140088  0.045946840816625915  0.256788298612058  1.0000
  C   C12       1.0  0.05844343851646287  0.9540725821645214  0.7568014889616065  1.0000
  C   C13       1.0  0.649466631210089  0.38765806681036014  0.48554963950748226  1.0000
  C   C14       1.0  0.3505006482159843  0.612328463789872  0.9855656677555229  1.0000
  C   C15       1.0  0.6215000593805157  0.47638918941353836  0.4081109269418519  1.0000
  C   C16       1.0  0.37850715461959805  0.5236038008438799  0.9081388160776526  1.0000
  C   C17       1.0  0.7722249699785664  0.4898754466624595  0.3263379019761317  1.0000
  C   C18       1.0  0.22774882578532651  0.5100993701522685  0.8263720331310863  1.0000
  C   C19       1.0  0.7429661869884326  0.5723736353875638  0.2564112966868848  1.0000
  C   C20       1.0  0.2570078307943504  0.42760633596249426  0.7564509059119969  1.0000
  C   C21       1.0  0.448164869234617  0.5477137937782574  0.41617713437123877  1.0000
  C   C22       1.0  0.5518410052975042  0.4522761749325143  0.9162049493899429  1.0000
  C   C23       1.0  0.43676590364376017  0.6303980675346141  0.3435302008874999  1.0000
  C   C24       1.0  0.5632413342962082  0.3695924380228775  0.8435654872800098  1.0000
  N   N1        1.0  0.07907630934167288  0.14272738951111563  0.40758992156434454  1.0000
  N   N2        1.0  0.9209286335545669  0.8572787186314843  0.9075796589865561  1.0000
  N   N3        1.0  0.5794585580614822  0.642781891116208  0.26451749507913996  1.0000
  N   N4        1.0  0.42054244250291356  0.35721281987037673  0.7645506478757014  1.0000
  O   O1        1.0  0.9486428623176336  0.8447761836606348  0.13024914136821047  1.0000
  O   O2        1.0  0.05137839655541403  0.15526505941124216  0.6302546061617986  1.0000
  O   O3        1.0  0.3537309866941102  0.8591970559016746  0.18382912204575763  1.0000
  O   O4        1.0  0.6462626799430281  0.14082068098349512  0.6838413128831248  1.0000
  O   O5        1.0  0.455356215185084  0.34536320136263043  0.5415088705060995  1.0000
  O   O6        1.0  0.5446787845783732  0.6546576158160422  0.04150968935945799  1.0000
  O   O7        1.0  0.8627928400806866  0.3623474729405701  0.4888484405727097  1.0000
  O   O8        1.0  0.1371558779014066  0.637625278262668  0.9888880307680806  1.0000
