data_image0
_chemical_formula_structural       Mg4H36C44N8Cl4O24
_chemical_formula_sum              "Mg4 H36 C44 N8 Cl4 O24"
_cell_length_a       6.221013684
_cell_length_b       12.353248087823694
_cell_length_c       16.988
_cell_angle_alpha    104.65369968164438
_cell_angle_beta     90.0
_cell_angle_gamma    90.0

_space_group_name_H-M_alt    "P 1"
_space_group_IT_number       1

loop_
  _space_group_symop_operation_xyz
  'x, y, z'

loop_
  _atom_site_type_symbol
  _atom_site_label
  _atom_site_symmetry_multiplicity
  _atom_site_fract_x
  _atom_site_fract_y
  _atom_site_fract_z
  _atom_site_occupancy
  Mg  Mg1       1.0  0.3015585715274867  0.6043277955724093  0.9061314750842866  1.0000
  Mg  Mg2       1.0  0.8015590791617982  0.8956720655738835  0.09386891142803928  1.0000
  Mg  Mg3       1.0  0.6984408362860605  0.39567239076515653  0.09386903011464648  1.0000
  Mg  Mg4       1.0  0.1984419361068248  0.1043272840435705  0.9061302625479327  1.0000
  H   H1        1.0  0.39031741824408783  0.3236491968548307  0.6540692833063771  1.0000
  H   H2        1.0  0.8903211407885435  0.1763513146740081  0.3459307519283498  1.0000
  H   H3        1.0  0.6096803821143979  0.6763501527626232  0.3459316566220352  1.0000
  H   H4        1.0  0.109681481935155  0.8236463615032221  0.6540692915065803  1.0000
  H   H5        1.0  0.2411745217437442  0.9786747008105793  0.539720083391792  1.0000
  H   H6        1.0  0.7411734219229871  0.5213251603357207  0.4602797144697205  1.0000
  H   H7        1.0  0.7588281009799474  0.0213246488068819  0.4602796792349935  1.0000
  H   H8        1.0  0.2588259858905673  0.47867251584150955  0.5397191516635828  1.0000
  H   H9        1.0  0.9851143738458319  0.18796080624566971  0.7743408394431694  1.0000
  H   H10       1.0  0.4851170811216647  0.312040542003281  0.22565934971288465  1.0000
  H   H11       1.0  0.0148850339677224  0.8120402168120079  0.22566158562953118  1.0000
  H   H12       1.0  0.5148839341469582  0.6879588076141729  0.774339235612274  1.0000
  H   H13       1.0  0.5496917662783929  0.9187806016622629  0.6130198401861049  1.0000
  H   H14       1.0  0.0496896511890057  0.5812200962041487  0.386978934295115  1.0000
  H   H15       1.0  0.45030924899023017  0.0812195846753099  0.3869806650128282  1.0000
  H   H16       1.0  0.9503081491694729  0.4187792534133052  0.6130196510300436  1.0000
  H   H17       1.0  0.7732308984260357  0.0583946967053279  0.706719330232545  1.0000
  H   H18       1.0  0.2732303907917242  0.4416066515436227  0.2932796816218897  1.0000
  H   H19       1.0  0.22677011684258733  0.9416054896322379  0.293280586315575  1.0000
  H   H20       1.0  0.7267674095667545  0.5583918613537193  0.7067187497819345  1.0000
  H   H21       1.0  0.48014522258363  0.6238484758150733  0.0473649132978124  1.0000
  H   H22       1.0  0.9801441227628728  0.8761538954915622  0.9526359349785166  1.0000
  H   H23       1.0  0.5198525777748486  0.3761533839627234  0.9526358997437895  1.0000
  H   H24       1.0  0.0198536775956057  0.1238471275661226  0.04736354684012409  1.0000
  H   H25       1.0  0.38883534466759784  0.7423230235338707  0.048650656330302355  1.0000
  H   H26       1.0  0.8888358523019093  0.7576785110526529  0.9513482720722521  1.0000
  H   H27       1.0  0.6111624556908808  0.2576779995238141  0.9513488254883385  1.0000
  H   H28       1.0  0.1111635555116379  0.2423233487251366  0.04865077501690959  1.0000
  H   H29       1.0  0.4458051598781836  0.47888169586983054  0.7669474130189258  1.0000
  H   H30       1.0  0.9458072749675708  0.0211196523791273  0.2330533647879491  1.0000
  H   H31       1.0  0.5541894255701507  0.521121000628078  0.23305296529319713  1.0000
  H   H32       1.0  0.05419213284598359  0.9788796972383267  0.7669463978388362  1.0000
  H   H33       1.0  0.2212179670235201  0.5169942970294201  0.7334864318208216  1.0000
  H   H34       1.0  0.7212184746578387  0.9830064008369918  0.26651293131121173  1.0000
  H   H35       1.0  0.7787782258798828  0.4830067260282647  0.266513049997819  1.0000
  H   H36       1.0  0.2787777182455713  0.0169946222206931  0.7334859618566155  1.0000
  C   C1        1.0  0.17793723920701146  0.3545810660023108  0.8815689597704475  1.0000
  C   C2        1.0  0.677937746841323  0.1454278127276609  0.11843202602680239  1.0000
  C   C3        1.0  0.8220621686065428  0.645426650816276  0.1184335193713011  1.0000
  C   C4        1.0  0.3220632684272999  0.8545765572104784  0.8815680714771685  1.0000
  C   C5        1.0  0.8089115786616219  0.5587391002007251  0.8787110471966739  1.0000
  C   C6        1.0  0.3089078561171661  0.9412615976656866  0.12129067053860607  1.0000
  C   C7        1.0  0.1910894366070011  0.4412627595770715  0.12129153179736106  1.0000
  C   C8        1.0  0.6910915516963811  0.05873775195177441  0.8787073261357392  1.0000
  C   C9        1.0  0.7219337921649256  0.2854704948062974  0.7456926985500515  1.0000
  C   C10       1.0  0.22193649944075844  0.2145308534426604  0.2543080792568233  1.0000
  C   C11       1.0  0.2780656156486288  0.7145313649714993  0.25430988044398356  1.0000
  C   C12       1.0  0.7780645158278645  0.7854684961747935  0.7456910947191486  1.0000
  C   C13       1.0  0.5962484875318594  0.2016545676194994  0.6881920327800373  1.0000
  C   C14       1.0  0.09624958735261659  0.2983476173495703  0.3118077216465451  1.0000
  C   C15       1.0  0.4037509202816949  0.7983456187180664  0.31180788376808266  1.0000
  C   C16       1.0  0.9037498204609307  0.70165005882766  0.6881917331375718  1.0000
  C   C17       1.0  0.9835953288026857  0.360733468995214  0.831592313858053  1.0000
  C   C18       1.0  0.48359642862345  0.1392662058135201  0.16840874475696668  1.0000
  C   C19       1.0  0.0164040790108615  0.639266717342359  0.1684099572933135  1.0000
  C   C20       1.0  0.516404586645173  0.8607323070838291  0.8315896866468646  1.0000
  C   C21       1.0  0.8298583257062617  0.44167777275325193  0.8278712909536239  1.0000
  C   C22       1.0  0.32985942552702596  0.0583227387755869  0.1721305102335364  1.0000
  C   C23       1.0  0.1701426895623612  0.5583224135843139  0.17213039154692913  1.0000
  C   C24       1.0  0.670141589741597  0.9416774475619789  0.8278676403621431  1.0000
  C   C25       1.0  0.5136236893704265  0.0075196036579825  0.6225093800306283  1.0000
  C   C26       1.0  0.013621574281046399  0.4924809078708563  0.3774900665532854  1.0000
  C   C27       1.0  0.4863789333532651  0.9924805826795833  0.37749053651749154  1.0000
  C   C28       1.0  0.9863762260774321  0.5075167683063739  0.622508799580018  1.0000
  C   C29       1.0  0.3404380873565671  0.0401759529589185  0.58127401617147  1.0000
  C   C30       1.0  0.8404385949908786  0.4598237218498085  0.41872527649110935  1.0000
  C   C31       1.0  0.6595629279120558  0.9598242333786474  0.4187259003766499  1.0000
  C   C32       1.0  0.1595608128226687  0.5401756277676526  0.5812733088340492  1.0000
  C   C33       1.0  0.6408955521596624  0.0868314664750329  0.6751192080049931  1.0000
  C   C34       1.0  0.1408918296152066  0.413169045053813  0.3248808272297339  1.0000
  C   C35       1.0  0.3591070705640291  0.9131695565826519  0.32488203976608077  1.0000
  C   C36       1.0  0.859105970743272  0.5868294678435291  0.675118192824911  1.0000
  C   C37       1.0  0.29975339948151  0.1544325945867087  0.5935103545930005  1.0000
  C   C38       1.0  0.7997555145708972  0.3455670802220254  0.4064901153712057  1.0000
  C   C39       1.0  0.7002476157871129  0.8455667550307524  0.4064899966845984  1.0000
  C   C40       1.0  0.2002471081528014  0.6544289225149811  0.5935090315702425  1.0000
  C   C41       1.0  0.4242765140974427  0.2351032908677055  0.6460416836601297  1.0000
  C   C42       1.0  0.9242786291868227  0.2648972206611333  0.3539583515745974  1.0000
  C   C43       1.0  0.5757245011711802  0.7648968954698603  0.3539588215388035  1.0000
  C   C44       1.0  0.0757239935368688  0.7351021289563207  0.6460414110521882  1.0000
  N   N1        1.0  0.6695677282808532  0.39365924217262466  0.7743245724752936  1.0000
  N   N2        1.0  0.1695688281016174  0.1063437795165569  0.2256765131742426  1.0000
  N   N3        1.0  0.330431679532694  0.606342617605172  0.2256780065187414  1.0000
  N   N4        1.0  0.8304321871670055  0.8936555701008969  0.7743208948492892  1.0000
  N   N5        1.0  0.9101989302102282  0.2637333429835707  0.7798173574302112  1.0000
  N   N6        1.0  0.4102016374860611  0.2362680052653801  0.2201834203766637  1.0000
  N   N7        1.0  0.089800477603319  0.736268516794226  0.22018522156382397  1.0000
  N   N8        1.0  0.5898009852376305  0.7637313443520739  0.779815164948495  1.0000
  Cl  Cl1       1.0  0.0900962493365896  0.1970994633228429  0.5405681184743327  1.0000
  Cl  Cl2       1.0  0.590096756970901  0.3028985380456604  0.4594314549963912  1.0000
  Cl  Cl3       1.0  0.9099031584769648  0.80290072301473  0.45943297537540667  1.0000
  Cl  Cl4       1.0  0.4099042582977219  0.6970991381315699  0.5405679997877257  1.0000
  O   O1        1.0  0.2865417262438541  0.441656018030308  0.9139821936375156  1.0000
  O   O2        1.0  0.7865470562433856  0.0583403098979645  0.0860170719905398  1.0000
  O   O3        1.0  0.7134544666595559  0.5583408214268104  0.08601710722526686  1.0000
  O   O4        1.0  0.2134555664803131  0.9416565295591468  0.9139804629198025  1.0000
  O   O5        1.0  0.9759583097551  0.6118909086762869  0.9096654589771802  1.0000
  O   O6        1.0  0.47595940957586447  0.8881106259102367  0.0903340580761878  1.0000
  O   O7        1.0  0.0240394906033785  0.3881109511015097  0.09033594271523529  1.0000
  O   O8        1.0  0.5240416056927586  0.1118895604273362  0.9096635038686782  1.0000
  O   O9        1.0  0.2279451665002981  0.2579532804410789  0.8868333012558409  1.0000
  O   O10       1.0  0.7279392443143209  0.2420388638866271  0.11316401746392298  1.0000
  O   O11       1.0  0.7720558487683249  0.7420410488556968  0.11316906974781198  1.0000
  O   O12       1.0  0.2720617709543021  0.7579563021302606  0.886834975556198  1.0000
  O   O13       1.0  0.3396825834726798  0.5422406530072053  0.7711916844489295  1.0000
  O   O14       1.0  0.8396846985620599  0.9577600448591994  0.22880885598472386  1.0000
  O   O15       1.0  0.6603120019756545  0.4577612067705914  0.2288073626402323  1.0000
  O   O16       1.0  0.1603147092514874  0.0422401414783664  0.7711910605633958  1.0000
  O   O17       1.0  0.35581661003142534  0.6612925376041616  0.029016997929772997  1.0000
  O   O18       1.0  0.8558171176657368  0.838709833702481  0.9709826730449294  1.0000
  O   O19       1.0  0.644182797782122  0.3387084854535232  0.9709830725396812  1.0000
  O   O20       1.0  0.1441822901478105  0.1612920260753157  0.0290163740442324  1.0000
  O   O21       1.0  0.623615410134498  0.6008980798281058  0.8883219548806806  1.0000
  O   O22       1.0  0.12361490250018649  0.8991034547584178  0.1116793281251205  1.0000
  O   O23       1.0  0.37638399767904923  0.3991012697893481  0.11167898504772467  1.0000
  O   O24       1.0  0.8763861127684365  0.100897568299267  0.8883189763918935  1.0000
