data_image0
_chemical_formula_structural       Cu12H72C168N24O48
_chemical_formula_sum              "Cu12 H72 C168 N24 O48"
_cell_length_a       18.311672864324247
_cell_length_b       18.311652557792808
_cell_length_c       26.429920104487003
_cell_angle_alpha    69.72903293103421
_cell_angle_beta     69.7289949327357
_cell_angle_gamma    59.99352302647497

_space_group_name_H-M_alt    "P 1"
_space_group_IT_number       1

loop_
  _space_group_symop_operation_xyz
  'x, y, z'

loop_
  _atom_site_type_symbol
  _atom_site_label
  _atom_site_symmetry_multiplicity
  _atom_site_fract_x
  _atom_site_fract_y
  _atom_site_fract_z
  _atom_site_occupancy
  Cu  Cu1       1.0  0.24993877969142633  0.8151503375225031  0.7087360395102493  1.0000
  Cu  Cu2       1.0  0.8151817853418991  0.22615578657645583  0.7087501223076489  1.0000
  Cu  Cu3       1.0  0.2261757250010916  0.24993151906751632  0.7087417302247233  1.0000
  Cu  Cu4       1.0  0.2500679310443701  0.2738241964598274  0.7912558166243785  1.0000
  Cu  Cu5       1.0  0.2738445896765427  0.6848154902542235  0.7912512342228979  1.0000
  Cu  Cu6       1.0  0.6848479680490697  0.25006100732233705  0.791266021819446  1.0000
  Cu  Cu7       1.0  0.75006273253544  0.18484793855764547  0.29126508663063794  1.0000
  Cu  Cu8       1.0  0.1848190820811482  0.773844515226962  0.291249916184789  1.0000
  Cu  Cu9       1.0  0.773826433875641  0.7500658972874844  0.29125755518250435  1.0000
  Cu  Cu10      1.0  0.7499348736540554  0.7261741055779823  0.20874272340618216  1.0000
  Cu  Cu11      1.0  0.7261562775276077  0.3151824830184111  0.20874936234257996  1.0000
  Cu  Cu12      1.0  0.3151535444258898  0.7499372690053435  0.20873472584349878  1.0000
  H   H1        1.0  0.3646248035812221  0.7661047944741951  0.8900607218555835  1.0000
  H   H2        1.0  0.7661891550188928  0.9791504838182588  0.8900664944633191  1.0000
  H   H3        1.0  0.979173389228599  0.36461516297999463  0.8900536351617562  1.0000
  H   H4        1.0  0.13538425034821702  0.5208284176307031  0.6099445871904692  1.0000
  H   H5        1.0  0.5208480977856097  0.7338109421963068  0.609933995976121  1.0000
  H   H6        1.0  0.7338964882417613  0.13537639228110976  0.6099394746680034  1.0000
  H   H7        1.0  0.6353747720050792  0.23389431784876508  0.10994104634988837  1.0000
  H   H8        1.0  0.23381235886064644  0.020849540145178463  0.1099319422551446  1.0000
  H   H9        1.0  0.0208287698670233  0.6353845819057895  0.10994509217243112  1.0000
  H   H10       1.0  0.864615971997388  0.47917099923250117  0.39005506124482286  1.0000
  H   H11       1.0  0.4791508325846082  0.26618844920429996  0.39006748161362037  1.0000
  H   H12       1.0  0.2661056715141967  0.864625099497829  0.3900580771555228  1.0000
  H   H13       1.0  0.267895367669432  0.9905680908496208  0.7638272715313478  1.0000
  H   H14       1.0  0.9906240413292553  0.9776568645910899  0.76384412590631  1.0000
  H   H15       1.0  0.9776816649269123  0.2678660561164816  0.7638510739689082  1.0000
  H   H16       1.0  0.23213365303060135  0.5223168930786315  0.7361482012568105  1.0000
  H   H17       1.0  0.5223432967979349  0.5093770267899345  0.7361564313305565  1.0000
  H   H18       1.0  0.5094297696641165  0.23210488699385212  0.7361725690521511  1.0000
  H   H19       1.0  0.7321061446960756  0.00942902121266798  0.23617375516811737  1.0000
  H   H20       1.0  0.009378762515474601  0.02234027243872559  0.2361558285945904  1.0000
  H   H21       1.0  0.022319849007352805  0.7321345499796551  0.23614722323129198  1.0000
  H   H22       1.0  0.767867214476354  0.4776816625742271  0.2638518773124687  1.0000
  H   H23       1.0  0.47765950690815373  0.4906212742577407  0.2638436226117592  1.0000
  H   H24       1.0  0.4905717439673368  0.7678951367220536  0.26382624614425504  1.0000
  H   H25       1.0  0.34939302125178534  0.009492520140163685  0.8909590157807943  1.0000
  H   H26       1.0  0.009589646258930898  0.7500549727018821  0.8909710271668487  1.0000
  H   H27       1.0  0.7500684000231318  0.3494395599749892  0.8909781631777632  1.0000
  H   H28       1.0  0.1505602724388453  0.7499337050321203  0.609022231919397  1.0000
  H   H29       1.0  0.7499461565844784  0.49040952530521026  0.6090301876205828  1.0000
  H   H30       1.0  0.49050960925792714  0.15060708482020851  0.6090392315728083  1.0000
  H   H31       1.0  0.6506072005976477  0.9905068962279769  0.10904138961037539  1.0000
  H   H32       1.0  0.9904105750943374  0.2499444431711881  0.10903013518020538  1.0000
  H   H33       1.0  0.2499344043980116  0.6505610700985399  0.10902057573563445  1.0000
  H   H34       1.0  0.8494393037530659  0.25006657205129545  0.3909785002936701  1.0000
  H   H35       1.0  0.2500547115828127  0.5095907772408097  0.390968715438035  1.0000
  H   H36       1.0  0.5094931953018573  0.8493923812354537  0.3909594078991674  1.0000
  H   H37       1.0  0.5147327743538597  0.722727049982488  0.17327824393819918  1.0000
  H   H38       1.0  0.7228217037761128  0.5891773048959265  0.17328173258435706  1.0000
  H   H39       1.0  0.5892321700658131  0.5147522158175801  0.17328714752237326  1.0000
  H   H40       1.0  0.9852482948399411  0.9107687586152831  0.32671232578863413  1.0000
  H   H41       1.0  0.9108227203013045  0.7771779078017288  0.32671777374380184  1.0000
  H   H42       1.0  0.777273445476432  0.9852675184535258  0.3267207270286078  1.0000
  H   H43       1.0  0.4852609916974373  0.27727340729859395  0.8267249725416547  1.0000
  H   H44       1.0  0.2771778732147752  0.41082355506279084  0.8267177246766267  1.0000
  H   H45       1.0  0.4107680523892371  0.4852483653110228  0.8267122218763987  1.0000
  H   H46       1.0  0.014744180447195302  0.08923400272411189  0.6732906478608598  1.0000
  H   H47       1.0  0.08917750160285462  0.22282209069910416  0.6732824921291042  1.0000
  H   H48       1.0  0.2227261319558949  0.014732759867563117  0.6732781127947547  1.0000
  H   H49       1.0  0.575762750031039  0.7967569250889497  0.0026279709632035723  1.0000
  H   H50       1.0  0.7966566807012825  0.6249292399117294  0.002624280007253859  1.0000
  H   H51       1.0  0.62486497959528  0.5757246646201395  0.002633610152848597  1.0000
  H   H52       1.0  0.9242765608500465  0.8751349682401037  0.4973655573746214  1.0000
  H   H53       1.0  0.8750706776371757  0.7033441581499603  0.4973749447492466  1.0000
  H   H54       1.0  0.7032425791900963  0.9242373073634833  0.49737129847679284  1.0000
  H   H55       1.0  0.4242323065910584  0.20324181001897304  0.9973757273066752  1.0000
  H   H56       1.0  0.20334418716320363  0.3750704802540596  0.9973751410475628  1.0000
  H   H57       1.0  0.37513524291448874  0.42427649864115574  0.997365619727667  1.0000
  H   H58       1.0  0.07572107801176031  0.12486672647622038  0.5026368128185936  1.0000
  H   H59       1.0  0.12492889880281413  0.2966561191809871  0.5026254089858782  1.0000
  H   H60       1.0  0.2967563527780684  0.07576324978771956  0.5026276292087815  1.0000
  H   H61       1.0  0.34034134409446903  0.7665918283068149  0.0876896392528081  1.0000
  H   H62       1.0  0.7665905472248655  0.8053460417738517  0.08771460964761961  1.0000
  H   H63       1.0  0.8054013156437493  0.3403371978368739  0.0877127442145991  1.0000
  H   H64       1.0  0.15966363505879855  0.6945983402732379  0.4122862066685827  1.0000
  H   H65       1.0  0.6946537943787875  0.7334106556742341  0.4122849990150926  1.0000
  H   H66       1.0  0.7334088043137542  0.1596586863658868  0.4123103671048653  1.0000
  H   H67       1.0  0.6596524227266087  0.2334115401328063  0.9123121226798575  1.0000
  H   H68       1.0  0.23341096621323495  0.1946545638272141  0.9122844445084651  1.0000
  H   H69       1.0  0.1945989071141057  0.6596639656719604  0.9122861071879739  1.0000
  H   H70       1.0  0.8403320685962115  0.305403610038411  0.5877146742398267  1.0000
  H   H71       1.0  0.30534642782817667  0.26658992520682995  0.5877147488616217  1.0000
  H   H72       1.0  0.2665920632479271  0.8403404514196707  0.5876895719461502  1.0000
  C   C1        1.0  0.4269972809705394  0.815330932864853  0.9855156973030575  1.0000
  C   C2        1.0  0.8154492877016751  0.7720658968334959  0.9855464604340298  1.0000
  C   C3        1.0  0.7721080228205964  0.42690418856030726  0.9855558595677466  1.0000
  C   C4        1.0  0.0730956663709961  0.727894792710501  0.5144421090133803  1.0000
  C   C5        1.0  0.727932634858945  0.6845515674341696  0.5144533927248959  1.0000
  C   C6        1.0  0.6846701239013484  0.07300286271438226  0.5144832875035092  1.0000
  C   C7        1.0  0.5730016493996786  0.1846684585357536  0.014485780286683767  1.0000
  C   C8        1.0  0.18455158016281104  0.22793382333229317  0.014452960620786794  1.0000
  C   C9        1.0  0.22789349081085672  0.5730958351555915  0.014442955628659567  1.0000
  C   C10       1.0  0.9269019734284215  0.27210632086326575  0.4855588867863219  1.0000
  C   C11       1.0  0.2720656512036114  0.3154498501847769  0.4855462402605113  1.0000
  C   C12       1.0  0.315328807928175  0.9269988584546812  0.48551573962348726  1.0000
  C   C13       1.0  0.3626806795655426  0.8826431711006889  0.8959034789692595  1.0000
  C   C14       1.0  0.8827411198688752  0.8586783032582017  0.8959404739573885  1.0000
  C   C15       1.0  0.8587329707488466  0.3626151607629493  0.8959467146380433  1.0000
  C   C16       1.0  0.13738444552070922  0.6412701658241744  0.6040519407694517  1.0000
  C   C17       1.0  0.6413211549496297  0.6172591658385186  0.6040600570722462  1.0000
  C   C18       1.0  0.6173577918833147  0.13732028694636952  0.6040953769541559  1.0000
  C   C19       1.0  0.6373176055885922  0.11735649937756419  0.10409770800475118  1.0000
  C   C20       1.0  0.1172591024767229  0.1413211136050023  0.10405917447790361  1.0000
  C   C21       1.0  0.14126918875902564  0.6373863307684575  0.10405121566342493  1.0000
  C   C22       1.0  0.8626144857031975  0.3587303905844266  0.3959481223499495  1.0000
  C   C23       1.0  0.3586784216837274  0.3827405296072754  0.39594005770319285  1.0000
  C   C24       1.0  0.38264307650286616  0.8626823441304341  0.39590296803142166  1.0000
  C   C25       1.0  0.34873066131513036  0.8340926227342819  0.871927080839413  1.0000
  C   C26       1.0  0.8341761891506608  0.9451623857280894  0.8719475208055769  1.0000
  C   C27       1.0  0.9452007238585834  0.34869931121050257  0.8719485409736905  1.0000
  C   C28       1.0  0.15130037362405355  0.5548008338299153  0.6280508173901183  1.0000
  C   C29       1.0  0.5548363743178443  0.6658227934811906  0.6280539151893548  1.0000
  C   C30       1.0  0.6659080046113246  0.15127050962995267  0.6280733079167292  1.0000
  C   C31       1.0  0.6512682696059714  0.1659073512940878  0.12807350027618722  1.0000
  C   C32       1.0  0.16582338767604912  0.05483672783253718  0.1280523550101833  1.0000
  C   C33       1.0  0.05480143534647652  0.6513015979406732  0.12804990732397661  1.0000
  C   C34       1.0  0.8486998482800986  0.4451991646709245  0.3719494484827948  1.0000
  C   C35       1.0  0.44516255635517865  0.3341771802996476  0.3719470444041804  1.0000
  C   C36       1.0  0.33409350868812737  0.8487312599889663  0.37192584568077786  1.0000
  C   C37       1.0  0.31460921424487515  0.8732793425512638  0.8244259002161555  1.0000
  C   C38       1.0  0.8733468458630184  0.9876107605369097  0.8244438257732581  1.0000
  C   C39       1.0  0.9876334928907584  0.3145910260951794  0.8244400247817438  1.0000
  C   C40       1.0  0.18540911438913102  0.5123666586678934  0.6755572645556286  1.0000
  C   C41       1.0  0.512388226214597  0.6266560535412609  0.6755562400401444  1.0000
  C   C42       1.0  0.6267228375837491  0.18538921645576067  0.6755736635529388  1.0000
  C   C43       1.0  0.6853897164281478  0.12672063122957414  0.17557505937738677  1.0000
  C   C44       1.0  0.12665466790708282  0.01238809916112868  0.1755548899817256  1.0000
  C   C45       1.0  0.012366730060456601  0.6854095555284943  0.17555858766115046  1.0000
  C   C46       1.0  0.8145923991876031  0.48763278291530565  0.3244416901590412  1.0000
  C   C47       1.0  0.4876126406575595  0.3733436656343939  0.3244446949264344  1.0000
  C   C48       1.0  0.3732799670307542  0.8146108317326007  0.32442483640078024  1.0000
  C   C49       1.0  0.29382852673584386  0.9604585735210521  0.8009723785714797  1.0000
  C   C50       1.0  0.960511160862005  0.94466695835775  0.8009853891144875  1.0000
  C   C51       1.0  0.9446808258721759  0.29383249516583726  0.800984557496335  1.0000
  C   C52       1.0  0.20617061613361903  0.5553162625527008  0.6990146534867775  1.0000
  C   C53       1.0  0.5553328562813958  0.5394883933289449  0.6990171264595588  1.0000
  C   C54       1.0  0.5395392707356591  0.2061725685148659  0.699028758389936  1.0000
  C   C55       1.0  0.7061723402202276  0.03953939950404355  0.19902859647194054  1.0000
  C   C56       1.0  0.03948970645159731  0.05533217918027591  0.1990149284144707  1.0000
  C   C57       1.0  0.0553193971884838  0.706169250723228  0.1990137759100321  1.0000
  C   C58       1.0  0.7938315423016676  0.4446817354399287  0.30098524935807797  1.0000
  C   C59       1.0  0.44466736512659116  0.4605116046768245  0.3009838963692316  1.0000
  C   C60       1.0  0.46046288761570514  0.7938271756283155  0.3009711043780783  1.0000
  C   C61       1.0  0.3053567170022049  0.00960757393702491  0.825172140085556  1.0000
  C   C62       1.0  0.0096574666972487  0.859788666135657  0.8251894933396999  1.0000
  C   C63       1.0  0.859771065577391  0.3054295567151398  0.8251695916336885  1.0000
  C   C64       1.0  0.19456991875747323  0.6402300792984901  0.6748291737914798  1.0000
  C   C65       1.0  0.6402140217826326  0.49034210585076476  0.6748101549396353  1.0000
  C   C66       1.0  0.4903933581510601  0.19464160750082016  0.6748268365136951  1.0000
  C   C67       1.0  0.6946441506141953  0.9903921459812323  0.1748276594472031  1.0000
  C   C68       1.0  0.9903434006163537  0.14021047140236925  0.1748108241892582  1.0000
  C   C69       1.0  0.14022980264462606  0.6945713279635726  0.1748291719066657  1.0000
  C   C70       1.0  0.8054296578758837  0.35976961614730396  0.32517094098396643  1.0000
  C   C71       1.0  0.35978813720354447  0.5096564747696276  0.3251888514310722  1.0000
  C   C72       1.0  0.5096081553709482  0.8053572519496868  0.325172257719224  1.0000
  C   C73       1.0  0.339959260365454  0.9710719700175187  0.872401440594139  1.0000
  C   C74       1.0  0.9711523215509674  0.8164808799809505  0.8724175290959337  1.0000
  C   C75       1.0  0.8164871774694902  0.3399989988553003  0.8724064439505881  1.0000
  C   C76       1.0  0.1600014294251153  0.6835122029695456  0.6275944348787591  1.0000
  C   C77       1.0  0.6835178161425405  0.5288478393145792  0.6275843040853388  1.0000
  C   C78       1.0  0.5289291157452354  0.16004022706446364  0.6275989141366695  1.0000
  C   C79       1.0  0.6600403158264571  0.02892830706589677  0.12759929161892813  1.0000
  C   C80       1.0  0.0288472545314988  0.18351823283707347  0.1275834821536534  1.0000
  C   C81       1.0  0.1835143360233289  0.6600021888784582  0.12759247068723306  1.0000
  C   C82       1.0  0.8399987919281527  0.31648721290352466  0.3724067274682952  1.0000
  C   C83       1.0  0.31648176115114524  0.47115360302436216  0.37241463517944595  1.0000
  C   C84       1.0  0.4710711065164475  0.8399609359492997  0.3724006942217813  1.0000
  C   C85       1.0  0.2798723206286624  0.10335966043130894  0.7992907350395557  1.0000
  C   C86       1.0  0.10339855085923232  0.8174094960489527  0.7993177975690103  1.0000
  C   C87       1.0  0.8173998446103286  0.2799235699435627  0.7992928770824932  1.0000
  C   C88       1.0  0.22007670451128553  0.6825947883848543  0.7007102901547739  1.0000
  C   C89       1.0  0.6825856685092332  0.3966030908171873  0.7006865156319436  1.0000
  C   C90       1.0  0.39664171562359485  0.22012679874588045  0.7007098779881674  1.0000
  C   C91       1.0  0.7201291923424621  0.8966386163914424  0.2007092556675119  1.0000
  C   C92       1.0  0.8966023158487602  0.18258847672861112  0.20068355595235235  1.0000
  C   C93       1.0  0.18260102300607883  0.7200761499746873  0.20070692245026578  1.0000
  C   C94       1.0  0.7799235169806168  0.3174034634703561  0.2992907727508651  1.0000
  C   C95       1.0  0.3174151989138069  0.6033972109862308  0.2993135228604941  1.0000
  C   C96       1.0  0.6033617340975398  0.779871806099443  0.29928919161780243  1.0000
  C   C97       1.0  0.2983060302447599  0.8244654734141931  0.7976395159333975  1.0000
  C   C98       1.0  0.8245328201868034  0.07954721193634373  0.7976982377026759  1.0000
  C   C99       1.0  0.0795491358142044  0.2982578858145359  0.7976566934266671  1.0000
  C   C100      1.0  0.20174118640446176  0.42045230395564187  0.7023429181586778  1.0000
  C   C101      1.0  0.42045389705680963  0.6754643985162615  0.7023032809236084  1.0000
  C   C102      1.0  0.6755298592918565  0.20169536795236812  0.702363614839264  1.0000
  C   C103      1.0  0.7016948359670608  0.17553249886830705  0.20236259454384964  1.0000
  C   C104      1.0  0.17546740240688052  0.9204522051743995  0.20230103225467383  1.0000
  C   C105      1.0  0.9204523782587019  0.7017415562637339  0.2023415043321109  1.0000
  C   C106      1.0  0.7982596809638592  0.5795474157150763  0.2976572598520235  1.0000
  C   C107      1.0  0.5795476154728688  0.3245344599441111  0.2976973272210799  1.0000
  C   C108      1.0  0.3244710086820747  0.798305516478813  0.2976355271790325  1.0000
  C   C109      1.0  0.39799310356232104  0.8444382870496765  0.9439373075694066  1.0000
  C   C110      1.0  0.844562890425202  0.8135429108404041  0.9439789107355949  1.0000
  C   C111      1.0  0.8136085012734426  0.3978726650400973  0.9439981680765257  1.0000
  C   C112      1.0  0.10212709927115071  0.686390756404485  0.556001785363378  1.0000
  C   C113      1.0  0.6864558264403727  0.6554378112647682  0.5560205558729407  1.0000
  C   C114      1.0  0.655561101735465  0.10200832053874366  0.5560617903481742  1.0000
  C   C115      1.0  0.6020025994870792  0.15556249850151727  0.0560646093314006  1.0000
  C   C116      1.0  0.15543668681375783  0.18645794936584537  0.0560201680474464  1.0000
  C   C117      1.0  0.1863923668391223  0.6021270553732238  0.05600087450034861  1.0000
  C   C118      1.0  0.8978718318980371  0.31360921787141643  0.4439984172742868  1.0000
  C   C119      1.0  0.3135418144061007  0.34456388543183164  0.4439787864967428  1.0000
  C   C120      1.0  0.344437184958224  0.897997172256609  0.4439364875314809  1.0000
  C   C121      1.0  0.45396638340076834  0.7862637745100968  0.035899958560186525  1.0000
  C   C122      1.0  0.7862933534888443  0.7238429702580048  0.03592064481670575  1.0000
  C   C123      1.0  0.7238496391109878  0.4539209781146099  0.03592468114593568  1.0000
  C   C124      1.0  0.04607996815435201  0.7761518675689275  0.46407386698147957  1.0000
  C   C125      1.0  0.7761563016786966  0.7137078889960264  0.4640790543346967  1.0000
  C   C126      1.0  0.71373638547351  0.0460332874376163  0.4640994578146617  1.0000
  C   C127      1.0  0.5460286742391889  0.21373787200390365  0.9641019066845758  1.0000
  C   C128      1.0  0.2137088053039733  0.2761561922475479  0.9640786005136873  1.0000
  C   C129      1.0  0.27615122911102924  0.5460799065641027  0.9640740823944184  1.0000
  C   C130      1.0  0.9539170260422623  0.2238506888528137  0.5359273161218638  1.0000
  C   C131      1.0  0.22384262954521722  0.28629266741257453  0.5359210087846975  1.0000
  C   C132      1.0  0.28626254594376377  0.9539666870858239  0.5359003663450537  1.0000
  C   C133      1.0  0.5313468949644574  0.781053036504154  0.03986708351892077  1.0000
  C   C134      1.0  0.7810040209430155  0.6477626717022741  0.039870660650755965  1.0000
  C   C135      1.0  0.6477346686126142  0.5313236506138989  0.03987795407196155  1.0000
  C   C136      1.0  0.9686774279648063  0.8522651907753415  0.46012124643195307  1.0000
  C   C137      1.0  0.8522370093445064  0.7189961698527723  0.46012916784429336  1.0000
  C   C138      1.0  0.7189471400435536  0.9686542870815842  0.4601310085762334  1.0000
  C   C139      1.0  0.4686488076726932  0.21894600240140952  0.9601356304146051  1.0000
  C   C140      1.0  0.2189968469761965  0.3522376305962069  0.9601286208858043  1.0000
  C   C141      1.0  0.35226555433860085  0.4686769310097673  0.9601206583709329  1.0000
  C   C142      1.0  0.0313189205195599  0.14773764422898236  0.5398804030115444  1.0000
  C   C143      1.0  0.14776256709549068  0.28100410747818216  0.5398711858908385  1.0000
  C   C144      1.0  0.2810517922821348  0.031347434582542556  0.5398672615948783  1.0000
  C   C145      1.0  0.4983720272372453  0.7399444292437422  0.13343189364459113  1.0000
  C   C146      1.0  0.7400043124117702  0.6281947400991682  0.13344430745026858  1.0000
  C   C147      1.0  0.6282530786334065  0.4983891440571423  0.13344137001907092  1.0000
  C   C148      1.0  0.0016118283465190004  0.8717474610421546  0.36655820906709385  1.0000
  C   C149      1.0  0.8718052246683926  0.7599962144070602  0.3665553799880357  1.0000
  C   C150      1.0  0.7600555678629918  0.001629073286117884  0.3665671875588075  1.0000
  C   C151      1.0  0.5016217388687708  0.2600566101700323  0.8665711833169922  1.0000
  C   C152      1.0  0.25999526438575066  0.37180670174470976  0.8665553887704007  1.0000
  C   C153      1.0  0.3717477893405245  0.501611740374038  0.8665577719992256  1.0000
  C   C154      1.0  0.9983825831397442  0.1282550456920573  0.6334447399554435  1.0000
  C   C155      1.0  0.12819499729048542  0.2400043662264721  0.6334447463666208  1.0000
  C   C156      1.0  0.239944009321249  0.9983712047874397  0.6334320307424901  1.0000
  C   C157      1.0  0.40163113130292777  0.7644739002141488  0.0862631130570648  1.0000
  C   C158      1.0  0.7644705046851215  0.7476069348477952  0.08628916323592499  1.0000
  C   C159      1.0  0.7476470366210253  0.4016341634257968  0.08629321184196208  1.0000
  C   C160      1.0  0.09836711442840601  0.7523526810197366  0.41370603742599593  1.0000
  C   C161      1.0  0.752393096048209  0.7355300968772414  0.4137105235000789  1.0000
  C   C162      1.0  0.7355260314971943  0.09836895869014475  0.413736268208723  1.0000
  C   C163      1.0  0.59836263590487  0.2355283044551513  0.9137381709562434  1.0000
  C   C164      1.0  0.23553036328880952  0.25239394958338585  0.9137099787823715  1.0000
  C   C165      1.0  0.2523525406179346  0.5983666967804525  0.9137058669410862  1.0000
  C   C166      1.0  0.90162794326627  0.24764954762695623  0.5862956883005099  1.0000
  C   C167      1.0  0.24760712610402894  0.2644699018711306  0.586289363894892  1.0000
  C   C168      1.0  0.2644741908484036  0.9016304581730663  0.5862633802265691  1.0000
  N   N1        1.0  0.5535477851731729  0.758012828319465  0.08812247699759011  1.0000
  N   N2        1.0  0.7579814659745098  0.6003228506379514  0.08812297287813209  1.0000
  N   N3        1.0  0.6003281506504762  0.5535629520930667  0.08812648229330475  1.0000
  N   N4        1.0  0.9464382082701447  0.8996721589370223  0.4118729933307819  1.0000
  N   N5        1.0  0.8996768153361928  0.7420182573043659  0.4118769627657884  1.0000
  N   N6        1.0  0.7419869987772004  0.9464525108655976  0.4118766521359234  1.0000
  N   N7        1.0  0.44644727131028367  0.2419870708063101  0.911881320713711  1.0000
  N   N8        1.0  0.2420181110163711  0.39967800932076597  0.9118764843828515  1.0000
  N   N9        1.0  0.39967271732345483  0.44643793233810675  0.9118726597249919  1.0000
  N   N10       1.0  0.05355684857083531  0.10032890470167637  0.588130146866064  1.0000
  N   N11       1.0  0.10032211563963501  0.25798229885670315  0.5881234788315554  1.0000
  N   N12       1.0  0.2580119331909644  0.053548046285605624  0.5881222755496509  1.0000
  N   N13       1.0  0.42329299973928164  0.7422374747235522  0.13462721153398852  1.0000
  N   N14       1.0  0.7422830371637945  0.6997793891574131  0.1346487965916268  1.0000
  N   N15       1.0  0.699857123295125  0.42331266685727087  0.1346480714991501  1.0000
  N   N16       1.0  0.0766881380595308  0.8001433390683699  0.3653511368235414  1.0000
  N   N17       1.0  0.8002209042022842  0.7577176239583705  0.3653504256868203  1.0000
  N   N18       1.0  0.7577637098173043  0.07670714948669381  0.3653718400183692  1.0000
  N   N19       1.0  0.5767020580940355  0.2577635899052879  0.8653744147510951  1.0000
  N   N20       1.0  0.25771783105821566  0.3002214955212991  0.8653499669487346  1.0000
  N   N21       1.0  0.3001430993532779  0.5766873323861645  0.865351058939936  1.0000
  N   N22       1.0  0.9233069194417853  0.19985947146349042  0.6346508278626432  1.0000
  N   N23       1.0  0.19977931794995382  0.24228237479000106  0.6346494617081504  1.0000
  N   N24       1.0  0.24223715799245576  0.9232919885464027  0.6346277205547111  1.0000
  O   O1        1.0  0.2618070127628371  0.12852263429630276  0.7519226267757944  1.0000
  O   O2        1.0  0.1285559254775848  0.8576861128562212  0.7519489061545529  1.0000
  O   O3        1.0  0.8576842994104582  0.2618673988708478  0.7519249670315773  1.0000
  O   O4        1.0  0.23813135190724927  0.6423148182256141  0.748074443440615  1.0000
  O   O5        1.0  0.6423129774993798  0.3714451837860224  0.748052328946635  1.0000
  O   O6        1.0  0.37147743508883485  0.2381930856242035  0.7480746745918909  1.0000
  O   O7        1.0  0.7381951456724493  0.871475363696326  0.24807727606905436  1.0000
  O   O8        1.0  0.8714455865012029  0.14231216297638846  0.2480525984642767  1.0000
  O   O9        1.0  0.14231785952099332  0.7381305996168521  0.24807417885739363  1.0000
  O   O10       1.0  0.761868224065772  0.3576831303270181  0.2519268468454925  1.0000
  O   O11       1.0  0.3576885355811897  0.6285542573021132  0.2519473827239124  1.0000
  O   O12       1.0  0.6285253699671146  0.7618063809265294  0.25192320792420725  1.0000
  O   O13       1.0  0.27800772494614284  0.150216031362838  0.8263877349036193  1.0000
  O   O14       1.0  0.15025864407922285  0.7453274681805481  0.8264196694014672  1.0000
  O   O15       1.0  0.7453412908693055  0.27800261909884944  0.8264106977267502  1.0000
  O   O16       1.0  0.22199899577590543  0.7546580017521548  0.673589542612298  1.0000
  O   O17       1.0  0.754672462417126  0.34974215770043326  0.6735813913510286  1.0000
  O   O18       1.0  0.34978476123475133  0.22199073862238086  0.6736101651971181  1.0000
  O   O19       1.0  0.7219937880249817  0.849782245459906  0.17361225580344813  1.0000
  O   O20       1.0  0.8497422227382074  0.2546716688624074  0.17358140508337527  1.0000
  O   O21       1.0  0.2546608676207072  0.7219959610264793  0.17358906559984177  1.0000
  O   O22       1.0  0.7780031616123253  0.24533941311764088  0.32641201366257633  1.0000
  O   O23       1.0  0.245329050718162  0.6502578655204019  0.3264181808012552  1.0000
  O   O24       1.0  0.6502186888731175  0.7780067024526147  0.326388426489487  1.0000
  O   O25       1.0  0.27874046385147017  0.8640496222883344  0.7504390806843162  1.0000
  O   O26       1.0  0.8641140565282301  0.10677368332127904  0.750504111539634  1.0000
  O   O27       1.0  0.10674380354667791  0.27871578058599766  0.7504439009603489  1.0000
  O   O28       1.0  0.22128208495597326  0.39325674272574657  0.7495535491352215  1.0000
  O   O29       1.0  0.3932242504487249  0.635886675561004  0.7494950515921772  1.0000
  O   O30       1.0  0.6359495406191868  0.22125986142730603  0.7495607613978523  1.0000
  O   O31       1.0  0.7212610489262942  0.13594923641957035  0.24956114898243  1.0000
  O   O32       1.0  0.13588745674569944  0.8932251758816959  0.24949536117122761  1.0000
  O   O33       1.0  0.8932583553300547  0.721281635769003  0.24955538444687866  1.0000
  O   O34       1.0  0.778720074278283  0.6067418381421773  0.2504450787575507  1.0000
  O   O35       1.0  0.6067759710979032  0.36411215842690575  0.2505058717951982  1.0000
  O   O36       1.0  0.36405068183585604  0.7787407197012969  0.2504386080009197  1.0000
  O   O37       1.0  0.30409266923910394  0.7494541866167381  0.823442651885003  1.0000
  O   O38       1.0  0.7495079954196625  0.12296218632781117  0.8235019920503747  1.0000
  O   O39       1.0  0.12299234918590682  0.3039978381569952  0.8234650843290581  1.0000
  O   O40       1.0  0.19600075091433675  0.3770078304627378  0.6765319050216405  1.0000
  O   O41       1.0  0.3770372091023901  0.7504946396626053  0.6764975453745947  1.0000
  O   O42       1.0  0.7505452119973981  0.19590836831893907  0.676557292651225  1.0000
  O   O43       1.0  0.6959081977716862  0.2505443685410569  0.1765581836401608  1.0000
  O   O44       1.0  0.25049351790898566  0.8770372550078565  0.1764973411422303  1.0000
  O   O45       1.0  0.8770117464408431  0.6959999062205781  0.17653327997707186  1.0000
  O   O46       1.0  0.8040007624982338  0.6229898647223774  0.32346746824779865  1.0000
  O   O47       1.0  0.6229636577150401  0.24950449738035027  0.32350352911024766  1.0000
  O   O48       1.0  0.24945501051237076  0.8040927949423561  0.32344193722929043  1.0000
