data_image0
_chemical_formula_structural       Zn4H30C62O15
_chemical_formula_sum              "Zn4 H30 C62 O15"
_cell_length_a       17.587455953947572
_cell_length_b       18.039447539842943
_cell_length_c       17.99247759009551
_cell_angle_alpha    63.53506749868271
_cell_angle_beta     68.2490914963666
_cell_angle_gamma    86.86247651746157

_space_group_name_H-M_alt    "P 1"
_space_group_IT_number       1

loop_
  _space_group_symop_operation_xyz
  'x, y, z'

loop_
  _atom_site_type_symbol
  _atom_site_label
  _atom_site_symmetry_multiplicity
  _atom_site_fract_x
  _atom_site_fract_y
  _atom_site_fract_z
  _atom_site_occupancy
  Zn  Zn1       1.0  0.5681631517366483  0.4273885967750958  0.563325814151895  1.0000
  Zn  Zn2       1.0  0.41796502668438507  0.535695946320523  0.5768093398357265  1.0000
  Zn  Zn3       1.0  0.4587333720730413  0.43216940802560094  0.45895918403942904  1.0000
  Zn  Zn4       1.0  0.5682134919038899  0.6022103958347105  0.39098694481747026  1.0000
  H   H1        1.0  0.049696976766298924  0.7414718896408136  0.3723813706317499  1.0000
  H   H2        1.0  0.564313253886361  0.849735662593737  0.5724093976714713  1.0000
  H   H3        1.0  0.4442385784876277  0.14948217921480017  0.4179887279701405  1.0000
  H   H4        1.0  0.19354964122942422  0.5482081727957965  0.49203898609184177  1.0000
  H   H5        1.0  0.37187236116621847  0.9662025467775168  0.3249134032791117  1.0000
  H   H6        1.0  0.6262384984995888  0.7011024318776509  0.849655585630046  1.0000
  H   H7        1.0  0.514081456349295  0.5355836833144281  0.7871658858704366  1.0000
  H   H8        1.0  0.392672178515646  0.29298773371388626  0.878257935988543  1.0000
  H   H9        1.0  0.38761087205250516  0.2913085479682564  0.14539123692470932  1.0000
  H   H10       1.0  0.6487159284495475  0.733475123994751  0.958840354785387  1.0000
  H   H11       1.0  0.6270824827106621  0.6947141576242546  0.11769663413438969  1.0000
  H   H12       1.0  0.0399656485440119  0.2721054526635811  0.7392343801436708  1.0000
  H   H13       1.0  0.48203734324420816  0.4650722618145054  0.21061061446931018  1.0000
  H   H14       1.0  0.5673792662422341  0.6077555675165414  0.814079004200707  1.0000
  H   H15       1.0  0.4414931734533808  0.3872292202059955  0.1817682704207116  1.0000
  H   H16       1.0  0.19249917842179795  0.30063346909656735  0.6890487988328218  1.0000
  H   H17       1.0  0.3701081721021353  0.25619878410644503  0.03636437338329307  1.0000
  H   H18       1.0  0.9076803213867419  0.3222749290797183  0.7344912280154363  1.0000
  H   H19       1.0  0.9387058231396208  0.7646023702064397  0.31455961629176005  1.0000
  H   H20       1.0  0.8011363690423249  0.7160960958336419  0.3284262538390906  1.0000
  H   H21       1.0  0.7970478447551983  0.47752156197053364  0.5403483589225999  1.0000
  H   H22       1.0  0.1413834819980551  0.6375623305529033  0.534577528773866  1.0000
  H   H23       1.0  0.6222242100237094  0.9159272613828267  0.6356322214048616  1.0000
  H   H24       1.0  0.7747705825645282  0.47680956619866793  0.666341367863872  1.0000
  H   H25       1.0  0.5119752696009171  0.7949902226983596  0.5275780350029748  1.0000
  H   H26       1.0  0.3950438705406468  0.8218200753820286  0.3472680504377336  1.0000
  H   H27       1.0  0.3903656158665782  0.08468675692105883  0.3506581735876609  1.0000
  H   H28       1.0  0.6447212358728223  0.03636166492586312  0.6571841587499917  1.0000
  H   H29       1.0  0.6253635575694145  0.18317889041544083  0.62984811315971  1.0000
  H   H30       1.0  0.48720758134167846  0.20061605393368614  0.47213299811134135  1.0000
  C   C1        1.0  0.46865467774116354  0.7133785036447339  0.4552210337588318  1.0000
  C   C2        1.0  0.8987457571099425  0.4369312065636495  0.6310635907478215  1.0000
  C   C3        1.0  0.9421761378243688  0.37982866319725883  0.6747560710625604  1.0000
  C   C4        1.0  0.5417684979891317  0.28630990321548927  0.5327568953680455  1.0000
  C   C5        1.0  0.028884260987268814  0.3954104233120362  0.6457770713229677  1.0000
  C   C6        1.0  0.07115779050132429  0.4762713450483248  0.5757419959122103  1.0000
  C   C7        1.0  0.0736102164969665  0.3331645471884671  0.6860760201388699  1.0000
  C   C8        1.0  0.15796203040687837  0.348759254483774  0.6585290066889725  1.0000
  C   C9        1.0  0.157590644882319  0.48989328008744365  0.5486126744705117  1.0000
  C   C10       1.0  0.5547603569969793  0.19910733736837474  0.5487172909934372  1.0000
  C   C11       1.0  0.45611285983177646  0.8012193603961394  0.43866339547583516  1.0000
  C   C12       1.0  0.8308153156959933  0.6759801718156242  0.37282684934230303  1.0000
  C   C13       1.0  0.6103088993696487  0.0725251001116405  0.6163560816212126  1.0000
  C   C14       1.0  0.5999145312238453  0.15349590663291937  0.601512923393784  1.0000
  C   C15       1.0  0.5215248459510419  0.16273818955112065  0.5118704434045611  1.0000
  C   C16       1.0  0.4661266552193268  0.43991118619579356  0.7297628690545179  1.0000
  C   C17       1.0  0.5313812957465841  0.08013890476174622  0.525580113238334  1.0000
  C   C18       1.0  0.5767381318463761  0.0342052661355225  0.5794933426141  1.0000
  C   C19       1.0  0.4975685116012442  0.0410424195582308  0.4873987188240391  1.0000
  C   C20       1.0  0.5090129979829924  0.9571911503262103  0.5048663829488831  1.0000
  C   C21       1.0  0.5544870885736446  0.9137442156695389  0.5592655148808913  1.0000
  C   C22       1.0  0.5871768716508682  0.9505022541840875  0.594880177474316  1.0000
  C   C23       1.0  0.8277561357928318  0.5412686648313284  0.4953553421096118  1.0000
  C   C24       1.0  0.4535067869181048  0.08529053988058172  0.4316339726000749  1.0000
  C   C25       1.0  0.42318066850824465  0.04930751503600561  0.3937602841481577  1.0000
  C   C26       1.0  0.4339396314545284  0.9656732605935691  0.4088424225946664  1.0000
  C   C27       1.0  0.4759285629996626  0.9182425351239661  0.46606510426470016  1.0000
  C   C28       1.0  0.5384900598133129  0.5542019927888475  0.26715406351074483  1.0000
  C   C29       1.0  0.4044731562185505  0.9292905679306714  0.36761374766862076  1.0000
  C   C30       1.0  0.41694969697832807  0.8491378199473375  0.38005361620218975  1.0000
  C   C31       1.0  0.48349350211336173  0.8346791177775617  0.48173384557421145  1.0000
  C   C32       1.0  0.5526867680811164  0.5770097697367264  0.17222546362513919  1.0000
  C   C33       1.0  0.45460345563513727  0.4173497451911317  0.8244676757095563  1.0000
  C   C34       1.0  0.9028937230236664  0.567918836258528  0.4930461238493748  1.0000
  C   C35       1.0  0.6124402295270739  0.6743651659048171  0.01408137441055864  1.0000
  C   C36       1.0  0.6007094652840692  0.6534652928660307  0.10148032707649439  1.0000
  C   C37       1.0  0.5185352597026522  0.5228994752487351  0.153660576776403  1.0000
  C   C38       1.0  0.5304923105378874  0.5420156057491  0.06473685739730685  1.0000
  C   C39       1.0  0.5780103696909791  0.62007979105136  0.9937052373165188  1.0000
  C   C40       1.0  0.2907422456921934  0.447941388937558  0.5615948301056547  1.0000
  C   C41       1.0  0.4967166339466047  0.4859470559940605  0.04343366545293752  1.0000
  C   C42       1.0  0.5094087533445943  0.5099967530809764  0.9525775356800849  1.0000
  C   C43       1.0  0.55654507157314  0.5888786332451162  0.8840740564934036  1.0000
  C   C44       1.0  0.589789719004372  0.641514958088891  0.9035282185117594  1.0000
  C   C45       1.0  0.9438798653533098  0.6497712544728319  0.42461480727733625  1.0000
  C   C46       1.0  0.45152689045316663  0.40625936294631537  0.11196861826528688  1.0000
  C   C47       1.0  0.4211980661867187  0.35234301257887796  0.09199929555737177  1.0000
  C   C48       1.0  0.43272067802079306  0.3738465792301399  0.0018438364667117703  1.0000
  C   C49       1.0  0.4758785317066057  0.4538794372636517  0.9311675554498462  1.0000
  C   C50       1.0  0.4026374473320331  0.3170353737992572  0.9814396876631546  1.0000
  C   C51       1.0  0.4145343404213903  0.3373884964032782  0.8940756281716348  1.0000
  C   C52       1.0  0.7095361724453327  0.5637602779335825  0.4472333119160509  1.0000
  C   C53       1.0  0.4839476824363658  0.4743947449116846  0.8427496228880286  1.0000
  C   C54       1.0  0.7914148307254009  0.5942545726418376  0.4379414144955261  1.0000
  C   C55       1.0  0.19984673413465967  0.4283621692021526  0.5899320674891227  1.0000
  C   C56       1.0  0.9415789956699427  0.5146110240522149  0.552840918301868  1.0000
  C   C57       1.0  0.9062883570913767  0.7024990005301606  0.3658973328142635  1.0000
  C   C58       1.0  0.1329206158041956  0.6652099905063977  0.46951016551852826  1.0000
  C   C59       1.0  0.8071370128483294  0.42022143385236194  0.6787978123087018  1.0000
  C   C60       1.0  0.025011275827395707  0.5385043377514194  0.5334811383442498  1.0000
  C   C61       1.0  0.06105408194262202  0.6241433965693235  0.4705080660421928  1.0000
  C   C62       1.0  0.02117878402390973  0.6768274494793547  0.41815005133947364  1.0000
  O   O1        1.0  0.5033447270571969  0.49936666640041977  0.49778387817440956  1.0000
  O   O2        1.0  0.3120164247038416  0.5047408241195017  0.5766045580731713  1.0000
  O   O3        1.0  0.6765064630347553  0.6155817812696827  0.3959050144119302  1.0000
  O   O4        1.0  0.3375280750711695  0.4064781289817249  0.5259341058758764  1.0000
  O   O5        1.0  0.6793726712277034  0.48870313056645664  0.5067545240606391  1.0000
  O   O6        1.0  0.17740999311808986  0.7284857844599985  0.4052247982030081  1.0000
  O   O7        1.0  0.7684897296118507  0.35068515385977156  0.7332935921932419  1.0000
  O   O8        1.0  0.5211009255521545  0.40631355518159046  0.6901600578613484  1.0000
  O   O9        1.0  0.5803444119607448  0.6004411991937249  0.2793414908475285  1.0000
  O   O10       1.0  0.43402410216481246  0.6565756227861926  0.536375762135222  1.0000
  O   O11       1.0  0.49815176155210134  0.3231543115611972  0.4869047834252028  1.0000
  O   O12       1.0  0.5131447804591288  0.7022102556804273  0.387601498247747  1.0000
  O   O13       1.0  0.5750692969969152  0.3178222388461976  0.5663513029935103  1.0000
  O   O14       1.0  0.4195484893194531  0.4900697172180984  0.6977526289893987  1.0000
  O   O15       1.0  0.485659763647554  0.4903332534337396  0.3291335930800159  1.0000
