data_image0
_chemical_formula_structural       Cd2H36C36N8O10
_chemical_formula_sum              "Cd2 H36 C36 N8 O10"
_cell_length_a       9.642964324506385
_cell_length_b       9.642959845277732
_cell_length_c       9.721132498319003
_cell_angle_alpha    95.0796373343954
_cell_angle_beta     95.07967955338864
_cell_angle_gamma    93.7661073537683

_space_group_name_H-M_alt    "P 1"
_space_group_IT_number       1

loop_
  _space_group_symop_operation_xyz
  'x, y, z'

loop_
  _atom_site_type_symbol
  _atom_site_label
  _atom_site_symmetry_multiplicity
  _atom_site_fract_x
  _atom_site_fract_y
  _atom_site_fract_z
  _atom_site_occupancy
  Cd  Cd1       1.0  0.5000007053846288  0.4999995916503791  0.5000003442446328  1.0000
  Cd  Cd2       1.0  0.5000008078008591  0.5000003680671339  0.9999998517527332  1.0000
  H   H1        1.0  0.9639371662940234  0.4499241135657782  0.2707601824333139  1.0000
  H   H2        1.0  0.4499217785525289  0.9639352240583959  0.7707612108678534  1.0000
  H   H3        1.0  0.036065362717593516  0.5500761112434845  0.7292386371264712  1.0000
  H   H4        1.0  0.550077550817626  0.03606396222931349  0.22924032496044333  1.0000
  H   H5        1.0  0.21940979024440574  0.5617063667608873  0.28271101053671543  1.0000
  H   H6        1.0  0.5617075056304016  0.2194083354899092  0.7827137401923708  1.0000
  H   H7        1.0  0.7805927387672115  0.4382938580483752  0.7172878090230628  1.0000
  H   H8        1.0  0.43829294329280805  0.7805918936162469  0.2172879843093227  1.0000
  H   H9        1.0  0.3070324183812758  0.2592626876563314  0.6703028280878911  1.0000
  H   H10       1.0  0.2592611113046246  0.3070321227138493  0.1703031060270206  1.0000
  H   H11       1.0  0.6929680292312381  0.7407375401398821  0.32969683881092493  1.0000
  H   H12       1.0  0.7407370972017729  0.6929660194454712  0.8296961835250161  1.0000
  H   H13       1.0  0.1106640385870818  0.10243823889601339  0.7341105025790214  1.0000
  H   H14       1.0  0.10243548928363569  0.11066508075101922  0.23410875259847333  1.0000
  H   H15       1.0  0.8893354471793913  0.8975630347055982  0.2658902003322225  1.0000
  H   H16       1.0  0.8975618345918475  0.889335149888197  0.7658896133053049  1.0000
  H   H17       1.0  0.8764767672964167  0.09126351176564639  0.6058767908353887  1.0000
  H   H18       1.0  0.09126194819949518  0.8764759960910733  0.1058788042563421  1.0000
  H   H19       1.0  0.1235228742110195  0.908739848494889  0.39412205035736764  1.0000
  H   H20       1.0  0.9087384221978853  0.12352318903064226  0.8941228223031603  1.0000
  H   H21       1.0  0.8277963616348245  0.2401314498964737  0.41102169132192057  1.0000
  H   H22       1.0  0.24012856073879618  0.8277956146911831  0.911022747581882  1.0000
  H   H23       1.0  0.17220424237400778  0.7598708652136422  0.5889771426598431  1.0000
  H   H24       1.0  0.7598707686313587  0.17220357159652616  0.0889787882464148  1.0000
  H   H25       1.0  0.4608362666468011  0.6534587030156018  0.7348346027655311  1.0000
  H   H26       1.0  0.6534597487637227  0.46083476646766286  0.2348350961628896  1.0000
  H   H27       1.0  0.5391651441224566  0.34654048028515655  0.2651660857237276  1.0000
  H   H28       1.0  0.34654166200553504  0.5391644168330955  0.765165592326369  1.0000
  H   H29       1.0  0.35734457063978203  0.020369758048062195  0.5558857448020549  1.0000
  H   H30       1.0  0.020370570058304296  0.35734541061360386  0.055884162444201  1.0000
  H   H31       1.0  0.642654759385721  0.9796294288946117  0.4441168198276771  1.0000
  H   H32       1.0  0.9796299554246984  0.6426558605120789  0.9441145735953712  1.0000
  H   H33       1.0  0.38172800481038377  0.9523468180536266  0.38478740259743205  1.0000
  H   H34       1.0  0.9523469895240949  0.3817290148502508  0.8847852066301628  1.0000
  H   H35       1.0  0.6182702841878935  0.047652370055040194  0.6152150713011012  1.0000
  H   H36       1.0  0.04765241640584611  0.6182712134569853  0.11521334073601963  1.0000
  C   C1        1.0  0.18289744457199933  0.4848508639421353  0.34907179502932456  1.0000
  C   C2        1.0  0.4848495400914672  0.18289608324730716  0.849074302555991  1.0000
  C   C3        1.0  0.8171040427570446  0.5151493613781425  0.6509259049978199  1.0000
  C   C4        1.0  0.5151509088317426  0.8171041458588489  0.15092742194570263  1.0000
  C   C5        1.0  0.20394147248025263  0.253681078884675  0.6139918810239777  1.0000
  C   C6        1.0  0.2536792129312103  0.20394187585385734  0.11399326059860472  1.0000
  C   C7        1.0  0.7960580911567022  0.7463212380463983  0.3860078910280222  1.0000
  C   C8        1.0  0.7463182693066416  0.7960604440641673  0.8860073587924335  1.0000
  C   C9        1.0  0.093258424120414  0.16749762048725353  0.6488724248240487  1.0000
  C   C10       1.0  0.1674967094815401  0.093258963219391  0.14887390891593105  1.0000
  C   C11       1.0  0.9067410603353565  0.8325036518044158  0.3511262204843248  1.0000
  C   C12       1.0  0.8325015775506941  0.9067402229243695  0.8511254785782897  1.0000
  C   C13       1.0  0.95936502084421  0.1616922380335097  0.5761881723195117  1.0000
  C   C14       1.0  0.16169141022491118  0.9593650629571608  0.0761892874584689  1.0000
  C   C15       1.0  0.04063454213738988  0.8383100782425925  0.42381057093105323  1.0000
  C   C16       1.0  0.8383091165687802  0.04063620947845689  0.9238115061839737  1.0000
  C   C17       1.0  0.9310341193757238  0.24315281103447  0.46709428486249766  1.0000
  C   C18       1.0  0.24315210197013937  0.931033836021854  0.9670955335348527  1.0000
  C   C19       1.0  0.06896640676262679  0.7568484607461768  0.5329054799785099  1.0000
  C   C20       1.0  0.7568482677718861  0.06896534844489108  0.03290506422320758  1.0000
  C   C21       1.0  0.0418721747180157  0.3307747484583031  0.4338207737097264  1.0000
  C   C22       1.0  0.33077281501868316  0.0418719164833021  0.933821261939187  1.0000
  C   C23       1.0  0.9581273889189389  0.6692275684727704  0.5661789983422736  1.0000
  C   C24       1.0  0.6692266707477899  0.9581293571183097  0.06617944097205712  1.0000
  C   C25       1.0  0.17754904889417839  0.335756008835986  0.504307044789094  1.0000
  C   C26       1.0  0.3357537973243224  0.17754879408808927  0.004307349504500703  1.0000
  C   C27       1.0  0.8224515564253494  0.6642463075840651  0.49569384679553974  1.0000
  C   C28       1.0  0.6642444897079046  0.8224503920556712  0.9956920379897272  1.0000
  C   C29       1.0  0.4408097431144782  0.8177353337893434  0.5421853985958265  1.0000
  C   C30       1.0  0.81773635721769  0.4408099497266135  0.04218405195076259  1.0000
  C   C31       1.0  0.559189585600329  0.18226385184339478  0.45781510843103496  1.0000
  C   C32       1.0  0.18226409039482405  0.5591902780696002  0.9578156149480536  1.0000
  C   C33       1.0  0.4268938191889333  0.9613099367988481  0.4930620796850819  1.0000
  C   C34       1.0  0.9613117403959847  0.42689517203895383  0.9930610709040838  1.0000
  C   C35       1.0  0.57310439062816  0.0386882066704146  0.5069392674698179  1.0000
  C   C36       1.0  0.0386898267695841  0.5731060985757068  0.006938784668129493  1.0000
  N   N1        1.0  0.049775978797818296  0.42673406802317243  0.3366824967057981  1.0000
  N   N2        1.0  0.4267322262671271  0.049774732118699185  0.8366829403052237  1.0000
  N   N3        1.0  0.9502255091865734  0.5732661579520837  0.6633162321227815  1.0000
  N   N4        1.0  0.5732671024476801  0.9502244535140387  0.16331756672163777  1.0000
  N   N5        1.0  0.26368373909637194  0.4327890931287327  0.4474404437694873  1.0000
  N   N6        1.0  0.4327883366657233  0.26368157363023664  0.9474408225505332  1.0000
  N   N7        1.0  0.7363178287245516  0.5672121781408918  0.5525604406041609  1.0000
  N   N8        1.0  0.567210992049084  0.7363176120025016  0.052559684476328486  1.0000
  O   O1        1.0  0.4422847653579468  0.7167129737001472  0.44927277238102203  1.0000
  O   O2        1.0  0.7167135592868875  0.442283620440044  0.9492723688253193  1.0000
  O   O3        1.0  0.5577156050394336  0.2832862114215685  0.5507288541784732  1.0000
  O   O4        1.0  0.2832856902467356  0.5577145205532826  0.05072701145791568  1.0000
  O   O5        1.0  0.4560513095053338  0.8095823238584215  0.6730151148095802  1.0000
  O   O6        1.0  0.8095842723233843  0.45605157106740507  0.17301590211486942  1.0000
  O   O7        1.0  0.543947940683644  0.1904158177898836  0.32698529427509027  1.0000
  O   O8        1.0  0.19041713779052566  0.5439476115783889  0.8269837575729541  1.0000
  O   O9        1.0  0.44857264545092335  0.5514262106420202  0.7500009978157962  1.0000
  O   O10       1.0  0.5514276457652797  0.44857192984029126  0.24999950200006543  1.0000
