data_image0
_chemical_formula_structural       K2H30C32S4O8
_chemical_formula_sum              "K2 H30 C32 S4 O8"
_cell_length_a       6.0807788057427565
_cell_length_b       7.092288301008261
_cell_length_c       18.61899829130833
_cell_angle_alpha    98.0212076228625
_cell_angle_beta     93.77114566022249
_cell_angle_gamma    96.29719096207711

_space_group_name_H-M_alt    "P 1"
_space_group_IT_number       1

loop_
  _space_group_symop_operation_xyz
  'x, y, z'

loop_
  _atom_site_type_symbol
  _atom_site_label
  _atom_site_symmetry_multiplicity
  _atom_site_fract_x
  _atom_site_fract_y
  _atom_site_fract_z
  _atom_site_occupancy
  K   K1        1.0  0.784789594145522  0.7071187093665117  0.9768698032839963  1.0000
  K   K2        1.0  0.21523232377541038  0.2928893976840783  0.0231293521085192  1.0000
  H   H1        1.0  0.7076345858291333  0.16250601060761474  0.2294468531172669  1.0000
  H   H2        1.0  0.2923692072040538  0.8375020827063223  0.7705492224474426  1.0000
  H   H3        1.0  0.6517234065051909  0.23539305146550046  0.3591727027091451  1.0000
  H   H4        1.0  0.34826639702480117  0.7646093283742915  0.640823848631527  1.0000
  H   H5        1.0  0.9299347877359521  0.16231445153723456  0.45348579466227795  1.0000
  H   H6        1.0  0.07004761671465327  0.837682226906601  0.5465129874907646  1.0000
  H   H7        1.0  0.2636449845526414  0.010736389374450499  0.413552951790841  1.0000
  H   H8        1.0  0.7363384620464755  0.9892560086189092  0.5864477806813255  1.0000
  H   H9        1.0  0.32425020054688497  0.9427489812370948  0.2847280775701577  1.0000
  H   H10       1.0  0.6757396358164982  0.05724198253162879  0.7152732568347062  1.0000
  H   H11       1.0  0.43439629720769785  0.9827597633352096  0.17047378073657168  1.0000
  H   H12       1.0  0.5656058777621311  0.0172369633298999  0.8295313413086235  1.0000
  H   H13       1.0  0.2724863521121462  0.7607666183286382  0.1780851427092358  1.0000
  H   H14       1.0  0.7275100407133834  0.23923579156937785  0.8219147758422595  1.0000
  H   H15       1.0  0.8698291989179266  0.567323552059996  0.6765513235485017  1.0000
  H   H16       1.0  0.13016245353571068  0.43268026661380776  0.3234458792198893  1.0000
  H   H17       1.0  0.8762292817654184  0.447558098531644  0.546386116848872  1.0000
  H   H18       1.0  0.12377659594087476  0.5524414278879914  0.4536133219626066  1.0000
  H   H19       1.0  0.5400481712728293  0.25293670911955957  0.47684277638963124  1.0000
  H   H20       1.0  0.4599618440745701  0.747057081602513  0.5231569936767854  1.0000
  H   H21       1.0  0.2058725479129535  0.17390272783592306  0.5424063432656325  1.0000
  H   H22       1.0  0.7941348143682915  0.826083862814208  0.4575903125241468  1.0000
  H   H23       1.0  0.19867898515334298  0.28585813045575037  0.6721581138006272  1.0000
  H   H24       1.0  0.8013252827635781  0.7141298974614402  0.3278385488789084  1.0000
  H   H25       1.0  0.25965505568758823  0.3048523869164299  0.8063787262211478  1.0000
  H   H26       1.0  0.7403398869007274  0.6951515187066449  0.19362660885034444  1.0000
  H   H27       1.0  0.149490706981112  0.48779126076689755  0.763603860183139  1.0000
  H   H28       1.0  0.8504962364296631  0.5122025745850178  0.23639755943224122  1.0000
  H   H29       1.0  0.29984042553397217  0.7954366915494121  0.9521907586352398  1.0000
  H   H30       1.0  0.7001664569743582  0.20457004241097104  0.04781229612886761  1.0000
  C   C1        1.0  0.0204365533727184  0.0482473912344048  0.24699170795400247  1.0000
  C   C2        1.0  0.9795612863051985  0.9517535768786799  0.7530076306007558  1.0000
  C   C3        1.0  0.830817175497593  0.12976603330725567  0.2697172378652866  1.0000
  C   C4        1.0  0.16918436428415615  0.8702377765137825  0.7302801791960789  1.0000
  C   C5        1.0  0.7994188988878577  0.1709509954148913  0.3433827603394022  1.0000
  C   C6        1.0  0.2005737964664718  0.829048530821744  0.6566153179651762  1.0000
  C   C7        1.0  0.9553245804881172  0.13028317389475316  0.3958925363542249  1.0000
  C   C8        1.0  0.044661119362430696  0.8697135075915056  0.6041068546212786  1.0000
  C   C9        1.0  0.1417399683962728  0.04703777053684629  0.3736845908447465  1.0000
  C   C10       1.0  0.8582502730470765  0.9529560259040649  0.6263136758527779  1.0000
  C   C11       1.0  0.17603943566331273  0.0064516527120659  0.2998905991194576  1.0000
  C   C12       1.0  0.8239514081347393  0.9935464766439774  0.7001105894977115  1.0000
  C   C13       1.0  0.28731574892796624  0.8826843488134342  0.1475609377191489  1.0000
  C   C14       1.0  0.7126919750693402  0.11731665839364779  0.8524429142603722  1.0000
  C   C15       1.0  0.3277093292665825  0.805641654604443  0.06991224566789361  1.0000
  C   C16       1.0  0.6723074420742206  0.19436504652978212  0.9300888738232801  1.0000
  C   C17       1.0  0.5339211276072504  0.4374658362454015  0.684080312791707  1.0000
  C   C18       1.0  0.46607920370419714  0.5625293676788415  0.31591663434512185  1.0000
  C   C19       1.0  0.724792900939377  0.4784094038916462  0.6474308035716234  1.0000
  C   C20       1.0  0.27520863733801093  0.5215944299027768  0.3525687630556362  1.0000
  C   C21       1.0  0.7276198931167954  0.410942820176423  0.5737206146190134  1.0000
  C   C22       1.0  0.2723806373498263  0.5890538540240227  0.4262796351874201  1.0000
  C   C23       1.0  0.5408655714018025  0.3017310385884713  0.5349730606971832  1.0000
  C   C24       1.0  0.45914239586677047  0.6982598430233652  0.46502275527191034  1.0000
  C   C25       1.0  0.3528906048524831  0.25932558298195113  0.5714446960173944  1.0000
  C   C26       1.0  0.6471206563116708  0.7406653256457003  0.4285538783400611  1.0000
  C   C27       1.0  0.3478912366955385  0.3245474697037664  0.6456150015255916  1.0000
  C   C28       1.0  0.6521101367644204  0.6754434537699934  0.3543838959303613  1.0000
  C   C29       1.0  0.2792577431871806  0.45917274698014404  0.8034864054175302  1.0000
  C   C30       1.0  0.7207378432392986  0.5408239376400346  0.1965142746338913  1.0000
  C   C31       1.0  0.23076706968422656  0.562741124037899  0.8765712993832225  1.0000
  C   C32       1.0  0.7692408232675021  0.4372727275630267  0.12342731046139481  1.0000
  S   S1        1.0  0.043217912583884306  0.005306450049509699  0.1525450637200123  1.0000
  S   S2        1.0  0.9567906200690075  0.9947002464753322  0.847454802410745  1.0000
  S   S3        1.0  0.5488493722304922  0.5409224344949592  0.7762345553383483  1.0000
  S   S4        1.0  0.4511431220882115  0.45907565143219387  0.2237629072539917  1.0000
  O   O1        1.0  0.44608602992376223  0.6721041369929567  0.061063090263282015  1.0000
  O   O2        1.0  0.5539272431010218  0.3279011507560979  0.9389394916505722  1.0000
  O   O3        1.0  0.24215591654273536  0.8853411233361114  0.01775621434286729  1.0000
  O   O4        1.0  0.757868250868732  0.1146713271408402  0.9822469734677314  1.0000
  O   O5        1.0  0.0775686798338668  0.4934184250006267  0.9091273164720661  1.0000
  O   O6        1.0  0.9224217245464672  0.5065883117276753  0.09087430635413088  1.0000
  O   O7        1.0  0.35228741586539764  0.728274789540876  0.8995478712739668  1.0000
  O   O8        1.0  0.6477180212949064  0.27173336223106037  0.1004536139209762  1.0000
