data_image0
_chemical_formula_structural       Zn16H96C192O52
_chemical_formula_sum              "Zn16 H96 C192 O52"
_cell_length_a       19.898180010011593
_cell_length_b       19.898181116005645
_cell_length_c       39.77540415703236
_cell_angle_alpha    90.0000822212397
_cell_angle_beta     90.00012087650073
_cell_angle_gamma    90.00002631235397

_space_group_name_H-M_alt    "P 1"
_space_group_IT_number       1

loop_
  _space_group_symop_operation_xyz
  'x, y, z'

loop_
  _atom_site_type_symbol
  _atom_site_label
  _atom_site_symmetry_multiplicity
  _atom_site_fract_x
  _atom_site_fract_y
  _atom_site_fract_z
  _atom_site_occupancy
  Zn  Zn1       1.0  0.30704539236371176  0.1929533476110521  0.32429787887632244  1.0000
  Zn  Zn2       1.0  0.19295407960953526  0.3070446540200678  0.32429685397996627  1.0000
  Zn  Zn3       1.0  0.3070434575240597  0.3070453973167986  0.8242961076929589  1.0000
  Zn  Zn4       1.0  0.1929520923809065  0.19294901292973782  0.8242985206481492  1.0000
  Zn  Zn5       1.0  0.6929558648738307  0.6929552052991781  0.1757026631553416  1.0000
  Zn  Zn6       1.0  0.8070487376964551  0.8070500820139798  0.17570226149360477  1.0000
  Zn  Zn7       1.0  0.6929524223637384  0.8070442396575576  0.6757036574982536  1.0000
  Zn  Zn8       1.0  0.8070487606935756  0.6929504204510836  0.6757004083983063  1.0000
  Zn  Zn9       1.0  0.30687895171461577  0.306878754301053  0.2674190507458434  1.0000
  Zn  Zn10      1.0  0.19311575735603273  0.1931160688253968  0.267417189995939  1.0000
  Zn  Zn11      1.0  0.19311633524081628  0.3068834657468146  0.7674184356371612  1.0000
  Zn  Zn12      1.0  0.3068784722371732  0.19311932484465902  0.7674199633005614  1.0000
  Zn  Zn13      1.0  0.6931163271414603  0.806883790567454  0.23258207589771024  1.0000
  Zn  Zn14      1.0  0.8068789666883162  0.6931216598936346  0.23257958097568826  1.0000
  Zn  Zn15      1.0  0.8068825599241122  0.8068815184393613  0.7325815808507485  1.0000
  Zn  Zn16      1.0  0.6931218783602019  0.6931208431993596  0.7325804743378441  1.0000
  H   H1        1.0  0.5141436218798461  0.32815058239955164  0.2583497438802524  1.0000
  H   H2        1.0  0.9858565765877146  0.17184946991918082  0.2583489310441606  1.0000
  H   H3        1.0  0.17184808692163495  0.5141430951556032  0.7583493263523806  1.0000
  H   H4        1.0  0.32815093239219806  0.9858565979839116  0.7583490753371009  1.0000
  H   H5        1.0  0.4858556872103462  0.8281520315865973  0.24165039238923916  1.0000
  H   H6        1.0  0.014144670956014196  0.6718491948045013  0.2416508416006593  1.0000
  H   H7        1.0  0.8281511763647772  0.014142747390366101  0.7416507313805312  1.0000
  H   H8        1.0  0.6718495526384841  0.48585567588002476  0.7416503154074405  1.0000
  H   H9        1.0  0.48585670563804223  0.67184901510182  0.7416505354381187  1.0000
  H   H10       1.0  0.014143750927750899  0.8281511326973855  0.7416500912163215  1.0000
  H   H11       1.0  0.8281517380376112  0.4858559997871625  0.2416509529655428  1.0000
  H   H12       1.0  0.6718478874485214  0.0141429995160323  0.24165044974552793  1.0000
  H   H13       1.0  0.5141451428648197  0.1718490735892999  0.7583491326949883  1.0000
  H   H14       1.0  0.98585615911869  0.3281499001374115  0.7583486834828506  1.0000
  H   H15       1.0  0.171849653710872  0.9858558449937718  0.2583492965260987  1.0000
  H   H16       1.0  0.3281502723194051  0.5141444241786529  0.2583492096758917  1.0000
  H   H17       1.0  0.6398108937237125  0.328910982023622  0.2581838787771176  1.0000
  H   H18       1.0  0.8601893040448942  0.1710880647028787  0.25818343559185314  1.0000
  H   H19       1.0  0.17108824693733027  0.6398103597772645  0.758183439372452  1.0000
  H   H20       1.0  0.3289112742367308  0.8601888303289869  0.7581838531736835  1.0000
  H   H21       1.0  0.36018891827556127  0.8289113688594653  0.241817012273124  1.0000
  H   H22       1.0  0.1398124457091114  0.6710893554504125  0.2418168393304541  1.0000
  H   H23       1.0  0.8289120791770939  0.13981051539531825  0.7418164571699891  1.0000
  H   H24       1.0  0.6710891530841749  0.3601889134677805  0.741816201585344  1.0000
  H   H25       1.0  0.36018943379352913  0.6710881129188948  0.74181614912942  1.0000
  H   H26       1.0  0.13981102347140245  0.8289115327974129  0.7418160894915715  1.0000
  H   H27       1.0  0.8289135882548421  0.3601882326067383  0.24181633712305478  1.0000
  H   H28       1.0  0.6710875456061131  0.1398107671723992  0.24181667755554057  1.0000
  H   H29       1.0  0.6398119118015018  0.1710887312008893  0.7581835184573436  1.0000
  H   H30       1.0  0.8601893894845816  0.3289112471682998  0.7581834399890752  1.0000
  H   H31       1.0  0.17108925345537782  0.8601875744293536  0.2581828165017725  1.0000
  H   H32       1.0  0.3289106718750077  0.6398121917086146  0.2581838263216554  1.0000
  H   H33       1.0  0.6401808986569576  0.17204348527074126  0.33305622341143254  1.0000
  H   H34       1.0  0.859819614867895  0.3279562787778261  0.3330553896328468  1.0000
  H   H35       1.0  0.32795601784049205  0.6401798836751594  0.8330561744430652  1.0000
  H   H36       1.0  0.17204381909245814  0.8598200237549563  0.8330566738366301  1.0000
  H   H37       1.0  0.3598188413026334  0.6720441597309232  0.1669445550188229  1.0000
  H   H38       1.0  0.14018120180832477  0.8279563498147979  0.16694474649744961  1.0000
  H   H39       1.0  0.6720438058867444  0.14018025504787351  0.6669444765994257  1.0000
  H   H40       1.0  0.8279576131785118  0.35981895905285916  0.6669446377159929  1.0000
  H   H41       1.0  0.35981993141839297  0.8279561122300335  0.666943553083904  1.0000
  H   H42       1.0  0.1401802100893477  0.6720433187219967  0.666943884038659  1.0000
  H   H43       1.0  0.672044812236109  0.3598182061511963  0.1669443562866775  1.0000
  H   H44       1.0  0.827956005869673  0.1401800763065992  0.166944862539907  1.0000
  H   H45       1.0  0.6401814862157877  0.3279554377708109  0.833055975711197  1.0000
  H   H46       1.0  0.8598191257097908  0.17204425280357327  0.8330555328212839  1.0000
  H   H47       1.0  0.32795702418902545  0.8598188398947642  0.3330555513073747  1.0000
  H   H48       1.0  0.17204422201677264  0.6401816435669403  0.33305639583849  1.0000
  H   H49       1.0  0.5145211650633142  0.17226709494554626  0.33305439730102654  1.0000
  H   H50       1.0  0.9854783433366521  0.3277331716558792  0.33305344456815084  1.0000
  H   H51       1.0  0.32773235043816834  0.5145206595223896  0.8330538665128556  1.0000
  H   H52       1.0  0.17226648136618647  0.9854797504580617  0.8330534507101817  1.0000
  H   H53       1.0  0.4854780724396904  0.6722668220012197  0.166946129877509  1.0000
  H   H54       1.0  0.014521468119518497  0.8277331849905777  0.166946439989772  1.0000
  H   H55       1.0  0.6722664104638127  0.014521031003710001  0.6669464429027627  1.0000
  H   H56       1.0  0.8277345060502268  0.4854776805434612  0.6669461911753132  1.0000
  H   H57       1.0  0.4854796650143883  0.8277335076736637  0.6669463848412747  1.0000
  H   H58       1.0  0.014520476503420797  0.6722659232852097  0.6669458291026444  1.0000
  H   H59       1.0  0.6722674745213836  0.48547743030373874  0.1669466642163613  1.0000
  H   H60       1.0  0.8277323384759399  0.014521354718098695  0.1669465771962848  1.0000
  H   H61       1.0  0.5145227576367191  0.32773277550027297  0.833054149441125  1.0000
  H   H62       1.0  0.985477854280141  0.1722659099513493  0.833053336504591  1.0000
  H   H63       1.0  0.3277339170530169  0.9854785664969444  0.3330533335923036  1.0000
  H   H64       1.0  0.17226732914388518  0.514522419517121  0.3330543395556873  1.0000
  H   H65       1.0  0.3263152080946909  0.1736849053902958  0.42797803541380824  1.0000
  H   H66       1.0  0.17368269089773486  0.3263164089915024  0.42797951813082596  1.0000
  H   H67       1.0  0.326318307698358  0.3263171611413823  0.927980300654106  1.0000
  H   H68       1.0  0.17368572039944039  0.1736850848860598  0.9279781540288711  1.0000
  H   H69       1.0  0.6736860402921322  0.6736854517144266  0.07202173854902581  1.0000
  H   H70       1.0  0.8263171199091203  0.8263175279650736  0.0720208682336576  1.0000
  H   H71       1.0  0.6736831091869105  0.8263167023428083  0.5720209868459776  1.0000
  H   H72       1.0  0.8263141187133554  0.6736841936278566  0.5720220182443043  1.0000
  H   H73       1.0  0.32666059820638077  0.1733402404503224  0.4908073153493148  1.0000
  H   H74       1.0  0.1733400785461043  0.3266607515929465  0.4908085465389647  1.0000
  H   H75       1.0  0.3266606826150634  0.3266594936653959  0.9908088265996824  1.0000
  H   H76       1.0  0.17334059509727237  0.17333941467053648  0.9908074335996487  1.0000
  H   H77       1.0  0.6733396449050629  0.673340606395918  0.0091924583654688  1.0000
  H   H78       1.0  0.8266597324192518  0.8266611879467545  0.009192091484130999  1.0000
  H   H79       1.0  0.673340231868785  0.8266608647255821  0.5091922097349127  1.0000
  H   H80       1.0  0.8266597464166664  0.6733398510274712  0.509193241249406  1.0000
  H   H81       1.0  0.32665178432549874  0.17334843929661053  0.6009120419448166  1.0000
  H   H82       1.0  0.17334734653221764  0.32665286856957476  0.6009122674905782  1.0000
  H   H83       1.0  0.32665378056015015  0.32665168411189427  0.1009118978207155  1.0000
  H   H84       1.0  0.17334826724635377  0.1733471844359542  0.1009120133038692  1.0000
  H   H85       1.0  0.6733465469577381  0.6733479133894845  0.8990883814976556  1.0000
  H   H86       1.0  0.8266525628308156  0.8266534181828928  0.8990885174267831  1.0000
  H   H87       1.0  0.673348040634096  0.8266521633216468  0.3990882373736468  1.0000
  H   H88       1.0  0.8266534835437794  0.6733472314900553  0.3990877604165846  1.0000
  H   H89       1.0  0.32633178712571004  0.17366815655309858  0.6637523838803148  1.0000
  H   H90       1.0  0.17366710618757245  0.32633282900558663  0.663752358122366  1.0000
  H   H91       1.0  0.3263327780962938  0.32633114184263695  0.1637522395258557  1.0000
  H   H92       1.0  0.17366852960778084  0.1736674043979605  0.163752355577401  1.0000
  H   H93       1.0  0.6736670468618938  0.6736679530994039  0.8362475369687701  1.0000
  H   H94       1.0  0.8263317979096881  0.8263326956615488  0.836247672329499  1.0000
  H   H95       1.0  0.6736695455095755  0.8263329486239924  0.3362478954391293  1.0000
  H   H96       1.0  0.826333723888652  0.6736682761710355  0.33624766978515913  1.0000
  C   C1        1.0  0.43200149693533524  0.24995402266101513  0.2957378532143125  1.0000
  C   C2        1.0  0.067998859710876  0.2500464098416018  0.2957371583443873  1.0000
  C   C3        1.0  0.25004173039607025  0.4320014880319364  0.7957390273474587  1.0000
  C   C4        1.0  0.24995018115782128  0.0679978658789864  0.795736885341185  1.0000
  C   C5        1.0  0.5679992839189864  0.7499579151187062  0.20426172409379012  1.0000
  C   C6        1.0  0.9320014186254753  0.7500444387626716  0.2042621676160223  1.0000
  C   C7        1.0  0.7499532017638301  0.9320009410245543  0.7042628388465388  1.0000
  C   C8        1.0  0.7500445838317519  0.5679988265909086  0.7042619539955837  1.0000
  C   C9        1.0  0.5679983280244868  0.7500475850742349  0.7042624261045134  1.0000
  C   C10       1.0  0.9320009652467575  0.7499572081258279  0.704261863916912  1.0000
  C   C11       1.0  0.7499570894479463  0.5679986120286672  0.20426200620525495  1.0000
  C   C12       1.0  0.7500451207721639  0.9320017316194297  0.2042621369162845  1.0000
  C   C13       1.0  0.4320010436006497  0.25004469773437427  0.7957390580489658  1.0000
  C   C14       1.0  0.06799890888542848  0.2499501331497669  0.7957353461723926  1.0000
  C   C15       1.0  0.250046120637009  0.0679986564765898  0.29573744047130646  1.0000
  C   C16       1.0  0.24995323089191857  0.43200077090880734  0.2957375710865051  1.0000
  C   C17       1.0  0.5069641315396537  0.2501053098683741  0.2956589495673114  1.0000
  C   C18       1.0  0.9930367268292882  0.2498958545850698  0.2956579489285005  1.0000
  C   C19       1.0  0.24989349267628572  0.5069631133363188  0.7956596080963863  1.0000
  C   C20       1.0  0.2501031711906164  0.993036184263886  0.7956585256322626  1.0000
  C   C21       1.0  0.49303514170863133  0.7501071578927282  0.2043408792595329  1.0000
  C   C22       1.0  0.006964053997108999  0.749894464038313  0.20434162833594627  1.0000
  C   C23       1.0  0.7501042596394285  0.0069631252683351  0.7043414501277283  1.0000
  C   C24       1.0  0.7498963120213203  0.4930356935429501  0.7043413730896546  1.0000
  C   C25       1.0  0.4930361959778152  0.749894790191135  0.7043410783395957  1.0000
  C   C26       1.0  0.006963098127236801  0.7501052505895204  0.7043408219202406  1.0000
  C   C27       1.0  0.7501068348425478  0.493035981607285  0.204341174045112  1.0000
  C   C28       1.0  0.7498936384154719  0.006963413235240499  0.2043407480376516  1.0000
  C   C29       1.0  0.5069646832497198  0.24989495239993434  0.7956586458245242  1.0000
  C   C30       1.0  0.9930362735170207  0.25010262066840727  0.7956571425116223  1.0000
  C   C31       1.0  0.24989657043528268  0.9930359696735775  0.2956580749557816  1.0000
  C   C32       1.0  0.25010401549603506  0.5069639039580593  0.2956586548170677  1.0000
  C   C33       1.0  0.5423522583464759  0.2942590722193614  0.2745826426238978  1.0000
  C   C34       1.0  0.957647506021608  0.20574102666212468  0.27458207576029997  1.0000
  C   C35       1.0  0.20574117712634887  0.5423522372294657  0.7745822503876383  1.0000
  C   C36       1.0  0.2942579106474738  0.9576469999151345  0.7745826975850107  1.0000
  C   C37       1.0  0.4576480402972649  0.7942594567733537  0.22541797213727222  1.0000
  C   C38       1.0  0.04235325452910389  0.7057412204980622  0.2254182240395366  1.0000
  C   C39       1.0  0.7942591042318481  0.04235182733692971  0.7254178275980081  1.0000
  C   C40       1.0  0.7057415563130078  0.45764705192945604  0.7254174271417497  1.0000
  C   C41       1.0  0.45764806917175355  0.7057420329575094  0.7254176366950134  1.0000
  C   C42       1.0  0.042351816377937695  0.7942575657213026  0.7254177007338783  1.0000
  C   C43       1.0  0.7942596529500605  0.4576473602720269  0.2254180289310028  1.0000
  C   C44       1.0  0.7057409091951355  0.0423515924692595  0.225417833143851  1.0000
  C   C45       1.0  0.542353794896961  0.2057411458457211  0.7745825585939059  1.0000
  C   C46       1.0  0.9576470729888981  0.29425887956180935  0.7745820552790192  1.0000
  C   C47       1.0  0.20574222840179593  0.9576467650469594  0.2745819488972359  1.0000
  C   C48       1.0  0.2942572635272994  0.542353048128632  0.2745818465294079  1.0000
  C   C49       1.0  0.6121546220546747  0.2946797295819295  0.2744936798845572  1.0000
  C   C50       1.0  0.8878456444951227  0.2053208716017991  0.2744922848167235  1.0000
  C   C51       1.0  0.20531954636403776  0.6121545969244195  0.7744932754975906  1.0000
  C   C52       1.0  0.29467903847539384  0.8878446399644205  0.7744934216147428  1.0000
  C   C53       1.0  0.3878461793407624  0.7946800823353257  0.22550693517886336  1.0000
  C   C54       1.0  0.1121551158622367  0.705321600309091  0.22550776327000221  1.0000
  C   C55       1.0  0.7946792593755346  0.1121536849226885  0.7255073554236874  1.0000
  C   C56       1.0  0.7053229092233052  0.3878446920429965  0.7255074072349927  1.0000
  C   C57       1.0  0.38784570546332725  0.7053203704779422  0.7255065994339915  1.0000
  C   C58       1.0  0.11215468301929118  0.7946797310140497  0.7255062346204539  1.0000
  C   C59       1.0  0.7946807811549091  0.387845000577677  0.2255075066440853  1.0000
  C   C60       1.0  0.7053187762491077  0.11215395241902829  0.2255066062902955  1.0000
  C   C61       1.0  0.6121551532938767  0.2053205202829176  0.774493092728747  1.0000
  C   C62       1.0  0.8878452116552396  0.29467849975041827  0.7744922646368977  1.0000
  C   C63       1.0  0.20532157069906276  0.8878449074607248  0.2744921696596379  1.0000
  C   C64       1.0  0.29467842341227873  0.6121554080174718  0.2744931234957377  1.0000
  C   C65       1.0  0.6481584517057043  0.2504400461638241  0.2955999424561853  1.0000
  C   C66       1.0  0.8518419038550887  0.24955910788604993  0.2955987925630055  1.0000
  C   C67       1.0  0.24955882099356325  0.6481584306563305  0.7955998226312674  1.0000
  C   C68       1.0  0.2504403554159751  0.851841871891253  0.7955996448001343  1.0000
  C   C69       1.0  0.35184232937375975  0.7504408244004352  0.2044008922579863  1.0000
  C   C70       1.0  0.1481583742605466  0.7495613002614477  0.20440153869565586  1.0000
  C   C71       1.0  0.7504400012815537  0.14815794035542504  0.7044013369617375  1.0000
  C   C72       1.0  0.7495625808662894  0.3518413811868157  0.7044014096140714  1.0000
  C   C73       1.0  0.35184187581153736  0.7495590487786925  0.7044000854503522  1.0000
  C   C74       1.0  0.14815842365885598  0.7504394844958072  0.7043997268734543  1.0000
  C   C75       1.0  0.7504420090844449  0.35184116684624206  0.2044012109223203  1.0000
  C   C76       1.0  0.7495594695439179  0.14815772561036766  0.20440088592962272  1.0000
  C   C77       1.0  0.648158500703417  0.24955977821840492  0.7955996384726659  1.0000
  C   C78       1.0  0.8518424558167438  0.2504398049158993  0.795598992035174  1.0000
  C   C79       1.0  0.24956133135191289  0.8518421597036008  0.2955981881223906  1.0000
  C   C80       1.0  0.25043975688740255  0.6481587188745978  0.2955996239404897  1.0000
  C   C81       1.0  0.6123210376182228  0.20606716826688398  0.3167194918877101  1.0000
  C   C82       1.0  0.8876789044502259  0.29393305147864623  0.3167179088500021  1.0000
  C   C83       1.0  0.2939322622801797  0.6123210246946087  0.8167191660413807  1.0000
  C   C84       1.0  0.20606700319518714  0.8876788358732526  0.8167189671082653  1.0000
  C   C85       1.0  0.3876782154081795  0.7060668972649963  0.1832815623802588  1.0000
  C   C86       1.0  0.11232189660089628  0.7939341617006478  0.1832819514426802  1.0000
  C   C87       1.0  0.7060670460956044  0.11232095599552142  0.6832819678232482  1.0000
  C   C88       1.0  0.7939354469864099  0.3876788075264416  0.6832821130343234  1.0000
  C   C89       1.0  0.38767878734167016  0.7939324292347365  0.6832810388420469  1.0000
  C   C90       1.0  0.11232142306448621  0.7060665460205656  0.6832808619984689  1.0000
  C   C91       1.0  0.7060685677971817  0.38767807024910184  0.1832816161003805  1.0000
  C   C92       1.0  0.7939323192061849  0.11232076162825419  0.1832815636212288  1.0000
  C   C93       1.0  0.6123216095517136  0.29393270023662404  0.8167189683494982  1.0000
  C   C94       1.0  0.8876794360337353  0.20606644091759557  0.8167180764649302  1.0000
  C   C95       1.0  0.2939347890962693  0.8876786415051183  0.3167175572609722  1.0000
  C   C96       1.0  0.20606739332634308  0.6123212925354551  0.3167191719321565  1.0000
  C   C97       1.0  0.5425468171407672  0.206140525804699  0.31673252850084316  1.0000
  C   C98       1.0  0.9574531249830471  0.2938606990953261  0.3167310190488593  1.0000
  C   C99       1.0  0.29385837018235605  0.5425463054939711  0.8167319629498307  1.0000
  C   C100      1.0  0.20613938767097298  0.9574535551099643  0.8167315627756936  1.0000
  C   C101      1.0  0.4574524359190307  0.7061412919250145  0.1832682744085119  1.0000
  C   C102      1.0  0.04254767603449489  0.7938602695612574  0.1832688411913281  1.0000
  C   C103      1.0  0.7061399010326496  0.0425467393499304  0.6832688694093321  1.0000
  C   C104      1.0  0.793861586876531  0.4574525215754406  0.6832688132242383  1.0000
  C   C105      1.0  0.4574530078197724  0.7938595742557836  0.6832682536407475  1.0000
  C   C106      1.0  0.04254669997443019  0.7061399035214889  0.683268254623009  1.0000
  C   C107      1.0  0.706141957335717  0.4574517843322782  0.18326856777964906  1.0000
  C   C108      1.0  0.7938584270538699  0.042546544948969305  0.1832684651298848  1.0000
  C   C109      1.0  0.5425478915990921  0.29385931069335663  0.8167320049102216  1.0000
  C   C110      1.0  0.9574531540407419  0.20613882538101075  0.8167309353038306  1.0000
  C   C111      1.0  0.2938614316011082  0.9574523555924516  0.3167309070860895  1.0000
  C   C112      1.0  0.20613974576011165  0.5425475784857455  0.31673222032979  1.0000
  C   C113      1.0  0.7193574257546373  0.2503360329933599  0.2956625814906104  1.0000
  C   C114      1.0  0.7806424275126531  0.24966060844455748  0.295662110764205  1.0000
  C   C115      1.0  0.2496618619740403  0.7193574007545324  0.7956634553911428  1.0000
  C   C116      1.0  0.2503373147041542  0.780642399417367  0.7956634777467713  1.0000
  C   C117      1.0  0.2806423501592903  0.7503382860275707  0.2043377503255854  1.0000
  C   C118      1.0  0.21935785064866306  0.749663335893608  0.20433771774420958  1.0000
  C   C119      1.0  0.7503385006747364  0.21935540254943933  0.7043382581413908  1.0000
  C   C120      1.0  0.7496645837657993  0.28064291369527444  0.7043385311975285  1.0000
  C   C121      1.0  0.28064239920043826  0.7496610517128914  0.7043359379450465  1.0000
  C   C122      1.0  0.21935840255852668  0.7503369788196963  0.7043359058488577  1.0000
  C   C123      1.0  0.7503394706631352  0.280642699307009  0.2043378295745413  1.0000
  C   C124      1.0  0.749663515374678  0.21935619296893805  0.2043380586297516  1.0000
  C   C125      1.0  0.7193564696847332  0.24966181403303989  0.7956632832271211  1.0000
  C   C126      1.0  0.7806444871043181  0.2503382718425726  0.7956628129875938  1.0000
  C   C127      1.0  0.24966333451796166  0.7806431898349259  0.2956617697657649  1.0000
  C   C128      1.0  0.25033725142937163  0.7193571863660254  0.2956625023567696  1.0000
  C   C129      1.0  0.2500016267976335  0.2500028596869229  0.3868284720902651  1.0000
  C   C130      1.0  0.2500006708815974  0.25000106399558325  0.8868289226565055  1.0000
  C   C131      1.0  0.750002169429905  0.7500005437407181  0.113171608075568  1.0000
  C   C132      1.0  0.7499946802517528  0.7499977429301621  0.6131715558146951  1.0000
  C   C133      1.0  0.2500012032797301  0.25000090321312024  0.42431294350073756  1.0000
  C   C134      1.0  0.250001252479386  0.25000011263792743  0.9243126398329196  1.0000
  C   C135      1.0  0.750001587831292  0.7500025002146488  0.07568738807621139  1.0000
  C   C136      1.0  0.7499966114461785  0.749999196846538  0.5756875872281385  1.0000
  C   C137      1.0  0.29311673178875  0.20688443484706207  0.4420568308173571  1.0000
  C   C138      1.0  0.20688172913571634  0.29311893015180607  0.44205782191400544  1.0000
  C   C139      1.0  0.29311931358525095  0.2931176568206695  0.942058066575818  1.0000
  C   C140      1.0  0.20688427132631657  0.20688362447226183  0.9420572358806325  1.0000
  C   C141      1.0  0.7068830241682632  0.7068839509158734  0.057942715567634195  1.0000
  C   C142      1.0  0.7931175638663602  0.7931194909378546  0.05794228920484561  1.0000
  C   C143      1.0  0.7068805803776144  0.7931181780038798  0.5579429456772047  1.0000
  C   C144      1.0  0.7931155830333764  0.7068816724673183  0.557943463049739  1.0000
  C   C145      1.0  0.29326003450127297  0.2067407531860184  0.47694472272862504  1.0000
  C   C146      1.0  0.20674209146139327  0.293258188858303  0.47694470813092954  1.0000
  C   C147      1.0  0.2932596010095807  0.293257418149949  0.9769449529406343  1.0000
  C   C148      1.0  0.20674212079516963  0.20674094786158284  0.9769443734066741  1.0000
  C   C149      1.0  0.706742234185583  0.7067426819113508  0.0230560806136637  1.0000
  C   C150      1.0  0.7932587092798826  0.793259654755822  0.0230551516773687  1.0000
  C   C151      1.0  0.7067418006921854  0.7932588443157086  0.5230555565905419  1.0000
  C   C152      1.0  0.7932582360579659  0.7067409060856563  0.5230563254222105  1.0000
  C   C153      1.0  0.2500003471929658  0.24999949690154466  0.49498928380555907  1.0000
  C   C154      1.0  0.249999893832438  0.2500007165587803  0.9949879744915933  1.0000
  C   C155      1.0  0.7499994285671577  0.7500003886167761  0.0050115505918384  1.0000
  C   C156      1.0  0.7499994777661668  0.7499990954827213  0.5050109955121869  1.0000
  C   C157      1.0  0.24999941701491926  0.25000005042998197  0.5305283318667335  1.0000
  C   C158      1.0  0.2500008754795431  0.249997825647327  0.030523607301262197  1.0000
  C   C159      1.0  0.7499989494764064  0.7500007667347717  0.9694751635465835  1.0000
  C   C160      1.0  0.7500009105040278  0.7499995470721146  0.4694724502749352  1.0000
  C   C161      1.0  0.2499979740801379  0.2500005970219163  0.5612309740110462  1.0000
  C   C162      1.0  0.2500009402257533  0.24999887480171887  0.0612287635630508  1.0000
  C   C163      1.0  0.7500003924056527  0.7499992150222355  0.938770007285413  1.0000
  C   C164      1.0  0.7500018508781635  0.7499990004786169  0.43876880248376443  1.0000
  C   C165      1.0  0.24999905409420356  0.2500006479638373  0.5967501605527303  1.0000
  C   C166      1.0  0.25000252279746593  0.24999741806789197  0.0967476986928091  1.0000
  C   C167      1.0  0.7499978047188306  0.7500021794323999  0.9032518263906155  1.0000
  C   C168      1.0  0.750001775982973  0.74999995465501  0.40325037017792204  1.0000
  C   C169      1.0  0.29326334052745306  0.206736930423844  0.6147949876403871  1.0000
  C   C170      1.0  0.20673534632066293  0.29326542238148795  0.6147954758646605  1.0000
  C   C171      1.0  0.293266326545499  0.2932617097979957  0.1147948195456365  1.0000
  C   C172      1.0  0.20673779004204818  0.20673418322087397  0.1147947428251754  1.0000
  C   C173      1.0  0.70673450353091  0.7067378877034898  0.8852054597729975  1.0000
  C   C174      1.0  0.793262034916779  0.7932654142800217  0.8852052850812839  1.0000
  C   C175      1.0  0.7067379921080672  0.7932651798702466  0.38520529167941936  1.0000
  C   C176      1.0  0.7932659863147362  0.7067361853541101  0.3852048034549682  1.0000
  C   C177      1.0  0.2931201849459697  0.2068802095986015  0.6496826280918455  1.0000
  C   C178      1.0  0.20687915159065534  0.2931217407198332  0.6496828649528865  1.0000
  C   C179      1.0  0.29312266833971984  0.2931185306291937  0.1496824598940094  1.0000
  C   C180      1.0  0.2068815953785759  0.2068779650200199  0.14968238342824242  1.0000
  C   C181      1.0  0.7068781617362774  0.7068815694304362  0.8503175680131605  1.0000
  C   C182      1.0  0.7931187321389005  0.7931221350394893  0.8503176444786575  1.0000
  C   C183      1.0  0.7068821528067133  0.7931224032542233  0.3503176512286643  1.0000
  C   C184      1.0  0.7931231861624396  0.7068803695748472  0.3503176657790945  1.0000
  C   C185      1.0  0.24999920314422033  0.2499997442243257  0.6674358030893188  1.0000
  C   C186      1.0  0.2500021692935448  0.24999802200664328  0.1674353525228796  1.0000
  C   C187      1.0  0.7499981582228656  0.7500020780521481  0.8325641725607227  1.0000
  C   C188      1.0  0.7500036371663369  0.7500023660697509  0.3325642248196274  1.0000
  C   C189      1.0  0.24999727192794552  0.24999778773467096  0.7049094637980389  1.0000
  C   C190      1.0  0.25000023807819355  0.25000008598497203  0.20490901323304203  1.0000
  C   C191      1.0  0.7499980792061718  0.7500020243084293  0.7950912660851728  1.0000
  C   C192      1.0  0.7500035581479381  0.7500018097664594  0.2950905641089463  1.0000
  O   O1        1.0  0.24999490186838358  0.24998865768518638  0.2959331040363438  1.0000
  O   O2        1.0  0.24998741269671132  0.24999791828108897  0.795934811661354  1.0000
  O   O3        1.0  0.7499963303930314  0.7500132380622728  0.2040657190640616  1.0000
  O   O4        1.0  0.7500129640187365  0.7499963656178892  0.7040646611642742  1.0000
  O   O5        1.0  0.40281537732433037  0.2904828170197646  0.27555125672498804  1.0000
  O   O6        1.0  0.09718388907184308  0.20951705502045573  0.2755503121480771  1.0000
  O   O7        1.0  0.20951234630441454  0.4028158676033016  0.7755521484357004  1.0000
  O   O8        1.0  0.2904804852354772  0.09718443352226562  0.7755510758038469  1.0000
  O   O9        1.0  0.5971839144668535  0.790486780783823  0.22444834967924274  1.0000
  O   O10       1.0  0.9028158680909611  0.7095141233240625  0.2244479790678326  1.0000
  O   O11       1.0  0.7904840801240597  0.9028148945519446  0.7244479369241149  1.0000
  O   O12       1.0  0.7095163033942453  0.5971844284074664  0.7244490415458387  1.0000
  O   O13       1.0  0.5971864578681191  0.7095192932733596  0.7244482683601348  1.0000
  O   O14       1.0  0.9028159358852575  0.7904865629466186  0.7244484587015734  1.0000
  O   O15       1.0  0.7904849658650832  0.5971842324576856  0.2244493879395151  1.0000
  O   O16       1.0  0.709518334609413  0.9028171742141923  0.2244502091610485  1.0000
  O   O17       1.0  0.402814402817924  0.20951482695144116  0.7755521810504433  1.0000
  O   O18       1.0  0.0971829517414875  0.2904794434692306  0.7755482776611728  1.0000
  O   O19       1.0  0.20951423715873568  0.0971826927146253  0.275552090980824  1.0000
  O   O20       1.0  0.290482013888365  0.4028146665342264  0.2755507349479913  1.0000
  O   O21       1.0  0.40303204665783443  0.2093267135592214  0.315977466838504  1.0000
  O   O22       1.0  0.0969683953457903  0.2906727718829599  0.3159775859444949  1.0000
  O   O23       1.0  0.2906665873661183  0.40303103925519684  0.81597918470343  1.0000
  O   O24       1.0  0.20932189163274734  0.09696686503418307  0.8159755121492154  1.0000
  O   O25       1.0  0.5969692180963975  0.7093310638232566  0.18402157847911133  1.0000
  O   O26       1.0  0.9030324042094052  0.7906727396783708  0.1840230262420661  1.0000
  O   O27       1.0  0.7093228033486056  0.9030319232104065  0.6840239177476235  1.0000
  O   O28       1.0  0.7906698713039546  0.5969672837888567  0.6840208338670166  1.0000
  O   O29       1.0  0.5969667731858123  0.7906764018516556  0.6840230638919849  1.0000
  O   O30       1.0  0.9030324347288926  0.7093308460847041  0.6840214363173374  1.0000
  O   O31       1.0  0.7093312273602023  0.5969685582463241  0.1840215974369173  1.0000
  O   O32       1.0  0.7906703949424879  0.9030332350195137  0.1840217502252912  1.0000
  O   O33       1.0  0.4030311094231321  0.29067104647132413  0.81597920366346  1.0000
  O   O34       1.0  0.09696792330343128  0.2093233399106396  0.8159752417818353  1.0000
  O   O35       1.0  0.2906745088176023  0.0969676742899139  0.31597611015750715  1.0000
  O   O36       1.0  0.20932693830001634  0.4030323137088275  0.3159774341562951  1.0000
  O   O37       1.0  0.29050127069071857  0.20950366905992718  0.3722797895447272  1.0000
  O   O38       1.0  0.20950141898983787  0.2905025111404314  0.3722795244662294  1.0000
  O   O39       1.0  0.29050083593120485  0.29050123660650945  0.8722797663639242  1.0000
  O   O40       1.0  0.2095009470326303  0.20950084965181762  0.8722796945449148  1.0000
  O   O41       1.0  0.7095025069364737  0.709499366011471  0.1277197587214474  1.0000
  O   O42       1.0  0.7905023958354603  0.7904992504080255  0.127720081951928  1.0000
  O   O43       1.0  0.7094950363598401  0.7904974361163754  0.6277207411837082  1.0000
  O   O44       1.0  0.7904943854992014  0.7094970863584679  0.6277197492031519  1.0000
  O   O45       1.0  0.29049597203248106  0.20949763370357743  0.7194453380152765  1.0000
  O   O46       1.0  0.20949762800705674  0.2904959732259229  0.7194450729373969  1.0000
  O   O47       1.0  0.2904984542243128  0.29049929519300843  0.21944541934930578  1.0000
  O   O48       1.0  0.20950057555883464  0.20950142103018277  0.2194445932973039  1.0000
  O   O49       1.0  0.7095003656179272  0.7095023125416516  0.7805546085573383  1.0000
  O   O50       1.0  0.7904962340479499  0.7905011918199277  0.7805546803736902  1.0000
  O   O51       1.0  0.7095073708366756  0.7905024663569904  0.2805549413048638  1.0000
  O   O52       1.0  0.7904996841578081  0.7095001063645582  0.2805547035548202  1.0000
