data_image0
_chemical_formula_structural       Zr6H76C72O32
_chemical_formula_sum              "Zr6 H76 C72 O32"
_cell_length_a       15.055547158284922
_cell_length_b       15.05559300865661
_cell_length_c       15.055570077847628
_cell_angle_alpha    59.999812009354024
_cell_angle_beta     60.000096034322794
_cell_angle_gamma    60.000129205141334

_space_group_name_H-M_alt    "P 1"
_space_group_IT_number       1

loop_
  _space_group_symop_operation_xyz
  'x, y, z'

loop_
  _atom_site_type_symbol
  _atom_site_label
  _atom_site_symmetry_multiplicity
  _atom_site_fract_x
  _atom_site_fract_y
  _atom_site_fract_z
  _atom_site_occupancy
  Zr  Zr1       1.0  0.8829710756465442  0.8829674225136371  0.617029006050167  1.0000
  Zr  Zr2       1.0  0.11705962752483143  0.1170580157820851  0.3829399870247556  1.0000
  Zr  Zr3       1.0  0.11706018248532492  0.8829466640008478  0.6170513073373699  1.0000
  Zr  Zr4       1.0  0.8829434353197668  0.11706098780733493  0.38293896655257226  1.0000
  Zr  Zr5       1.0  0.11703364898745135  0.8829719714618491  0.38296965574367886  1.0000
  Zr  Zr6       1.0  0.8829804002797345  0.11702352887211037  0.6170174572951621  1.0000
  H   H1        1.0  0.09230238652308734  0.7230956511311318  0.5922884817542736  1.0000
  H   H2        1.0  0.09231778956278447  0.0922880332995817  0.2230857538224953  1.0000
  H   H3        1.0  0.09228773352326411  0.09231560832989784  0.5923076584506504  1.0000
  H   H4        1.0  0.7230993091122927  0.09230083039464869  0.5923142889313837  1.0000
  H   H5        1.0  0.2506128434953041  0.39305562271425737  0.3317982702732322  1.0000
  H   H6        1.0  0.17112953253129592  0.3400240228547844  0.32846308558671206  1.0000
  H   H7        1.0  0.16960308705581165  0.4751896361798487  0.24831597734118552  1.0000
  H   H8        1.0  0.8318018310553011  0.5245362240036542  0.7506084809494311  1.0000
  H   H9        1.0  0.8284674813306692  0.6603886854961872  0.6711260605981764  1.0000
  H   H10       1.0  0.7483221904042452  0.6068943600049225  0.669597278916413  1.0000
  H   H11       1.0  0.1693122018552485  0.6075360425719653  0.24838293723527005  1.0000
  H   H12       1.0  0.17158874117527742  0.6599248630644041  0.3289980707860989  1.0000
  H   H13       1.0  0.2506562933969505  0.5241914286415792  0.33153754298611193  1.0000
  H   H14       1.0  0.7483901962545121  0.4747661074786721  0.6693105226444941  1.0000
  H   H15       1.0  0.8290073002720887  0.3394849541161591  0.671586577273274  1.0000
  H   H16       1.0  0.8315446212839174  0.3936157356939843  0.7506537039222605  1.0000
  H   H17       1.0  0.39305617638758855  0.2506074041779486  0.024535738536165717  1.0000
  H   H18       1.0  0.3400252686709635  0.17112482180764485  0.160386087962152  1.0000
  H   H19       1.0  0.47519049407893005  0.16959795166145136  0.10689233021922452  1.0000
  H   H20       1.0  0.5245386590334392  0.8318010577149549  0.8930524056478574  1.0000
  H   H21       1.0  0.6603906690582092  0.8284648916492968  0.8400189873443153  1.0000
  H   H22       1.0  0.6068963200335062  0.7483196139666646  0.9751854741313793  1.0000
  H   H23       1.0  0.6075377105183861  0.1693099947256228  0.9747678158103812  1.0000
  H   H24       1.0  0.6599254012998798  0.17158671771218784  0.839486570959437  1.0000
  H   H25       1.0  0.5241910029931345  0.2506533216280855  0.8936159432358721  1.0000
  H   H26       1.0  0.4747718993160034  0.7483853481780258  0.10753231044301244  1.0000
  H   H27       1.0  0.33949084592243384  0.8289999103755291  0.15992313407630096  1.0000
  H   H28       1.0  0.3936182565023782  0.8315391584425029  0.024187705264324615  1.0000
  H   H29       1.0  0.8318020938018688  0.25060651695819314  0.8930517060647745  1.0000
  H   H30       1.0  0.8284702705197444  0.1711215282283475  0.8400137265272464  1.0000
  H   H31       1.0  0.7483259929489915  0.16959596723550874  0.9751845201354  1.0000
  H   H32       1.0  0.25060609518929755  0.8318016981184188  0.02453932930581696  1.0000
  H   H33       1.0  0.1711240656028251  0.8284688715308094  0.16039389881399282  1.0000
  H   H34       1.0  0.16959753094941038  0.7483236427665074  0.10689420049235555  1.0000
  H   H35       1.0  0.7483845407880166  0.1693115186915505  0.10753103293665583  1.0000
  H   H36       1.0  0.8289964382170965  0.17159319825164926  0.15991734524742882  1.0000
  H   H37       1.0  0.831537316253282  0.2506602979220674  0.024185053873068726  1.0000
  H   H38       1.0  0.16931278018791582  0.7483818884451878  0.9747747585007003  1.0000
  H   H39       1.0  0.17159205072292838  0.8289940108591549  0.8394966488997468  1.0000
  H   H40       1.0  0.25065925004361106  0.8315362945178109  0.8936177210737668  1.0000
  H   H41       1.0  0.39305366057197927  0.5245388847306601  0.3318024544212576  1.0000
  H   H42       1.0  0.34001585812116986  0.6603926968120886  0.32846835002212765  1.0000
  H   H43       1.0  0.4751854660323857  0.6068938475235582  0.24832483190221655  1.0000
  H   H44       1.0  0.5245405799414724  0.3930514419732988  0.7506061854853598  1.0000
  H   H45       1.0  0.6603957809173693  0.34001234882948966  0.6711216236821256  1.0000
  H   H46       1.0  0.6068954226253991  0.4751844104866407  0.669595626951441  1.0000
  H   H47       1.0  0.6075318142102261  0.4747751361000423  0.24838149432367362  1.0000
  H   H48       1.0  0.6599173001103221  0.3394960085510732  0.3289943563746716  1.0000
  H   H49       1.0  0.5241851566810851  0.3936177146529971  0.33153638822936654  1.0000
  H   H50       1.0  0.474775819695729  0.6075298670946836  0.6693124360413876  1.0000
  H   H51       1.0  0.3394970704635935  0.659915754116213  0.671592905196931  1.0000
  H   H52       1.0  0.3936185646285891  0.524184749618158  0.7506596986157348  1.0000
  H   H53       1.0  0.8318034636972836  0.39305120301364127  0.024535686087098194  1.0000
  H   H54       1.0  0.8284654012378709  0.34001805457928913  0.16038906724399002  1.0000
  H   H55       1.0  0.7483218590705645  0.47518590962275203  0.10689381684954205  1.0000
  H   H56       1.0  0.2506126490410381  0.5245310847802287  0.8930562185134931  1.0000
  H   H57       1.0  0.17113058172707  0.6603829908709287  0.8400197475043498  1.0000
  H   H58       1.0  0.16960139086302908  0.6068924474512303  0.9751878985633552  1.0000
  H   H59       1.0  0.7483880285656137  0.6075283088082982  0.9747710237223829  1.0000
  H   H60       1.0  0.8290020017463035  0.659919277415881  0.839490899101314  1.0000
  H   H61       1.0  0.8315427473178756  0.5241846501532663  0.8936168302908811  1.0000
  H   H62       1.0  0.16931299990766738  0.4747728426622971  0.10753301232989537  1.0000
  H   H63       1.0  0.1715922255948711  0.33949271769583317  0.15992278363862764  1.0000
  H   H64       1.0  0.25065894613877043  0.39361627856970216  0.02418886536241148  1.0000
  H   H65       1.0  0.39305430606137987  0.831801240005028  0.7506082258657827  1.0000
  H   H66       1.0  0.3400208944606291  0.8284642582943745  0.6711260978876651  1.0000
  H   H67       1.0  0.47518902783610156  0.7483196509111707  0.6695975449628476  1.0000
  H   H68       1.0  0.5245354440450354  0.25061180528010846  0.33179850669968397  1.0000
  H   H69       1.0  0.660387517288548  0.17112856121458717  0.3284634068481295  1.0000
  H   H70       1.0  0.6068942397171141  0.16959797973482438  0.24831888099075156  1.0000
  H   H71       1.0  0.6075326303493397  0.7483851566265187  0.6693113123133326  1.0000
  H   H72       1.0  0.6599215583017539  0.8289997093727166  0.6715884082330488  1.0000
  H   H73       1.0  0.5241871348261709  0.8315393669690466  0.7506561891300476  1.0000
  H   H74       1.0  0.47477099620837754  0.1693157876115946  0.2483826148719358  1.0000
  H   H75       1.0  0.33949064564896486  0.17159349586552963  0.3289983127071706  1.0000
  H   H76       1.0  0.3936164347293314  0.2506597511608675  0.33153995977976075  1.0000
  C   C1        1.0  0.997497805037973  0.7005158465068675  0.49753192269510255  1.0000
  C   C2        1.0  0.30446187886806064  0.9975331015546088  0.20050804125185073  1.0000
  C   C3        1.0  0.9975354918084346  0.30446024957864637  0.4974939508286907  1.0000
  C   C4        1.0  0.7005174295640442  0.9974960857313632  0.8044532862321817  1.0000
  C   C5        1.0  0.9975377393433503  0.7004942172144838  0.8044690818323443  1.0000
  C   C6        1.0  0.7004958444928062  0.9975360642602027  0.4974965117830832  1.0000
  C   C7        1.0  0.997499706018978  0.30447534232365536  0.200494242963316  1.0000
  C   C8        1.0  0.3044788291904578  0.9974978449244533  0.49752966531117687  1.0000
  C   C9        1.0  0.3044660088346871  0.7005014084047476  0.4974992476199205  1.0000
  C   C10       1.0  0.9974989247725292  0.9975373213407719  0.8044613521152897  1.0000
  C   C11       1.0  0.7005021384863281  0.3044628010598842  0.49753707039980094  1.0000
  C   C12       1.0  0.9975354409769677  0.9974976455556259  0.20050328962701483  1.0000
  C   C13       1.0  0.9985527733802683  0.40519958104963655  0.4985337998403166  1.0000
  C   C14       1.0  0.9985311840920302  0.5977210502269655  0.49855011410479444  1.0000
  C   C15       1.0  0.08014296284844136  0.45363847997693807  0.41809632319293394  1.0000
  C   C16       1.0  0.9180983162706152  0.548124471476271  0.5801406081107243  1.0000
  C   C17       1.0  0.08016080039452322  0.5481285213952062  0.4181256203756618  1.0000
  C   C18       1.0  0.9181276790263337  0.4535886414118194  0.5801603353340566  1.0000
  C   C19       1.0  0.4052021596277697  0.9985499759864708  0.09771553693436622  1.0000
  C   C20       1.0  0.5977242625212468  0.9985284651996411  0.9051961866947946  1.0000
  C   C21       1.0  0.45364057673789643  0.08013909684917309  0.0481232416186613  1.0000
  C   C22       1.0  0.5481286086076336  0.9180952295721454  0.9536359852496686  1.0000
  C   C23       1.0  0.5481293148166274  0.0801590880109941  0.9535857830951429  1.0000
  C   C24       1.0  0.4535909392130221  0.918124609675722  0.04812419472050782  1.0000
  C   C25       1.0  0.9985357034493912  0.998550924934733  0.9051985675313572  1.0000
  C   C26       1.0  0.9985516214817165  0.9985343437554448  0.09771523254192935  1.0000
  C   C27       1.0  0.9180979483357418  0.0801446482838984  0.9536343732689047  1.0000
  C   C28       1.0  0.0801453428869862  0.9180960353468777  0.04812525716895515  1.0000
  C   C29       1.0  0.9181290126539776  0.08016238111572702  0.048119223490566125  1.0000
  C   C30       1.0  0.08016233058497596  0.9181263545278499  0.9535906714897351  1.0000
  C   C31       1.0  0.4052029413675556  0.5977127357641195  0.4985352495094588  1.0000
  C   C32       1.0  0.5977152966327353  0.40519757972381126  0.4985516390282072  1.0000
  C   C33       1.0  0.4536350824936689  0.5481246748338222  0.41809738079334824  1.0000
  C   C34       1.0  0.5481267495746421  0.45363189185913194  0.5801445156537354  1.0000
  C   C35       1.0  0.5481194683707213  0.4535910144292998  0.41812822649792025  1.0000
  C   C36       1.0  0.45359243138349103  0.5481196051865566  0.5801623672804936  1.0000
  C   C37       1.0  0.9985341233036849  0.40520584512585583  0.09770994661855754  1.0000
  C   C38       1.0  0.9985544541700546  0.5977074165612631  0.905205319895927  1.0000
  C   C39       1.0  0.9180986171624566  0.45363573629580156  0.04812222892732606  1.0000
  C   C40       1.0  0.08014697154877141  0.5481208769923143  0.9536374837388877  1.0000
  C   C41       1.0  0.9181275876697227  0.5481196890269117  0.9535900570312775  1.0000
  C   C42       1.0  0.08016533275341682  0.4535872823543414  0.048124783980810444  1.0000
  C   C43       1.0  0.4052082961560684  0.9985325267719531  0.498551700068738  1.0000
  C   C44       1.0  0.5977094932274621  0.9985519280435325  0.4985340397077848  1.0000
  C   C45       1.0  0.45363900495311044  0.9180965186691668  0.5801421900158059  1.0000
  C   C46       1.0  0.5481234947067718  0.08014575504986951  0.41809502244437624  1.0000
  C   C47       1.0  0.5481225209746512  0.9181258525955939  0.5801627299778501  1.0000
  C   C48       1.0  0.453588241167374  0.08016564243447279  0.4181249940118049  1.0000
  C   C49       1.0  0.17202946080072204  0.4117492109917151  0.3275943991001142  1.0000
  C   C50       1.0  0.8275993947011813  0.5886302467592446  0.6720262549977178  1.0000
  C   C51       1.0  0.17211999384588927  0.5885654785681638  0.32771428353561305  1.0000
  C   C52       1.0  0.8277207138231262  0.4115980822934305  0.6721194809515438  1.0000
  C   C53       1.0  0.4117495633017824  0.17202516500206835  0.0886295884817442  1.0000
  C   C54       1.0  0.5886329523404608  0.827596218613337  0.9117446993504217  1.0000
  C   C55       1.0  0.5885650893455361  0.17211839081056016  0.9116003595355336  1.0000
  C   C56       1.0  0.41160202975639476  0.82771534532975  0.08856302574466193  1.0000
  C   C57       1.0  0.8275991314701228  0.17202605531102927  0.9117384511792395  1.0000
  C   C58       1.0  0.17202686179806634  0.8275973299929974  0.08863707081612647  1.0000
  C   C59       1.0  0.827714901326466  0.17212270070687175  0.088555769290373  1.0000
  C   C60       1.0  0.172121938114877  0.827712859116815  0.9116090512474314  1.0000
  C   C61       1.0  0.4117401543900813  0.5886368264924755  0.3275979853646334  1.0000
  C   C62       1.0  0.5886388167862932  0.4117368796893429  0.6720267102438696  1.0000
  C   C63       1.0  0.5885548945451047  0.41160846625875525  0.32771370052104487  1.0000
  C   C64       1.0  0.411608983629449  0.588555460626097  0.6721219211746571  1.0000
  C   C65       1.0  0.8275981310190303  0.41174191799827736  0.0886318865912229  1.0000
  C   C66       1.0  0.17203060657584493  0.5886267901923719  0.9117472255096216  1.0000
  C   C67       1.0  0.8277177877532579  0.5885599405894482  0.911601676098115  1.0000
  C   C68       1.0  0.17212256045389987  0.41160458729580546  0.0885625682515964  1.0000
  C   C69       1.0  0.41174462586995714  0.8275955081615224  0.6720277588295429  1.0000
  C   C70       1.0  0.5886297684952524  0.17202838584125138  0.32759478755453114  1.0000
  C   C71       1.0  0.5885618347834904  0.8277151286788608  0.672120580911148  1.0000
  C   C72       1.0  0.411601844803016  0.17212446871105413  0.32771498957498574  1.0000
  O   O1        1.0  0.9237167978131565  0.7428122482812114  0.5713581053419287  1.0000
  O   O2        1.0  0.2621214180984878  0.07135408578185574  0.24279771005535614  1.0000
  O   O3        1.0  0.0713574834263753  0.2621149228469691  0.4237309765584882  1.0000
  O   O4        1.0  0.7428151390431165  0.9237177232914604  0.7621081034546792  1.0000
  O   O5        1.0  0.07135566692888046  0.7427893049882359  0.7621316915751493  1.0000
  O   O6        1.0  0.7427894882667588  0.07135462168445636  0.42372334212772955  1.0000
  O   O7        1.0  0.9237155415851389  0.26213739304758826  0.24279187358779084  1.0000
  O   O8        1.0  0.2621381787879572  0.9237149965414629  0.5713544800224355  1.0000
  O   O9        1.0  0.26211675789510724  0.7428081329516728  0.4237335564883863  1.0000
  O   O10       1.0  0.923734841165469  0.07135082483959099  0.762104595521592  1.0000
  O   O11       1.0  0.7428094262855041  0.2621087997242596  0.5713513272796574  1.0000
  O   O12       1.0  0.07134796970459681  0.9237346929834729  0.24280622959476972  1.0000
  O   O13       1.0  0.07098988548848666  0.9234599352901257  0.7624182043902861  1.0000
  O   O14       1.0  0.7431316830548624  0.26242394422471443  0.4234589297035852  1.0000
  O   O15       1.0  0.9234573464330961  0.07098867533058237  0.24313221657804712  1.0000
  O   O16       1.0  0.26242790935734184  0.7431317101402544  0.5709907818496232  1.0000
  O   O17       1.0  0.9234605662081422  0.7431261213091888  0.7624265774805821  1.0000
  O   O18       1.0  0.2624395258796  0.07097771332048804  0.42345887894467876  1.0000
  O   O19       1.0  0.07098089601681323  0.262435472536886  0.24312309879473304  1.0000
  O   O20       1.0  0.7431292805461279  0.9234564465082755  0.5709844420707239  1.0000
  O   O21       1.0  0.7431524136840506  0.07097033972443256  0.7624089028221234  1.0000
  O   O22       1.0  0.07097023979228115  0.7431510852225571  0.42347079723118947  1.0000
  O   O23       1.0  0.26241797709339926  0.9234600262180239  0.24314310593188537  1.0000
  O   O24       1.0  0.923458506599175  0.2624164551019773  0.5709783566869575  1.0000
  O   O25       1.0  0.8019803817552712  0.0660117231624184  0.5659858004218845  1.0000
  O   O26       1.0  0.0660322113105778  0.06600062081737694  0.5659971651349808  1.0000
  O   O27       1.0  0.06600207832047288  0.06602781661018749  0.3019664216254796  1.0000
  O   O28       1.0  0.06601549960320313  0.8019762728335922  0.566018108549379  1.0000
  O   O29       1.0  0.14559277402553047  0.951475673385609  0.4514725091303686  1.0000
  O   O30       1.0  0.9514657091329324  0.9514758857523093  0.45146543666935884  1.0000
  O   O31       1.0  0.9514763836994077  0.14559350640765684  0.4514547550720707  1.0000
  O   O32       1.0  0.9514777849507392  0.9514602643420887  0.6455968475376749  1.0000
