data_image0
_chemical_formula_structural       Ni2P2H14C16N6Cl2O6
_chemical_formula_sum              "Ni2 P2 H14 C16 N6 Cl2 O6"
_cell_length_a       7.449820535796112
_cell_length_b       7.601226735349937
_cell_length_c       10.74590310783589
_cell_angle_alpha    91.49251353253227
_cell_angle_beta     110.74582081670995
_cell_angle_gamma    94.43937061386599

_space_group_name_H-M_alt    "P 1"
_space_group_IT_number       1

loop_
  _space_group_symop_operation_xyz
  'x, y, z'

loop_
  _atom_site_type_symbol
  _atom_site_label
  _atom_site_symmetry_multiplicity
  _atom_site_fract_x
  _atom_site_fract_y
  _atom_site_fract_z
  _atom_site_occupancy
  Ni  Ni1       1.0  9.197715272108585e-06  0.5000282933029185  0.5000060918489384  1.0000
  Ni  Ni2       1.0  0.5000021107026811  0.4999864569018158  0.4999962971612961  1.0000
  P   P1        1.0  0.8194691819014183  0.844722840057642  0.5848677882745578  1.0000
  P   P2        1.0  0.18051691846811482  0.15528850431436328  0.4151307589791885  1.0000
  H   H1        1.0  0.9058287646350824  0.1130435780284529  0.5242989735358494  1.0000
  H   H2        1.0  0.09414476847813093  0.8869541192291451  0.4756984451901689  1.0000
  H   H3        1.0  0.20589110643428654  0.8105311554585769  0.7825046190548763  1.0000
  H   H4        1.0  0.373949609784404  0.18520791817842763  0.2234150892593548  1.0000
  H   H5        1.0  0.7941125774587761  0.18963450837719623  0.21752121693542395  1.0000
  H   H6        1.0  0.6260231104739733  0.8146628702110803  0.776565606234428  1.0000
  H   H7        1.0  0.3186586686992073  0.7453740437428068  0.020131879686452716  1.0000
  H   H8        1.0  0.2635422020864624  0.2460054262062243  0.9845508991310157  1.0000
  H   H9        1.0  0.6813662572985991  0.25478999476357705  0.9798922994077376  1.0000
  H   H10       1.0  0.7364284338328136  0.7538251112918319  0.015420831604174661  1.0000
  H   H11       1.0  0.8279391951060263  0.643739244529762  0.20724490701720552  1.0000
  H   H12       1.0  0.5922349862399869  0.32392052379069003  0.778136737047625  1.0000
  H   H13       1.0  0.17211105918016054  0.3563950067884677  0.792807360487274  1.0000
  H   H14       1.0  0.40774851534302303  0.6759191784813012  0.22180320872664802  1.0000
  C   C1        1.0  0.9088635678702705  0.8210238288883573  0.7640651035187676  1.0000
  C   C2        1.0  0.09113191645432292  0.1789948744468077  0.23594270736467146  1.0000
  C   C3        1.0  0.10424517659552636  0.8038046714745946  0.8348393416590202  1.0000
  C   C4        1.0  0.22108652199065665  0.19444094496764563  0.16831303898585057  1.0000
  C   C5        1.0  0.8957579735985352  0.19628776156976357  0.16517647114940112  1.0000
  C   C6        1.0  0.7788985816807215  0.8054748827686637  0.8316728509541992  1.0000
  C   C7        1.0  0.16739487139219733  0.7647304807456267  0.9685620485277159  1.0000
  C   C8        1.0  0.15912797595666467  0.23193233728684257  0.034244829277184904  1.0000
  C   C9        1.0  0.8326148369890165  0.23533884742659694  0.031448988657473406  1.0000
  C   C10       1.0  0.8408526345514958  0.7679804968645813  0.9657425906292051  1.0000
  C   C11       1.0  0.03493833209956419  0.7439148820472923  0.033667036256112205  1.0000
  C   C12       1.0  0.9650701822278479  0.2560904189599142  0.9663344800651861  1.0000
  C   C13       1.0  0.9818673273603625  0.6370237541735905  0.2374862910268903  1.0000
  C   C14       1.0  0.721542937554638  0.3459713236690263  0.7547788120699156  1.0000
  C   C15       1.0  0.01816283491524471  0.3630134200458812  0.7625356549260406  1.0000
  C   C16       1.0  0.2784574401628462  0.6539422507269492  0.24519650769536852  1.0000
  N   N1        1.0  0.08793890636125923  0.5745936144601345  0.3504895063138279  1.0000
  N   N2        1.0  0.7258670274614901  0.4151406150603095  0.6450892887598416  1.0000
  N   N3        1.0  0.9120819124962767  0.4254359090812941  0.649525964415567  1.0000
  N   N4        1.0  0.274143465265702  0.5848220596195615  0.3549021813671943  1.0000
  N   N5        1.0  0.09596698932101333  0.687746754432766  0.16666868555141434  1.0000
  N   N6        1.0  0.9040491604603532  0.31223170433497677  0.8333261748292745  1.0000
  Cl  Cl1       1.0  0.6689694740219708  0.44927191639501274  0.3451779903754117  1.0000
  Cl  Cl2       1.0  0.3310452332179282  0.550738744366342  0.6548253641783222  1.0000
  O   O1        1.0  0.9669596578869534  0.7721627611403292  0.5305553297452407  1.0000
  O   O2        1.0  0.3839697216914787  0.2417429648083314  0.4711696976738511  1.0000
  O   O3        1.0  0.03303787842278181  0.22786635666660265  0.4694425084787428  1.0000
  O   O4        1.0  0.6160254511551103  0.758254478913287  0.5288383877184304  1.0000
  O   O5        1.0  0.8195953964284757  0.049546005361627  0.5692314547395798  1.0000
  O   O6        1.0  0.18036150449840704  0.9504618204598005  0.4307515801202231  1.0000
