data_image0
_chemical_formula_structural       Ni4H26C38N14O2
_chemical_formula_sum              "Ni4 H26 C38 N14 O2"
_cell_length_a       9.421305609341225
_cell_length_b       9.42131133674237
_cell_length_c       11.316681673494093
_cell_angle_alpha    83.55610586962455
_cell_angle_beta     83.55576721569919
_cell_angle_gamma    73.12693327517273

_space_group_name_H-M_alt    "P 1"
_space_group_IT_number       1

loop_
  _space_group_symop_operation_xyz
  'x, y, z'

loop_
  _atom_site_type_symbol
  _atom_site_label
  _atom_site_symmetry_multiplicity
  _atom_site_fract_x
  _atom_site_fract_y
  _atom_site_fract_z
  _atom_site_occupancy
  Ni  Ni1       1.0  0.9999975959179893  0.5000004872707677  0.9999996982759074  1.0000
  Ni  Ni2       1.0  0.5000070040433826  0.9999988505513782  0.5000000710089411  1.0000
  Ni  Ni3       1.0  0.7535128742842119  0.24648780447571988  0.7500014145548094  1.0000
  Ni  Ni4       1.0  0.24648943800469428  0.7535123382321486  0.24999914458296502  1.0000
  H   H1        1.0  0.930523147028218  0.962998337465642  0.7764776561424754  1.0000
  H   H2        1.0  0.9630032904386423  0.9305224330366783  0.2764791059323954  1.0000
  H   H3        1.0  0.06947799184025172  0.036998484928247394  0.22351888603644451  1.0000
  H   H4        1.0  0.0370005954091539  0.0694721484306413  0.7235209257125989  1.0000
  H   H5        1.0  0.7964273352268164  0.010514549693660096  0.9758078168442169  1.0000
  H   H6        1.0  0.010515745133567105  0.7964326910069488  0.4758039652757021  1.0000
  H   H7        1.0  0.2035720830780363  0.9894844730834719  0.024193984491333313  1.0000
  H   H8        1.0  0.9894877654697466  0.20357079688270113  0.5241953043662307  1.0000
  H   H9        1.0  0.6349190545889697  0.967570450673335  0.16050683845988806  1.0000
  H   H10       1.0  0.967573607630797  0.6349216012815546  0.660504503310385  1.0000
  H   H11       1.0  0.3650809997778381  0.032426354239  0.8394933368239634  1.0000
  H   H12       1.0  0.03242382186743239  0.3650807805468403  0.3394927572982383  1.0000
  H   H13       1.0  0.38060591195890237  0.1473566663750319  0.1934741208590722  1.0000
  H   H14       1.0  0.14735828382103483  0.38060999407269236  0.6934696167422914  1.0000
  H   H15       1.0  0.6193945784006304  0.8526423614497601  0.8065267005988945  1.0000
  H   H16       1.0  0.8526352003834534  0.6193912835004908  0.3065254438961063  1.0000
  H   H17       1.0  0.30435554295195993  0.3684003401848202  0.04761645765000822  1.0000
  H   H18       1.0  0.36840055959875423  0.30436205228825497  0.5476129116707753  1.0000
  H   H19       1.0  0.6956428074472213  0.6315986816892973  0.952385439154007  1.0000
  H   H20       1.0  0.6315965435705025  0.6956414301832792  0.45238693078194103  1.0000
  H   H21       1.0  0.26310794629421963  0.5633804896469101  0.9179555711837823  1.0000
  H   H22       1.0  0.5633824853037339  0.2631127751927096  0.4179534929234592  1.0000
  H   H23       1.0  0.7368892223865374  0.4366152036239583  0.08204407747960119  1.0000
  H   H24       1.0  0.43661492344951097  0.7368895859125149  0.5820481897307561  1.0000
  H   H25       1.0  0.23869501547915914  0.7613006870815723  0.750002217450664  1.0000
  H   H26       1.0  0.7613015171396497  0.23869722405410695  0.2499990572644251  1.0000
  C   C1        1.0  0.9585978505358812  0.6764573601671698  0.9044172023301941  1.0000
  C   C2        1.0  0.6764615518152933  0.9586076212521634  0.404420310033828  1.0000
  C   C3        1.0  0.041390742579942255  0.32354614823726985  0.0955763285972893  1.0000
  C   C4        1.0  0.3235482358133339  0.0413925277768428  0.5955795808247046  1.0000
  C   C5        1.0  0.9266657492798487  0.411076296352931  0.8932035103810065  1.0000
  C   C6        1.0  0.4110845073914717  0.9266640872884438  0.39320430879597984  1.0000
  C   C7        1.0  0.07333613531432084  0.5889216317317506  0.10679463376441592  1.0000
  C   C8        1.0  0.5889283618434361  0.07333272846012312  0.6067947208663116  1.0000
  C   C9        1.0  0.6868389552801447  0.087319064822232  0.9954235253770493  1.0000
  C   C10       1.0  0.08732529893630665  0.6868409356652379  0.4954190755261082  1.0000
  C   C11       1.0  0.3131621669923419  0.912677740993125  0.004576554438337162  1.0000
  C   C12       1.0  0.9126785296979848  0.3131614432920101  0.5045793810899754  1.0000
  C   C13       1.0  0.5958214255724456  0.0634657151601132  0.09740374914389352  1.0000
  C   C14       1.0  0.06346647588208748  0.5958283089694518  0.5974015603260625  1.0000
  C   C15       1.0  0.40417862879436234  0.9365310897522219  0.9025964261399511  1.0000
  C   C16       1.0  0.9365306355851644  0.40417518179135203  0.40259651330841717  1.0000
  C   C17       1.0  0.45589689169564457  0.16440763052995777  0.11634667130249453  1.0000
  C   C18       1.0  0.1644117286847333  0.4559007485543772  0.6163438735739606  1.0000
  C   C19       1.0  0.5441035986638809  0.8355913972948343  0.8836541501554793  1.0000
  C   C20       1.0  0.8355856966645022  0.5441016291293863  0.3836542714437813  1.0000
  C   C21       1.0  0.4125784790176396  0.28734925714998377  0.03425469751903172  1.0000
  C   C22       1.0  0.2873512846696542  0.412581673717021  0.534254393761181  1.0000
  C   C23       1.0  0.5874230792475643  0.71264977157783  0.965746028470477  1.0000
  C   C24       1.0  0.7126464462635623  0.5874195826004396  0.4657455914580667  1.0000
  C   C25       1.0  0.5090729293492302  0.3045284242588551  0.9342547766959728  1.0000
  C   C26       1.0  0.30453214501221026  0.5090764543284224  0.434250344100498  1.0000
  C   C27       1.0  0.49092724297932483  0.695471712498339  0.06574685778785042  1.0000
  C   C28       1.0  0.6954692297797465  0.49092703175519126  0.5657491164783651  1.0000
  C   C29       1.0  0.47495469142690894  0.43015846449445405  0.8418983712840742  1.0000
  C   C30       1.0  0.4301577378137225  0.4749589048297551  0.3418965400373182  1.0000
  C   C31       1.0  0.5250419716006293  0.5698427909199848  0.1581017094036312  1.0000
  C   C32       1.0  0.5698404249632176  0.5250445702555309  0.6581049757651699  1.0000
  C   C33       1.0  0.3490274137441459  0.553378032589535  0.8440421816853176  1.0000
  C   C34       1.0  0.5533790598790489  0.3490305114311383  0.3440379249773501  1.0000
  C   C35       1.0  0.6509712546860131  0.44661988035218053  0.15595890209284852  1.0000
  C   C36       1.0  0.44661898493615126  0.6509696318092821  0.6559621316251665  1.0000
  C   C37       1.0  0.3357387606910507  0.6642580914640702  0.7500018806335405  1.0000
  C   C38       1.0  0.6642560804071208  0.3357420490672922  0.24999846237436432  1.0000
  N   N1        1.0  0.9324513908251363  0.7879290153984256  0.8425626515348483  1.0000
  N   N2        1.0  0.7879405370135756  0.9324529363630275  0.3425628561476089  1.0000
  N   N3        1.0  0.06754153112689917  0.21206669912817233  0.1574320725476852  1.0000
  N   N4        1.0  0.212072022488357  0.06754499660721079  0.657435217722295  1.0000
  N   N5        1.0  0.876314894677897  0.35431447321476384  0.8277006507083869  1.0000
  N   N6        1.0  0.3543191387335226  0.8763197250875406  0.32769855037942364  1.0000
  N   N7        1.0  0.123683019728567  0.6456823257468969  0.17230059992150615  1.0000
  N   N8        1.0  0.6456847995645135  0.1236859774253034  0.6723031342548682  1.0000
  N   N9        1.0  0.5802494842678952  0.4197499471416535  0.75000194399707  1.0000
  N   N10       1.0  0.4197503824766712  0.5802513109818433  0.24999785028524718  1.0000
  N   N11       1.0  0.6440530081259438  0.2037907767514682  0.9152059421959394  1.0000
  N   N12       1.0  0.20378788828642064  0.644060072291083  0.41520500354771883  1.0000
  N   N13       1.0  0.3559450366892493  0.7962093664889522  0.0847941144065771  1.0000
  N   N14       1.0  0.7962110285142147  0.35594451677425104  0.584796345403042  1.0000
  O   O1        1.0  0.9333544093766903  0.06664469860356088  0.7499993536200478  1.0000
  O   O2        1.0  0.06664959443284597  0.9333532147086175  0.2500021372249179  1.0000
