data_image0
_chemical_formula_structural       V4Cu2H18C20N6O12
_chemical_formula_sum              "V4 Cu2 H18 C20 N6 O12"
_cell_length_a       7.267332662151776
_cell_length_b       10.497739781565658
_cell_length_c       10.634149030934996
_cell_angle_alpha    110.23119157201265
_cell_angle_beta     109.9496615832139
_cell_angle_gamma    90.0006894396013

_space_group_name_H-M_alt    "P 1"
_space_group_IT_number       1

loop_
  _space_group_symop_operation_xyz
  'x, y, z'

loop_
  _atom_site_type_symbol
  _atom_site_label
  _atom_site_symmetry_multiplicity
  _atom_site_fract_x
  _atom_site_fract_y
  _atom_site_fract_z
  _atom_site_occupancy
  V   V1        1.0  0.517486441164472  0.3064168640261186  0.988999930122752  1.0000
  V   V2        1.0  0.5287784707916074  0.6937629529492069  0.011428058301504434  1.0000
  V   V3        1.0  0.1459198831951909  0.4999270292627145  0.9999331771419052  1.0000
  V   V4        1.0  0.6878586034043223  4.0204967376699514e-05  0.000212890491319142  1.0000
  Cu  Cu1       1.0  0.8804931767454462  0.5870008069463777  0.2549013223355984  1.0000
  Cu  Cu2       1.0  0.6260721570733451  0.4131310616796993  0.7452824486640992  1.0000
  H   H1        1.0  0.16247570459919553  0.7570965702154023  0.7059942519812523  1.0000
  H   H2        1.0  0.45683861633548156  0.24288541356799692  0.2940150102365777  1.0000
  H   H3        1.0  0.15632480454907943  0.5676303387558688  0.7559909056475362  1.0000
  H   H4        1.0  0.4001544425164453  0.4322670588552737  0.24397673766156908  1.0000
  H   H5        1.0  0.1252728231406763  0.31365995096479776  0.6685697823251219  1.0000
  H   H6        1.0  0.45625129242060325  0.6862136455914153  0.3312080762210102  1.0000
  H   H7        1.0  0.018129608936455096  0.18036878909352788  0.3970280809198528  1.0000
  H   H8        1.0  0.6204476588114858  0.8196423669233182  0.6027229890797585  1.0000
  H   H9        1.0  0.9364348467852892  0.3096961287069817  0.23608734091693864  1.0000
  H   H10       1.0  0.699864506878896  0.690411249227118  0.7637597884587208  1.0000
  H   H11       1.0  0.3061526339694893  0.9633328117581711  0.732904638362875  1.0000
  H   H12       1.0  0.5734493568985429  0.03669664628911559  0.26699786782394613  1.0000
  H   H13       1.0  0.3643989501107256  0.11763716594172278  0.61604838620827  1.0000
  H   H14       1.0  0.7484374354596922  0.8822908431335603  0.3836514594487283  1.0000
  H   H15       1.0  0.22695944836635107  0.03246316362525188  0.3402661866992461  1.0000
  H   H16       1.0  0.8866743926111623  0.967396517210197  0.6594526953205389  1.0000
  H   H17       1.0  0.03543097323882446  0.8018902509977078  0.2047670152859381  1.0000
  H   H18       1.0  0.8306571710847734  0.1979522461163867  0.7951307408069754  1.0000
  C   C1        1.0  0.07151004647120368  0.572830560203215  0.5427602378128284  1.0000
  C   C2        1.0  0.5286675943439646  0.42715765386466115  0.45721486894311164  1.0000
  C   C3        1.0  0.11146307928260771  0.5067780568226965  0.6417574549139645  1.0000
  C   C4        1.0  0.4694592825405762  0.49315098976533256  0.35817786447319117  1.0000
  C   C5        1.0  0.09372069987635709  0.36527142596271733  0.5919767602474195  1.0000
  C   C6        1.0  0.5013153966695113  0.6346639127501345  0.40785461794892797  1.0000
  C   C7        1.0  0.03532264650433349  0.29149593853916395  0.44390829708795826  1.0000
  C   C8        1.0  0.5909020602121942  0.7085126120039147  0.555913549118003  1.0000
  C   C9        1.0  0.9894075409991744  0.36305501105056937  0.35210369404290986  1.0000
  C   C10       1.0  0.6368999583386526  0.6369981650699187  0.6477698450583136  1.0000
  C   C11       1.0  0.13797690507790603  0.8006493774788975  0.53041262474769  1.0000
  C   C12       1.0  0.6076869284575394  0.1993405318873726  0.46957412726101216  1.0000
  C   C13       1.0  0.24724612221522338  0.9311679112317464  0.6160502029406061  1.0000
  C   C14       1.0  0.6313232326556173  0.06880843747835289  0.3838425300444614  1.0000
  C   C15       1.0  0.2807821468476206  0.016337609462560496  0.5495860309621748  1.0000
  C   C16       1.0  0.7313091590322784  0.9836192180638005  0.45023880239128994  1.0000
  C   C17       1.0  0.20750474392603718  0.9702150119023043  0.39898225528675363  1.0000
  C   C18       1.0  0.8085556519164571  0.02969949010235239  0.6008224938330785  1.0000
  C   C19       1.0  0.09947907051603269  0.8415983875735762  0.321567061686352  1.0000
  C   C20       1.0  0.7779370431833285  0.15829621679473851  0.6783099239364675  1.0000
  N   N1        1.0  0.06261507235743836  0.759163410347142  0.38612707903915583  1.0000
  N   N2        1.0  0.6765503071460373  0.2407851606625968  0.6138667435579991  1.0000
  N   N3        1.0  0.10616205120330585  0.7148670640112937  0.5966964304633535  1.0000
  N   N4        1.0  0.509676330269599  0.28513462722661126  0.40331885655659516  1.0000
  N   N5        1.0  0.0028255111006387492  0.5013001578706521  0.3997969540862769  1.0000
  N   N6        1.0  0.6028959053942912  0.4987499410757079  0.6001774080806399  1.0000
  O   O1        1.0  0.7043944123737731  0.6973417886058255  0.16504427132842628  1.0000
  O   O2        1.0  0.5402211059492075  0.30295457767342526  0.835552983242593  1.0000
  O   O3        1.0  0.2803106218352056  0.3521851403559919  0.9864165639310444  1.0000
  O   O4        1.0  0.2940706977889818  0.6475557486384459  0.013555273479305154  1.0000
  O   O5        1.0  0.08466350298104428  0.5369697621758504  0.14281843547136924  1.0000
  O   O6        1.0  0.9422998788329623  0.46296147325774933  0.8568815798456911  1.0000
  O   O7        1.0  0.5399700714043263  0.14440809987991088  0.00471296625624259  1.0000
  O   O8        1.0  0.5353865861936667  0.8559400935191018  0.9960867970930066  1.0000
  O   O9        1.0  0.746555540573702  0.9535026727617504  0.856495297827678  1.0000
  O   O10       1.0  0.8903342233576765  0.04631513499322889  0.14366618848880816  1.0000
  O   O11       1.0  0.6879566667409519  0.42450167102379766  0.1325807040507101  1.0000
  O   O12       1.0  0.5566127508010936  0.5759072285335946  0.8680400872502575  1.0000
