data_image0
_chemical_formula_structural       Cu4H28C28S4Br4N4
_chemical_formula_sum              "Cu4 H28 C28 S4 Br4 N4"
_cell_length_a       5.555364388209906
_cell_length_b       13.838109602739403
_cell_length_c       15.256657924077317
_cell_angle_alpha    90.00390140766119
_cell_angle_beta     93.32166464154416
_cell_angle_gamma    89.99970463966201

_space_group_name_H-M_alt    "P 1"
_space_group_IT_number       1

loop_
  _space_group_symop_operation_xyz
  'x, y, z'

loop_
  _atom_site_type_symbol
  _atom_site_label
  _atom_site_symmetry_multiplicity
  _atom_site_fract_x
  _atom_site_fract_y
  _atom_site_fract_z
  _atom_site_occupancy
  Cu  Cu1       1.0  0.7403460084126366  0.5082282911592984  0.5078213987650744  1.0000
  Cu  Cu2       1.0  0.7596583835966725  0.0082044911437649  0.9921691799974968  1.0000
  Cu  Cu3       1.0  0.2596513494321401  0.4917851519042458  0.4921626244202387  1.0000
  Cu  Cu4       1.0  0.24030975746678962  0.9917648714467473  0.007832240668975001  1.0000
  H   H1        1.0  0.0421513748657105  0.6778368492134135  0.6073722952226747  1.0000
  H   H2        1.0  0.457833007778042  0.17783035808824374  0.8926376952993424  1.0000
  H   H3        1.0  0.9578426944482389  0.3221852657069845  0.39261562817986845  1.0000
  H   H4        1.0  0.5421454620429671  0.8221657428791926  0.10738022762103584  1.0000
  H   H5        1.0  0.7479486066728854  0.7675265900686483  0.6938717123342216  1.0000
  H   H6        1.0  0.7520358034069333  0.26752182867193136  0.8061461758322184  1.0000
  H   H7        1.0  0.25208251015739347  0.2324890215289344  0.30612905770345133  1.0000
  H   H8        1.0  0.2479538491488924  0.7324793309591653  0.19387645445920756  1.0000
  H   H9        1.0  0.8150878862166735  0.7818995810405623  0.8563362850054406  1.0000
  H   H10       1.0  0.6849129996537258  0.2818919257414265  0.6436865810660353  1.0000
  H   H11       1.0  0.18493374483255556  0.21810663598996166  0.14365848383584284  1.0000
  H   H12       1.0  0.31508820444759067  0.7181179059388254  0.3563453506887556  1.0000
  H   H13       1.0  0.1803754543382254  0.7087940863785889  0.9316280745671864  1.0000
  H   H14       1.0  0.31962305693297577  0.20877969811579788  0.5683819726425059  1.0000
  H   H15       1.0  0.8196275212835575  0.2911911737417938  0.06835862951530912  1.0000
  H   H16       1.0  0.680407680168983  0.7912323009482097  0.4316364980616216  1.0000
  H   H17       1.0  0.47615445006589147  0.6212482124690053  0.8455588327444234  1.0000
  H   H18       1.0  0.023855090061800893  0.1212322915960158  0.6544440569512915  1.0000
  H   H19       1.0  0.5238396193234891  0.3787384929905002  0.15442908958591062  1.0000
  H   H20       1.0  0.9761530181319245  0.878768144731417  0.34556171755060927  1.0000
  H   H21       1.0  0.5183150835895844  0.4902482940988974  0.7686383725156462  1.0000
  H   H22       1.0  0.981661400927372  0.9902229580634979  0.7313509633695789  1.0000
  H   H23       1.0  0.48164792480186946  0.5097528640184024  0.23134397915373484  1.0000
  H   H24       1.0  0.018335629917459108  0.009768083797972301  0.26865141619652644  1.0000
  H   H25       1.0  0.6984327411453535  0.47917016784354166  0.677940692933028  1.0000
  H   H26       1.0  0.8015564594975969  0.9791492146577242  0.8220487605748803  1.0000
  H   H27       1.0  0.3015862972837341  0.5208237638975531  0.3220442124146815  1.0000
  H   H28       1.0  0.19844720106336672  0.020840381640368798  0.17794647532144847  1.0000
  C   C1        1.0  0.44733765331836395  0.5877543092126346  0.6702793497783264  1.0000
  C   C2        1.0  0.052671818761346904  0.08773655323292927  0.829718886309408  1.0000
  C   C3        1.0  0.552652864064612  0.4122569661038895  0.32970919183426883  1.0000
  C   C4        1.0  0.9473109515804409  0.912253766069483  0.17028531110467784  1.0000
  C   C5        1.0  0.2756594656740958  0.6422399979062093  0.720727422092921  1.0000
  C   C6        1.0  0.22431749054512548  0.142225287142459  0.7792757429316739  1.0000
  C   C7        1.0  0.7243296709113382  0.35776332854887016  0.2792663506726641  1.0000
  C   C8        1.0  0.7756693586295071  0.8577672003093965  0.22073439884250232  1.0000
  C   C9        1.0  0.072430739144977  0.6860805383988547  0.6782391096707914  1.0000
  C   C10       1.0  0.4275198911960772  0.18605568169846975  0.8217775837952674  1.0000
  C   C11       1.0  0.9275759991072476  0.3139408538975842  0.3217496021006029  1.0000
  C   C12       1.0  0.5724481335238067  0.813936806239802  0.17824481976364134  1.0000
  C   C13       1.0  0.9082602252909596  0.7357820433579932  0.7271379644418305  1.0000
  C   C14       1.0  0.591728925775115  0.23576926340834348  0.7728905081321573  1.0000
  C   C15       1.0  0.091771154990262  0.26422923251237046  0.2728660868809102  1.0000
  C   C16       1.0  0.40826608106674217  0.7642268377003418  0.22713152234030798  1.0000
  C   C17       1.0  0.9443156551630523  0.7427286423046338  0.8184276541677493  1.0000
  C   C18       1.0  0.5556491931310106  0.24270967652359585  0.6815904930361045  1.0000
  C   C19       1.0  0.05571286903477811  0.257280465139992  0.18156325255140626  1.0000
  C   C20       1.0  0.4443457610117321  0.7572914830544731  0.3184308813062629  1.0000
  C   C21       1.0  0.14757308045887643  0.7003748026729327  0.8608948343204192  1.0000
  C   C22       1.0  0.35237356821352955  0.20034769184953657  0.6391187493055882  1.0000
  C   C23       1.0  0.8524282508697781  0.2996278009329317  0.13909382026456296  1.0000
  C   C24       1.0  0.6476261079505505  0.799650576831972  0.36089414988419594  1.0000
  C   C25       1.0  0.3122025750495824  0.6503161071955647  0.8125737228860005  1.0000
  C   C26       1.0  0.18778399064670737  0.15029227910640947  0.6874379007203049  1.0000
  C   C27       1.0  0.6878030985643946  0.3496836061904743  0.18742415732225484  1.0000
  C   C28       1.0  0.812226341374938  0.8497081574202524  0.3125731429202716  1.0000
  S   S1        1.0  0.4907873758177885  0.6176697552681532  0.5639801624584282  1.0000
  S   S2        1.0  0.009187777397677612  0.11764936593505836  0.9360201829603486  1.0000
  S   S3        1.0  0.50921655904709  0.38234585541727745  0.435996060883241  1.0000
  S   S4        1.0  0.9907605907993683  0.8823301136802112  0.06398168669829833  1.0000
  Br  Br1       1.0  0.9798283034216766  0.589232689614441  0.39603489030727707  1.0000
  Br  Br2       1.0  0.5202196789666829  0.08922448021926502  0.10396190018150973  1.0000
  Br  Br3       1.0  0.0202071139570847  0.41076413276105944  0.6039521538302355  1.0000
  Br  Br4       1.0  0.47981960650387384  0.9107687290690902  0.8960284630079375  1.0000
  N   N1        1.0  0.5675058808792671  0.5154170691283824  0.7098485488528542  1.0000
  N   N2        1.0  0.9324841672950442  0.0153999034187748  0.790143627055713  1.0000
  N   N3        1.0  0.43248988542846695  0.4845819211950797  0.2901380801554154  1.0000
  N   N4        1.0  0.067508890085918  0.9845925835536065  0.20985412082626456  1.0000
