data_image0
_chemical_formula_structural       Zn8H96C160N8O40
_chemical_formula_sum              "Zn8 H96 C160 N8 O40"
_cell_length_a       14.165542777301578
_cell_length_b       14.16554649771009
_cell_length_c       26.29164758050237
_cell_angle_alpha    79.85344811430512
_cell_angle_beta     79.85336105479153
_cell_angle_gamma    83.83136233199362

_space_group_name_H-M_alt    "P 1"
_space_group_IT_number       1

loop_
  _space_group_symop_operation_xyz
  'x, y, z'

loop_
  _atom_site_type_symbol
  _atom_site_label
  _atom_site_symmetry_multiplicity
  _atom_site_fract_x
  _atom_site_fract_y
  _atom_site_fract_z
  _atom_site_occupancy
  Zn  Zn1       1.0  0.11251861592543828  0.8146189756696669  0.41079227859590617  1.0000
  Zn  Zn2       1.0  0.18537798133250047  0.887478516132944  0.0892085721636846  1.0000
  Zn  Zn3       1.0  0.8874778128463845  0.1853796229426976  0.5892072356534825  1.0000
  Zn  Zn4       1.0  0.8146242130835051  0.11252388747204375  0.9107915780073268  1.0000
  Zn  Zn5       1.0  0.15517973984792383  0.5864041631604237  0.43067325868277345  1.0000
  Zn  Zn6       1.0  0.41359474861801715  0.844819848415824  0.06932517622450965  1.0000
  Zn  Zn7       1.0  0.8448217095786247  0.41359399691233273  0.5693277333958234  1.0000
  Zn  Zn8       1.0  0.5864060031981425  0.15517910699986  0.9306735246752353  1.0000
  H   H1        1.0  0.0495492158379633  0.5417661694139467  0.5934205350268086  1.0000
  H   H2        1.0  0.45822979697393146  0.9504421274446102  0.906578530402683  1.0000
  H   H3        1.0  0.9504479300813174  0.45823307953315856  0.40657961341145915  1.0000
  H   H4        1.0  0.5417673397993212  0.049551407780889206  0.09341948503762858  1.0000
  H   H5        1.0  0.017337588072223298  0.5374160834877627  0.6901263676547487  1.0000
  H   H6        1.0  0.4625787101105844  0.9826550097089141  0.8098730814696536  1.0000
  H   H7        1.0  0.9826610086789601  0.46258590880695755  0.309873773082515  1.0000
  H   H8        1.0  0.5374155446088197  0.017337336860528293  0.1901249302484942  1.0000
  H   H9        1.0  0.9489926147130703  0.8466124761304455  0.7095213443167053  1.0000
  H   H10       1.0  0.15338452720673248  0.0510127299074199  0.7904779989293971  1.0000
  H   H11       1.0  0.05101462135835531  0.15338950993159975  0.29047761730503646  1.0000
  H   H12       1.0  0.8466119437850779  0.948994467782832  0.20952109616042233  1.0000
  H   H13       1.0  0.8874295067180213  0.97590561760137  0.762845959386702  1.0000
  H   H14       1.0  0.0240896729247524  0.11257216660226989  0.737154337023341  1.0000
  H   H15       1.0  0.11257413168856799  0.024095957150407795  0.23715299280128477  1.0000
  H   H16       1.0  0.9759067927622311  0.8874328865676799  0.26284419626174577  1.0000
  H   H17       1.0  0.9959928882151772  0.8062060714749818  0.895322251418932  1.0000
  H   H18       1.0  0.19379039553516006  0.004001982676371103  0.6046795977413948  1.0000
  H   H19       1.0  0.0040057077677602  0.19379520697948038  0.10467757507968398  1.0000
  H   H20       1.0  0.8062074969100622  0.9960029374834888  0.39532033726658256  1.0000
  H   H21       1.0  0.0630552550830501  0.6775762305094942  0.840907775117074  1.0000
  H   H22       1.0  0.32242078587139383  0.9369415147601713  0.6590949228416106  1.0000
  H   H23       1.0  0.936950530229339  0.3224258645664548  0.15909283207147237  1.0000
  H   H24       1.0  0.6775727436142276  0.06305659103927042  0.3409071873915224  1.0000
  H   H25       1.0  0.10556493145125502  0.8256566442697846  0.6684932670929767  1.0000
  H   H26       1.0  0.17433596064712023  0.8944358760336043  0.8315053228321218  1.0000
  H   H27       1.0  0.8944394217980757  0.17434343929594578  0.33150537656795354  1.0000
  H   H28       1.0  0.825658300913588  0.10556004273666988  0.16849387916803948  1.0000
  H   H29       1.0  0.1330287772441352  0.8308226921030696  0.5723231396457534  1.0000
  H   H30       1.0  0.16916840451133913  0.8669670224707177  0.9276764247982923  1.0000
  H   H31       1.0  0.8669726864146626  0.16917476912704635  0.4276756336381381  1.0000
  H   H32       1.0  0.8308265515867815  0.13302524559559  0.07232381142614491  1.0000
  H   H33       1.0  0.0904070772446204  0.4153294699439912  0.5114082414920631  1.0000
  H   H34       1.0  0.5846656575180303  0.9095931780156619  0.988590772271287  1.0000
  H   H35       1.0  0.9095885967692042  0.5846641622973152  0.4885929431599009  1.0000
  H   H36       1.0  0.415336536129729  0.0904085117490681  0.01140906366107689  1.0000
  H   H37       1.0  0.086685942687815  0.24079002648195308  0.5120812301273076  1.0000
  H   H38       1.0  0.7592050329558545  0.9133168769593779  0.9879174858490172  1.0000
  H   H39       1.0  0.913310479242696  0.7592049999295868  0.48791709384006765  1.0000
  H   H40       1.0  0.24079642100727477  0.08668271379342937  0.012083753795657496  1.0000
  H   H41       1.0  0.24449547154995338  0.2841342608366375  0.35363691283765053  1.0000
  H   H42       1.0  0.7158633329690074  0.7555119288861293  0.146362289462175  1.0000
  H   H43       1.0  0.755503863349375  0.7158684027894893  0.6463611957100139  1.0000
  H   H44       1.0  0.2841338220963081  0.2444930337825894  0.8536399919740488  1.0000
  H   H45       1.0  0.23734758381093712  0.457254341590392  0.3590398063200054  1.0000
  H   H46       1.0  0.5427426491763184  0.7626570943490093  0.1409597741602724  1.0000
  H   H47       1.0  0.7626510077082856  0.5427483585455447  0.6409614104783187  1.0000
  H   H48       1.0  0.4572545141210469  0.23734716347802018  0.8590410503036736  1.0000
  H   H49       1.0  0.12383164898987788  0.09292372270984117  0.5121428638949225  1.0000
  H   H50       1.0  0.9070709576264592  0.8761773192224281  0.987857147687144  1.0000
  H   H51       1.0  0.8761762996195513  0.9070746306453755  0.4878548464838273  1.0000
  H   H52       1.0  0.092928336735099  0.12382387772937159  0.012145284228971296  1.0000
  H   H53       1.0  0.10931482805673909  0.9255130112530594  0.4999458729223745  1.0000
  H   H54       1.0  0.0744856270031491  0.8906979275125336  5.456245269634804e-05  1.0000
  H   H55       1.0  0.8906981284387784  0.07448417772420157  0.5000545246917767  1.0000
  H   H56       1.0  0.9255144236528919  0.10930966349085476  0.9999468275381316  1.0000
  H   H57       1.0  0.17323513327050932  0.9923879550030107  0.3390592862781289  1.0000
  H   H58       1.0  0.007604839200581601  0.8267656232970566  0.16094318149752235  1.0000
  H   H59       1.0  0.8267648637876591  0.007606034041607745  0.6609410850241915  1.0000
  H   H60       1.0  0.9923966156036599  0.17323753365753444  0.8390600102515932  1.0000
  H   H61       1.0  0.18480016907496824  0.16529364671630734  0.3426337427238621  1.0000
  H   H62       1.0  0.8346990259321742  0.815207162541988  0.1573674195529121  1.0000
  H   H63       1.0  0.8151998602889138  0.834702513844327  0.657363762182271  1.0000
  H   H64       1.0  0.16530172379786728  0.1847982084374777  0.8426352522282768  1.0000
  H   H65       1.0  0.464485271281866  0.5942103607278709  0.3955886058611354  1.0000
  H   H66       1.0  0.4057896905812727  0.5355150679074754  0.10441295940673705  1.0000
  H   H67       1.0  0.5355147446180055  0.4057872125156692  0.6044114320783507  1.0000
  H   H68       1.0  0.5942103238549804  0.46448393001706717  0.8955880879212471  1.0000
  H   H69       1.0  0.6334333586296667  0.619368568388879  0.3523109090254123  1.0000
  H   H70       1.0  0.3806304698864976  0.36656647951231486  0.14768921866060228  1.0000
  H   H71       1.0  0.3665673879545396  0.3806310948680149  0.6476888679354003  1.0000
  H   H72       1.0  0.6193673856435639  0.6334319860899599  0.8523116973116699  1.0000
  H   H73       1.0  0.7137418440878279  0.7582614402223767  0.37101819287138926  1.0000
  H   H74       1.0  0.24173497602037486  0.2862589597208256  0.12898058955832428  1.0000
  H   H75       1.0  0.2862603202543212  0.24173808102586483  0.6289841285459372  1.0000
  H   H76       1.0  0.7582585609290647  0.713737727396662  0.8710197494638903  1.0000
  H   H77       1.0  0.8643056685572147  0.7116356747169874  0.4089232029002972  1.0000
  H   H78       1.0  0.2883622580865365  0.1356955386206664  0.09107342297895826  1.0000
  H   H79       1.0  0.13569795708074392  0.2883651741964358  0.5910769586938897  1.0000
  H   H80       1.0  0.7116356124440132  0.8643029419792255  0.9089255884372631  1.0000
  H   H81       1.0  0.008314342899275603  0.6300134823104597  0.263472314049892  1.0000
  H   H82       1.0  0.36998885054951103  0.9916856492536895  0.2365243200409849  1.0000
  H   H83       1.0  0.9916878447482845  0.3699882014552216  0.7365282837048992  1.0000
  H   H84       1.0  0.6300198422811365  0.008316233793493685  0.7634722341915319  1.0000
  H   H85       1.0  0.8589292934743185  0.6807232298890753  0.22410754485336062  1.0000
  H   H86       1.0  0.3192788582651076  0.14107046773164458  0.27589034178119926  1.0000
  H   H87       1.0  0.14107360232041088  0.319279095212778  0.7758948298239402  1.0000
  H   H88       1.0  0.6807276643543217  0.8589287324739275  0.7241062811133003  1.0000
  H   H89       1.0  0.5304662340220646  0.8622679532776231  0.24720071944985722  1.0000
  H   H90       1.0  0.13772925123885219  0.4695314884889398  0.2527976267967134  1.0000
  H   H91       1.0  0.4695330753399887  0.13773325867179412  0.7527998079102003  1.0000
  H   H92       1.0  0.8622679134492658  0.5304684922955616  0.747200550412934  1.0000
  H   H93       1.0  0.3619338819933233  0.8404780469840105  0.29360932617876045  1.0000
  H   H94       1.0  0.15951950357580105  0.6380638487476987  0.20639056611332043  1.0000
  H   H95       1.0  0.6380654198320529  0.15952173128584227  0.7063913345264297  1.0000
  H   H96       1.0  0.8404798020179101  0.3619366463619329  0.7936100279192999  1.0000
  C   C1        1.0  0.30353704912749896  0.7043453725755384  0.3754915834517972  1.0000
  C   C2        1.0  0.2956560105694166  0.6964621827172266  0.12451120814979785  1.0000
  C   C3        1.0  0.696462961540412  0.29565290850921844  0.6245095305487567  1.0000
  C   C4        1.0  0.7043461522362476  0.303535910850492  0.8754904847902409  1.0000
  C   C5        1.0  0.11087665617573349  0.6859750491405094  0.5192330950049139  1.0000
  C   C6        1.0  0.3140158167413886  0.8891179018877012  0.980767318386924  1.0000
  C   C7        1.0  0.8891204784385282  0.31402204928724586  0.4807672534510558  1.0000
  C   C8        1.0  0.6859784584290622  0.1108823089227045  0.019232626311477888  1.0000
  C   C9        1.0  0.09216858604692389  0.6867324285169756  0.5769283899163822  1.0000
  C   C10       1.0  0.313257654723742  0.9078277543296736  0.9230715582414317  1.0000
  C   C11       1.0  0.9078300016310904  0.31326670241765686  0.4230712556887183  1.0000
  C   C12       1.0  0.6867351771514906  0.09217114681268872  0.07692826081284916  1.0000
  C   C13       1.0  0.060177129479093594  0.6038155706826912  0.6103642732566854  1.0000
  C   C14       1.0  0.3961777878212586  0.9398193393981984  0.8896364811230767  1.0000
  C   C15       1.0  0.9398207433561864  0.3961850514379819  0.3896356808754716  1.0000
  C   C16       1.0  0.6038150365172967  0.060178128064592294  0.11036347127633653  1.0000
  C   C17       1.0  0.04243928013497819  0.6014714190275186  0.6640602932826241  1.0000
  C   C18       1.0  0.39852377319459004  0.9575530876362564  0.8359395358341715  1.0000
  C   C19       1.0  0.9575593166162053  0.39853057326720875  0.33593984745463235  1.0000
  C   C20       1.0  0.6014711994405105  0.042440623108191654  0.16405942431150314  1.0000
  C   C21       1.0  0.05744311058924011  0.6813485257002511  0.6857375272355383  1.0000
  C   C22       1.0  0.3186448961753854  0.9425532696996726  0.8142621198060667  1.0000
  C   C23       1.0  0.9425605210489181  0.31865232921222036  0.3142618725362282  1.0000
  C   C24       1.0  0.6813500689230311  0.05743900736519688  0.1857369736847331  1.0000
  C   C25       1.0  0.042437162777154896  0.6699455878428464  0.7441400846907199  1.0000
  C   C26       1.0  0.3300482722404894  0.9575624257903782  0.7558607478019679  1.0000
  C   C27       1.0  0.957570058989141  0.330054244700321  0.2558594578599269  1.0000
  C   C28       1.0  0.6699510084384599  0.04243162675976461  0.24413930355011362  1.0000
  C   C29       1.0  0.011396838985234603  0.7542550209141722  0.7718209490033414  1.0000
  C   C30       1.0  0.24573805748089944  0.98860434221001  0.7281802339355108  1.0000
  C   C31       1.0  0.988606783652621  0.24574582499972306  0.22817959350205533  1.0000
  C   C32       1.0  0.7542562086892559  0.011395859601826382  0.2718208534965284  1.0000
  C   C33       1.0  0.9624026054461438  0.8387361068649071  0.7496119881041563  1.0000
  C   C34       1.0  0.1612592096199634  0.0375986562614159  0.7503890217184902  1.0000
  C   C35       1.0  0.0376017448030836  0.16126397370130258  0.2503870364679841  1.0000
  C   C36       1.0  0.8387343650128684  0.9624051992539079  0.24961065057806303  1.0000
  C   C37       1.0  0.9266008317551808  0.9106063236193193  0.7794388644896769  1.0000
  C   C38       1.0  0.08939170933577151  0.07340057237446729  0.7205623032925458  1.0000
  C   C39       1.0  0.07340280665141562  0.0893952511324585  0.22056008769830973  1.0000
  C   C40       1.0  0.9106068904155081  0.9266014229197808  0.2794374565335075  1.0000
  C   C41       1.0  0.9376943542635632  0.8981767770598735  0.8321273065344171  1.0000
  C   C42       1.0  0.10182018649609151  0.062304755029046484  0.667872641890547  1.0000
  C   C43       1.0  0.0623049663306432  0.1018237330473752  0.1678713829421525  1.0000
  C   C44       1.0  0.8981755538113774  0.9377003526478518  0.33212671417793865  1.0000
  C   C45       1.0  0.891632669292335  0.9707394549683953  0.8655844226911424  1.0000
  C   C46       1.0  0.0292588009530448  0.10836567598915538  0.6344155232494727  1.0000
  C   C47       1.0  0.10836954242888198  0.029265105154990995  0.1344147656397467  1.0000
  C   C48       1.0  0.9707369205127278  0.8916358474888214  0.3655841661818399  1.0000
  C   C49       1.0  0.9881476236649859  0.8146780315747147  0.8542318342738893  1.0000
  C   C50       1.0  0.18531738253005867  0.011848079906826599  0.6457696612891579  1.0000
  C   C51       1.0  0.011850246170190797  0.18532258754643743  0.14576850076948486  1.0000
  C   C52       1.0  0.8146783758508745  0.9881598981287354  0.3542290471778528  1.0000
  C   C53       1.0  0.025020236676510908  0.7436876866275385  0.8243240094427405  1.0000
  C   C54       1.0  0.2563089340104483  0.9749787379647968  0.67567704045085  1.0000
  C   C55       1.0  0.974981234591837  0.2563140606436675  0.17567626836181197  1.0000
  C   C56       1.0  0.7436867874553174  0.02502278551317966  0.3243226489804626  1.0000
  C   C57       1.0  0.09042760125544189  0.7641285620789232  0.6523331080826508  1.0000
  C   C58       1.0  0.23586363003713734  0.9095712986557699  0.847667199808086  1.0000
  C   C59       1.0  0.9095774691413469  0.23587217182154763  0.34766616976715153  1.0000
  C   C60       1.0  0.7641313389024944  0.0904245476104109  0.15233346487594449  1.0000
  C   C61       1.0  0.10681864812141839  0.7669229600542309  0.5982278595187294  1.0000
  C   C62       1.0  0.2330695948530632  0.8931769925398354  0.901771189616994  1.0000
  C   C63       1.0  0.8931828193057142  0.2330752180156637  0.40177084709259947  1.0000
  C   C64       1.0  0.7669253898553023  0.10681958256422056  0.09822788474962608  1.0000
  C   C65       1.0  0.12386616063623278  0.38284679872815985  0.47731024846400766  1.0000
  C   C66       1.0  0.6171498108029922  0.8761322299589197  0.02268882324715795  1.0000
  C   C67       1.0  0.8761280926924185  0.6171498248838104  0.5226904105084316  1.0000
  C   C68       1.0  0.38285237907643227  0.1238687429660246  0.9773110793577757  1.0000
  C   C69       1.0  0.12275192264805668  0.2849169311580795  0.4773835597590974  1.0000
  C   C70       1.0  0.7150783589817352  0.8772513491013854  0.022615905250873352  1.0000
  C   C71       1.0  0.877245223198358  0.7150794654275001  0.5226149508133844  1.0000
  C   C72       1.0  0.2849209338433453  0.12274842016989143  0.9773858981879469  1.0000
  C   C73       1.0  0.1644547972478989  0.2462816274853593  0.4321340244816482  1.0000
  C   C74       1.0  0.753712567013295  0.8355521866462395  0.0678666884424359  1.0000
  C   C75       1.0  0.835543796430315  0.7537175094483215  0.5678648593010249  1.0000
  C   C76       1.0  0.24628602604241218  0.16445194117022058  0.9321351568331835  1.0000
  C   C77       1.0  0.20985561000897232  0.3089224578976584  0.3896986578299887  1.0000
  C   C78       1.0  0.6910742252223869  0.7901501068526502  0.11030156845596642  1.0000
  C   C79       1.0  0.7901415562156232  0.6910789505673661  0.6103001478569536  1.0000
  C   C80       1.0  0.3089221991585945  0.20985276580271517  0.8897009739589308  1.0000
  C   C81       1.0  0.20697345511181453  0.4059731261971038  0.39222812525222384  1.0000
  C   C82       1.0  0.5940249046832521  0.7930288059590608  0.10777119409495123  1.0000
  C   C83       1.0  0.7930251205658011  0.594025992739432  0.6077730439977173  1.0000
  C   C84       1.0  0.40597512252163875  0.2069709178038366  0.8922286438268328  1.0000
  C   C85       1.0  0.15818209197075822  0.14455530040284972  0.4280661383190392  1.0000
  C   C86       1.0  0.8554421751349678  0.8418269125409663  0.07193556816746847  1.0000
  C   C87       1.0  0.8418201061407161  0.8554449676804053  0.5719323073136164  1.0000
  C   C88       1.0  0.14455856859487431  0.15817845243945067  0.9280678654361408  1.0000
  C   C89       1.0  0.136383296825656  0.07521010957846387  0.47266823228961385  1.0000
  C   C90       1.0  0.9247897181390315  0.8636235045669238  0.02733306145022838  1.0000
  C   C91       1.0  0.8636210518870867  0.9247885433072226  0.5273301638052386  1.0000
  C   C92       1.0  0.07521172612842972  0.1363782157085751  0.9726706445552293  1.0000
  C   C93       1.0  0.12846424373453402  0.9811774057225617  0.4665145950261404  1.0000
  C   C94       1.0  0.018819971139855302  0.8715422994436037  0.03348616577074641  1.0000
  C   C95       1.0  0.871543682337716  0.018819498955473097  0.5334851532537924  1.0000
  C   C96       1.0  0.9811814918964359  0.12846015266929095  0.9665155690060911  1.0000
  C   C97       1.0  0.1638214962324156  0.0184879351777099  0.37640975329331633  1.0000
  C   C98       1.0  0.9815037577908471  0.8361827279859212  0.12359211826895222  1.0000
  C   C99       1.0  0.8361785008257527  0.9815060538669085  0.623590618008997  1.0000
  C   C100      1.0  0.018495544107395304  0.16381990264544302  0.8764101803020239  1.0000
  C   C101      1.0  0.1713263914585497  0.11442171157906239  0.37893617734146545  1.0000
  C   C102      1.0  0.8855717402918656  0.828679240869036  0.12106619650175078  1.0000
  C   C103      1.0  0.8286750676636672  0.8855743189710096  0.6210623483763482  1.0000
  C   C104      1.0  0.1144282697535388  0.17132403109850702  0.8789378789917421  1.0000
  C   C105      1.0  0.40410276704942316  0.7172457246599816  0.3478305553528854  1.0000
  C   C106      1.0  0.2827549749216587  0.5958984892244742  0.15217055647306668  1.0000
  C   C107      1.0  0.59589652647103  0.28275190609003426  0.6521699244587894  1.0000
  C   C108      1.0  0.7172472149577659  0.4041024837004699  0.8478293461318669  1.0000
  C   C109      1.0  0.4801773240214686  0.6539161010171526  0.36388564640789406  1.0000
  C   C110      1.0  0.34608130847571067  0.5198228731910745  0.13611467221676316  1.0000
  C   C111      1.0  0.5198234127941959  0.34608283940091406  0.6361149590479016  1.0000
  C   C112      1.0  0.6539158374435702  0.48017637575603084  0.8638854762215045  1.0000
  C   C113      1.0  0.5741863704148998  0.6683828304189203  0.3396911493170549  1.0000
  C   C114      1.0  0.3316146584646019  0.4258135793394117  0.16030877338788938  1.0000
  C   C115      1.0  0.4258129276421343  0.3316162310111395  0.6603095780607049  1.0000
  C   C116      1.0  0.6683839345182393  0.5741876961155298  0.8396914340219368  1.0000
  C   C117      1.0  0.5926880814569913  0.7444422077283905  0.2979146387722834  1.0000
  C   C118      1.0  0.25555975691656135  0.4073109547760581  0.20208573756942624  1.0000
  C   C119      1.0  0.4073119405159459  0.2555582238757238  0.7020862752105755  1.0000
  C   C120      1.0  0.7444417015102828  0.5926872142952676  0.7979141117755333  1.0000
  C   C121      1.0  0.6914871118414608  0.7585950803370094  0.2691007795723833  1.0000
  C   C122      1.0  0.24140630341074137  0.3085125890848345  0.23089879519426396  1.0000
  C   C123      1.0  0.30851434742649525  0.24140665493609964  0.7309010218770168  1.0000
  C   C124      1.0  0.7585937222576646  0.6914857069975398  0.769100414250232  1.0000
  C   C125      1.0  0.776657445764343  0.7222841630335776  0.29502460785055007  1.0000
  C   C126      1.0  0.2777170770982167  0.22334407087706853  0.20497248255408346  1.0000
  C   C127      1.0  0.22334474188322423  0.27771752073210365  0.7049759899042343  1.0000
  C   C128      1.0  0.7222829575704851  0.7766542342038745  0.7950255841567822  1.0000
  C   C129      1.0  0.7778248410276164  0.7291614588692711  0.34749705564247074  1.0000
  C   C130      1.0  0.27083795161494345  0.22217597376497614  0.152499890860966  1.0000
  C   C131      1.0  0.2221780697676081  0.2708408812301996  0.6525034144787725  1.0000
  C   C132      1.0  0.7291599159155168  0.7778225038353953  0.8474995014664657  1.0000
  C   C133      1.0  0.8620313076835515  0.7032690183245763  0.36881900937923  1.0000
  C   C134      1.0  0.29673136916431286  0.13797079876692206  0.13117882522341515  1.0000
  C   C135      1.0  0.13797159034303516  0.2967325959365397  0.6311826701482133  1.0000
  C   C136      1.0  0.70326938565195  0.8620281596482825  0.8688194947651195  1.0000
  C   C137      1.0  0.9454096598838431  0.6680636643124346  0.3384851167537377  1.0000
  C   C138      1.0  0.33193960331888656  0.0545922105434542  0.16151090539746346  1.0000
  C   C139      1.0  0.0545939748272772  0.3319400459610833  0.6615155399726048  1.0000
  C   C140      1.0  0.6680654655414172  0.9454070956764935  0.838487743975051  1.0000
  C   C141      1.0  0.036078643912034594  0.6373245961312007  0.3608194331067196  1.0000
  C   C142      1.0  0.36268168692743785  0.9639253690617764  0.13917607512631489  1.0000
  C   C143      1.0  0.9639235287350374  0.36267707263686316  0.6391830692041224  1.0000
  C   C144      1.0  0.6373248567655595  0.03607670450197989  0.8608195192554999  1.0000
  C   C145      1.0  0.9435410825678616  0.6590980938667171  0.2863643247262856  1.0000
  C   C146      1.0  0.3409073746301701  0.05645750034312869  0.21363179518780837  1.0000
  C   C147      1.0  0.05645966785755261  0.34090513859148786  0.7136370234277507  1.0000
  C   C148      1.0  0.6590977235357514  0.9435439743933145  0.7863643686997434  1.0000
  C   C149      1.0  0.8604921212344862  0.6870906000074583  0.26465082708598686  1.0000
  C   C150      1.0  0.3129114066782038  0.13950697744456872  0.2353456088399213  1.0000
  C   C151      1.0  0.13950935457044983  0.31291257794379124  0.7353496982846506  1.0000
  C   C152      1.0  0.6870922331920042  0.8604931726262135  0.7646523339595601  1.0000
  C   C153      1.0  0.5156591003719982  0.8054491951577276  0.2806200259766101  1.0000
  C   C154      1.0  0.19454737520317883  0.4843398575057662  0.21937938927970174  1.0000
  C   C155      1.0  0.4843401999168933  0.19454915543159504  0.719380006251285  1.0000
  C   C156      1.0  0.8054526497698546  0.5156605770978686  0.7806211437919472  1.0000
  C   C157      1.0  0.42224797929931407  0.7930550555218473  0.30606604280420396  1.0000
  C   C158      1.0  0.20694415933972007  0.5777522049180489  0.19393342635729735  1.0000
  C   C159      1.0  0.5777520373687963  0.20694323156195787  0.6939343093739294  1.0000
  C   C160      1.0  0.7930573164652088  0.42225097303320064  0.80606709901334  1.0000
  N   N1        1.0  0.16369565023690308  0.44280068627915625  0.43514145475369037  1.0000
  N   N2        1.0  0.5571961449424591  0.8363061770194019  0.0648588077733052  1.0000
  N   N3        1.0  0.8363021857560824  0.5571963336454643  0.5648611182085614  1.0000
  N   N4        1.0  0.44280605770559595  0.1636955217438967  0.9351398854254284  1.0000
  N   N5        1.0  0.14237526332921388  0.9525499235650586  0.4194367039578991  1.0000
  N   N6        1.0  0.047443262205568694  0.8576291542378839  0.08056462463935074  1.0000
  N   N7        1.0  0.8576290515413375  0.04744513012409611  0.5805639300558381  1.0000
  N   N8        1.0  0.9525567726088723  0.14237485556610346  0.9194367178031013  1.0000
  O   O1        1.0  0.24328243086016949  0.7772303405024061  0.37207853235950933  1.0000
  O   O2        1.0  0.22277345846305957  0.7567176733674046  0.12792248566209705  1.0000
  O   O3        1.0  0.756718325492571  0.22277004559332164  0.6279204161063134  1.0000
  O   O4        1.0  0.7772294327950888  0.2432832210544049  0.8720796414491188  1.0000
  O   O5        1.0  0.2864005109412417  0.6205376191856897  0.4008464965703168  1.0000
  O   O6        1.0  0.3794638922225814  0.7135971391926716  0.09915450164848491  1.0000
  O   O7        1.0  0.7135987878840311  0.3794621560846352  0.5991545450460831  1.0000
  O   O8        1.0  0.6205361304457212  0.28640115389018206  0.9008450887072286  1.0000
  O   O9        1.0  0.12770497469230688  0.6031664887632857  0.5053093427814443  1.0000
  O   O10       1.0  0.39682545250099827  0.8722900153954354  0.9946901314547245  1.0000
  O   O11       1.0  0.8722928725328317  0.3968298293191666  0.4946913922973194  1.0000
  O   O12       1.0  0.6031688181328716  0.1277087647349262  0.0053095656775994145  1.0000
  O   O13       1.0  0.1081186613035925  0.7663076982643489  0.4885675536741586  1.0000
  O   O14       1.0  0.23368684439294898  0.8918720914742975  0.011431811382863083  1.0000
  O   O15       1.0  0.8918770465524303  0.23368953317348942  0.5114313930589203  1.0000
  O   O16       1.0  0.7663102977579895  0.10812644063302199  0.9885684037279674  1.0000
  O   O17       1.0  0.05398708557041941  0.5886899969204292  0.7698685425298846  1.0000
  O   O18       1.0  0.4113027009137156  0.9460135207188146  0.7301322670336816  1.0000
  O   O19       1.0  0.9460251636190476  0.4113101169224437  0.2301320302661906  1.0000
  O   O20       1.0  0.5886900992783168  0.05397821802475281  0.2698674569238335  1.0000
  O   O21       1.0  0.8624480338319244  0.054119135066415  0.8431128341144571  1.0000
  O   O22       1.0  0.9458806422639158  0.1375538521128306  0.656887437409857  1.0000
  O   O23       1.0  0.13755489726861472  0.9458853645509749  0.15688629325545372  1.0000
  O   O24       1.0  0.054115792580972794  0.8624476048601082  0.3431129528829046  1.0000
  O   O25       1.0  0.8808999578169149  0.9489105892318859  0.915135961970506  1.0000
  O   O26       1.0  0.051089915909834395  0.11909680147359578  0.5848646789773753  1.0000
  O   O27       1.0  0.11910512918971959  0.05109443970824399  0.084863677666327  1.0000
  O   O28       1.0  0.9489065173985693  0.8809032278188127  0.4151350828380983  1.0000
  O   O29       1.0  0.7038549957546749  0.8006826052057506  0.22311403870453714  1.0000
  O   O30       1.0  0.19932001518264292  0.2961450390704455  0.2768854023762585  1.0000
  O   O31       1.0  0.2961450300594635  0.19932139559966794  0.7768884464715454  1.0000
  O   O32       1.0  0.8006821799287354  0.7038552260132889  0.7231134241676074  1.0000
  O   O33       1.0  0.038371333333501  0.6595741527161325  0.4071532849893131  1.0000
  O   O34       1.0  0.34042730031644913  0.9616322164726653  0.09284310114826155  1.0000
  O   O35       1.0  0.9616301093974753  0.34042613987884346  0.5928497925388498  1.0000
  O   O36       1.0  0.65957707847015  0.03836931876977449  0.9071531237002688  1.0000
  O   O37       1.0  0.10378068032125752  0.5902098540281956  0.3370578324075666  1.0000
  O   O38       1.0  0.4097990081621319  0.8962239965338908  0.16293428801194654  1.0000
  O   O39       1.0  0.8962207721782603  0.4097911614056072  0.6629444166256064  1.0000
  O   O40       1.0  0.5902096966689071  0.10377789851138895  0.8370607425757298  1.0000
