data_image0
_chemical_formula_structural       Cd2H20C20Br4N12O8
_chemical_formula_sum              "Cd2 H20 C20 Br4 N12 O8"
_cell_length_a       3.8613981996355067
_cell_length_b       13.039551141149605
_cell_length_c       15.607135489892872
_cell_angle_alpha    89.99975759903
_cell_angle_beta     89.99998175885433
_cell_angle_gamma    90.00196322769791

_space_group_name_H-M_alt    "P 1"
_space_group_IT_number       1

loop_
  _space_group_symop_operation_xyz
  'x, y, z'

loop_
  _atom_site_type_symbol
  _atom_site_label
  _atom_site_symmetry_multiplicity
  _atom_site_fract_x
  _atom_site_fract_y
  _atom_site_fract_z
  _atom_site_occupancy
  Cd  Cd1       1.0  0.48547745610586907  0.5000048574177427  0.4999995462635312  1.0000
  Cd  Cd2       1.0  0.985512737037048  0.999995495774584  7.57791375610001e-06  1.0000
  H   H1        1.0  0.14612505352158678  0.13962496576140643  0.6727383834493992  1.0000
  H   H2        1.0  0.1462000274969171  0.8603801739731125  0.3272601502588445  1.0000
  H   H3        1.0  0.6461907500056581  0.6396070522657953  0.8272515309199877  1.0000
  H   H4        1.0  0.6461606901379185  0.3603766966043624  0.17273750897982865  1.0000
  H   H5        1.0  0.9567641515307627  0.23253772658738822  0.805364109543632  1.0000
  H   H6        1.0  0.9568337647636156  0.7674632594566335  0.19463394291413044  1.0000
  H   H7        1.0  0.45685220753706096  0.7325361762432934  0.6946260295852298  1.0000
  H   H8        1.0  0.4568566005065762  0.267466260116386  0.3053757489937539  1.0000
  H   H9        1.0  0.41313400308860077  0.5071831419614412  0.7005623548935987  1.0000
  H   H10       1.0  0.41313756524193224  0.4928244918440683  0.2994354639268977  1.0000
  H   H11       1.0  0.9130744538496245  0.0071787561974332005  0.7994411155652872  1.0000
  H   H12       1.0  0.9131406109245859  0.9928274277495319  0.2005702761878823  1.0000
  H   H13       1.0  0.635468610218311  0.26510470501448674  0.5012729517398002  1.0000
  H   H14       1.0  0.6355019788440897  0.7348922275104002  0.4987285467833189  1.0000
  H   H15       1.0  0.13539318185930682  0.7651069587077474  0.9987316840157378  1.0000
  H   H16       1.0  0.13537752775912537  0.2348898918743814  0.0012613709116565002  1.0000
  H   H17       1.0  0.46974535994729655  0.14970803130203336  0.5404313889861854  1.0000
  H   H18       1.0  0.4697831129460824  0.8502965300023463  0.4595770931732802  1.0000
  H   H19       1.0  0.969746661654348  0.6496928146030072  0.9595715734783214  1.0000
  H   H20       1.0  0.9697123474514413  0.35029649081231895  0.040409475412282306  1.0000
  C   C1        1.0  0.2031195146487406  0.2205511249801191  0.6821226471890685  1.0000
  C   C2        1.0  0.20316687694337082  0.7794540044569304  0.3178743664303667  1.0000
  C   C3        1.0  0.7031552514208812  0.7205430502088463  0.8178732228680516  1.0000
  C   C4        1.0  0.7031264263902628  0.27945449300791136  0.1821200634405784  1.0000
  C   C5        1.0  0.100951474796048  0.2710608726711072  0.7547876246894207  1.0000
  C   C6        1.0  0.10099960400830811  0.7289310792412281  0.2452121149725173  1.0000
  C   C7        1.0  0.6009842186356094  0.7710581121748916  0.7452065981034652  1.0000
  C   C8        1.0  0.6010035857070478  0.22894389190918935  0.2547900537758778  1.0000
  C   C9        1.0  0.18840558850919112  0.3755941867672589  0.7632280924152184  1.0000
  C   C10       1.0  0.18841479057108051  0.6244019407904347  0.23676803310824826  1.0000
  C   C11       1.0  0.6883777015091042  0.8756005879797115  0.7367579965045082  1.0000
  C   C12       1.0  0.6884276096057108  0.12441326101725281  0.2632337601787498  1.0000
  C   C13       1.0  0.3556173407354137  0.4256214598573892  0.6960175746935279  1.0000
  C   C14       1.0  0.3556259456819788  0.574383123993222  0.3039830600259066  1.0000
  C   C15       1.0  0.855571956696764  0.9256197244901544  0.8039782982232782  1.0000
  C   C16       1.0  0.8556225933366832  0.0743872433234074  0.19602309453220815  1.0000
  C   C17       1.0  0.385285696565319  0.27494894503399087  0.6169954308508993  1.0000
  C   C18       1.0  0.3853169150198141  0.7250429636973266  0.3830056940291158  1.0000
  C   C19       1.0  0.885287501501857  0.7749639771930604  0.8830107818695299  1.0000
  C   C20       1.0  0.8852793266796015  0.22505255544223252  0.11699110005215371  1.0000
  Br  Br1       1.0  0.9749569762803104  0.6138576197461846  0.5840170433059698  1.0000
  Br  Br2       1.0  0.9750085980105678  0.3861392844946821  0.4159952610564872  1.0000
  Br  Br3       1.0  0.47502514719574407  0.11386277370031911  0.9160012419615173  1.0000
  Br  Br4       1.0  0.47500470069549294  0.8861248444242237  0.0840109451452022  1.0000
  N   N1        1.0  0.44297011520091445  0.3783113081549134  0.6233174363154177  1.0000
  N   N2        1.0  0.44299485356348367  0.6216790469289178  0.376682149844747  1.0000
  N   N3        1.0  0.9429277455560126  0.8783334041160418  0.8766828045459933  1.0000
  N   N4        1.0  0.9429392890532783  0.1216915451786207  0.12332202424450862  1.0000
  N   N5        1.0  0.5037002632796614  0.22636493061595087  0.5477625698759071  1.0000
  N   N6        1.0  0.5037336612664164  0.7736307314672786  0.45223988098521783  1.0000
  N   N7        1.0  0.0036746157683396  0.7263627335471767  0.9522401133884557  1.0000
  N   N8        1.0  0.0036526598307134004  0.2736343796912664  0.047752611111597815  1.0000
  N   N9        1.0  0.0926203009596875  0.431561263966195  0.8386082077982095  1.0000
  N   N10       1.0  0.09259331750315881  0.5684323358569756  0.16139111432527645  1.0000
  N   N11       1.0  0.5926115551249607  0.9315742537401025  0.6613878339414117  1.0000
  N   N12       1.0  0.5926387906087881  0.068434766691098  0.33861160386398137  1.0000
  O   O1        1.0  0.9104594065604134  0.3869647460154726  0.8933194300728928  1.0000
  O   O2        1.0  0.91044151772018  0.61303610539931  0.1066817810395833  1.0000
  O   O3        1.0  0.4104679231475572  0.8869647463685766  0.6066752722662232  1.0000
  O   O4        1.0  0.4104817357269397  0.11302375144560271  0.39332582191110543  1.0000
  O   O5        1.0  0.19075949218036212  0.5226607248011917  0.846301935107647  1.0000
  O   O6        1.0  0.19071205398223162  0.47732846972501625  0.1537101469459188  1.0000
  O   O7        1.0  0.6907818320339986  0.0226738298726019  0.6536986336002146  1.0000
  O   O8        1.0  0.6907911840114949  0.9773353858374706  0.346305874310886  1.0000
