data_image0
_chemical_formula_structural       Yb2H42C54O12
_chemical_formula_sum              "Yb2 H42 C54 O12"
_cell_length_a       7.804952259024009
_cell_length_b       11.361748488038426
_cell_length_c       12.913149204202762
_cell_angle_alpha    93.41254321630402
_cell_angle_beta     90.00015178828605
_cell_angle_gamma    90.00023129164676

_space_group_name_H-M_alt    "P 1"
_space_group_IT_number       1

loop_
  _space_group_symop_operation_xyz
  'x, y, z'

loop_
  _atom_site_type_symbol
  _atom_site_label
  _atom_site_symmetry_multiplicity
  _atom_site_fract_x
  _atom_site_fract_y
  _atom_site_fract_z
  _atom_site_occupancy
  Yb  Yb1       1.0  0.5750196002950005  0.5398664663148195  0.47407814319169705  1.0000
  Yb  Yb2       1.0  0.07501898452746758  0.46013407993201133  0.5259238785420237  1.0000
  H   H1        1.0  0.7521421315202231  0.12860075881130942  0.6092952599626642  1.0000
  H   H2        1.0  0.25215102245959287  0.8713986438821593  0.39069699218696025  1.0000
  H   H3        1.0  0.41110135994942  0.2660742385227834  0.6039913812729693  1.0000
  H   H4        1.0  0.9111104587460871  0.7339309777896831  0.3960135282461791  1.0000
  H   H5        1.0  0.6186575034474942  0.9612743870808131  0.5957232968068809  1.0000
  H   H6        1.0  0.11866412647170678  0.038727865645512304  0.4042764610164937  1.0000
  H   H7        1.0  0.45629217260530197  0.7802278346380193  0.624421463648673  1.0000
  H   H8        1.0  0.9563007242111111  0.21977369510030093  0.3755796713835691  1.0000
  H   H9        1.0  0.14463118984478027  0.7901630687266206  0.664001482478696  1.0000
  H   H10       1.0  0.6446382273928676  0.20983597923526529  0.3360014491358284  1.0000
  H   H11       1.0  0.9929367674725854  0.9835578987667118  0.669931743686945  1.0000
  H   H12       1.0  0.49294421375234515  0.0164395773870396  0.3300725901129481  1.0000
  H   H13       1.0  0.155855510382942  0.16695551010977283  0.6389598651609845  1.0000
  H   H14       1.0  0.6558675996128824  0.8330436300386165  0.3610438617828677  1.0000
  H   H15       1.0  0.4863921260676065  0.625184582484522  0.7554066819909478  1.0000
  H   H16       1.0  0.9863869172381924  0.3748170343034545  0.24459450551247383  1.0000
  H   H17       1.0  0.2515614668260966  0.4524320301139682  0.8644048362601422  1.0000
  H   H18       1.0  0.7515542295985185  0.5475665509018413  0.13558819698852886  1.0000
  H   H19       1.0  0.5244365556698724  0.7317417302370685  0.9015863868050784  1.0000
  H   H20       1.0  0.024427803614777595  0.2682540324067801  0.0984124755665263  1.0000
  H   H21       1.0  0.5861445506014108  0.8271514418612397  0.0742258520964185  1.0000
  H   H22       1.0  0.0861440101542144  0.1728480180379037  0.9257730923914094  1.0000
  H   H23       1.0  0.483850607118228  0.7356512575806916  0.23419688244900524  1.0000
  H   H24       1.0  0.9838521719371511  0.2643482342294519  0.7657996588490829  1.0000
  H   H25       1.0  0.3171084594223927  0.5499235743880178  0.21991736070577864  1.0000
  H   H26       1.0  0.8171124591852033  0.4500721551952084  0.7800820183601329  1.0000
  H   H27       1.0  0.25457697995267375  0.45313348378947893  0.0458902847819047  1.0000
  H   H28       1.0  0.7545771903132277  0.5468637048539621  0.9541074209978077  1.0000
  H   H29       1.0  0.2157321074358833  0.18439568607304582  0.26584733110981057  1.0000
  H   H30       1.0  0.7157329265209141  0.8156008687848839  0.734154967834243  1.0000
  H   H31       1.0  0.5148603942481242  0.3313841768345683  0.18615059734831615  1.0000
  H   H32       1.0  0.014862272065364796  0.6686187747400822  0.8138505246231985  1.0000
  H   H33       1.0  0.2692910051456607  0.04275574847827811  0.14294971457499628  1.0000
  H   H34       1.0  0.7692906353395159  0.9572445397594224  0.8570534280219416  1.0000
  H   H35       1.0  0.2600974330602241  0.9284452180338222  0.9748103441546616  1.0000
  H   H36       1.0  0.7601010072220332  0.07155604272261229  0.025194327551545794  1.0000
  H   H37       1.0  0.3997851764212399  0.005346846942529708  0.819281436568346  1.0000
  H   H38       1.0  0.8997910137279914  0.9946521191220087  0.18072272206482146  1.0000
  H   H39       1.0  0.5515445528126721  0.19909895220371962  0.8336394316553565  1.0000
  H   H40       1.0  0.05154563464325429  0.8008980073978694  0.16636257463488135  1.0000
  H   H41       1.0  0.5625655478593216  0.3139011059619037  0.0028659878188506  1.0000
  H   H42       1.0  0.06256321131089489  0.6861002242314953  0.9971352300725368  1.0000
  C   C1        1.0  0.7398786384615972  0.31746628805492355  0.5914798754399868  1.0000
  C   C2        1.0  0.2398852175110378  0.6825343171111911  0.40851700347609915  1.0000
  C   C3        1.0  0.6624710637416767  0.2016797602598643  0.6047653928707887  1.0000
  C   C4        1.0  0.1624808267083182  0.7983221415231301  0.3952282353190383  1.0000
  C   C5        1.0  0.4907864431078721  0.1874595630434754  0.6081522851591643  1.0000
  C   C6        1.0  0.9907972664747433  0.8125426476104425  0.3918450248792595  1.0000
  C   C7        1.0  0.39945310693276775  0.0776215689561468  0.6191321208362837  1.0000
  C   C8        1.0  0.8994632457329387  0.9223795575239394  0.3808658120755836  1.0000
  C   C9        1.0  0.4824312319249841  0.9671703237516024  0.6142802250951858  1.0000
  C   C10       1.0  0.9824412928043172  0.0328319821538869  0.3857186218819136  1.0000
  C   C11       1.0  0.39094546258032636  0.8650082510629886  0.6305190106555398  1.0000
  C   C12       1.0  0.890953489399287  0.1349931493582162  0.3694827861896285  1.0000
  C   C13       1.0  0.21508154195169024  0.8707746336507897  0.6516359287819853  1.0000
  C   C14       1.0  0.7150907230546865  0.1292245583937657  0.3483663499198784  1.0000
  C   C15       1.0  0.13042664070353274  0.9792547298970791  0.6546014232171017  1.0000
  C   C16       1.0  0.6304351716355967  0.020744977530768004  0.3453991499979452  1.0000
  C   C17       1.0  0.22134572856742804  0.0819426996115311  0.6374931769995981  1.0000
  C   C18       1.0  0.7213531985801254  0.9180572111038715  0.3625067789898964  1.0000
  C   C19       1.0  0.3184046391504721  0.49794394089020955  0.6740632715834636  1.0000
  C   C20       1.0  0.8184018173875812  0.5020578308092496  0.32593451362686915  1.0000
  C   C21       1.0  0.3951152814468912  0.5546360334214384  0.7671660891699756  1.0000
  C   C22       1.0  0.8951104351016211  0.4453659004636775  0.23283105403969265  1.0000
  C   C23       1.0  0.3421093163999486  0.5258236987073842  0.8621385514572991  1.0000
  C   C24       1.0  0.84210806434848  0.4741782012752224  0.1378600508404517  1.0000
  C   C25       1.0  0.3866391275069175  0.584268852334013  0.9615623236306803  1.0000
  C   C26       1.0  0.8866358126990619  0.4157278386325061  0.0384356187851722  1.0000
  C   C27       1.0  0.4800826969521878  0.6906048656404663  0.970940056943945  1.0000
  C   C28       1.0  0.9800838412455875  0.30938939686769373  0.02905729176806199  1.0000
  C   C29       1.0  0.5140554498946129  0.7448980637650635  0.0681657654861567  1.0000
  C   C30       1.0  0.014055419226309596  0.2551011278932407  0.9318322775515426  1.0000
  C   C31       1.0  0.4555464934147364  0.6944666889063242  0.1579104084783083  1.0000
  C   C32       1.0  0.9555588862839386  0.3055344804156519  0.8420860707339057  1.0000
  C   C33       1.0  0.36225924176178376  0.5893241135309637  0.1500181897741726  1.0000
  C   C34       1.0  0.8622633182482247  0.4106751459794324  0.8499796910234989  1.0000
  C   C35       1.0  0.3279678186497462  0.5349187195668109  0.052740816342883086  1.0000
  C   C36       1.0  0.8279713622048562  0.4650769817176012  0.9472578059034685  1.0000
  C   C37       1.0  0.33301340357520093  0.3290578004415324  0.35896034227682344  1.0000
  C   C38       1.0  0.8330129626301285  0.6709406739104226  0.6410398211562907  1.0000
  C   C39       1.0  0.3182159479524457  0.2496126370617588  0.26514063592356507  1.0000
  C   C40       1.0  0.8182176683797948  0.7503859139106409  0.7348610532178765  1.0000
  C   C41       1.0  0.4203804170265073  0.2600852066266484  0.18164269009535863  1.0000
  C   C42       1.0  0.9203798815319074  0.7399144598463466  0.8183583950555614  1.0000
  C   C43       1.0  0.4146695147979215  0.18798597309333326  0.08474653808455199  1.0000
  C   C44       1.0  0.9146698298503892  0.8120127971755977  0.9152545434811187  1.0000
  C   C45       1.0  0.3303265673257414  0.07811222447186589  0.0754332465295633  1.0000
  C   C46       1.0  0.8303262874808011  0.9218881209007319  0.9245684509831518  1.0000
  C   C47       1.0  0.32597728811238375  0.013122630801532894  0.9807276983869213  1.0000
  C   C48       1.0  0.8259733994333445  0.9868768222993014  0.019273997910822495  1.0000
  C   C49       1.0  0.40497834628375523  0.05632177392076441  0.8933748834318747  1.0000
  C   C50       1.0  0.9049797138990314  0.9436770877378678  0.10662773274463427  1.0000
  C   C51       1.0  0.48992090604049565  0.1647878612333926  0.901381183190608  1.0000
  C   C52       1.0  0.9899216013443565  0.8352102470288756  0.09862003595767989  1.0000
  C   C53       1.0  0.4957624688131331  0.2295025445194838  0.9964493471179877  1.0000
  C   C54       1.0  0.9957662087126664  0.7704973400159078  0.0035518694750606983  1.0000
  O   O1        1.0  0.6428200026960837  0.4079411592085478  0.5861277614603323  1.0000
  O   O2        1.0  0.1428260739879619  0.592058524354961  0.41387205760814527  1.0000
  O   O3        1.0  0.903364588115913  0.3229516882439398  0.5860357023846275  1.0000
  O   O4        1.0  0.4033711589572561  0.6770496286780983  0.413964564605905  1.0000
  O   O5        1.0  0.34616515350584354  0.5428682459303502  0.5845160559246237  1.0000
  O   O6        1.0  0.8461650251104799  0.45713624513172124  0.4154817585769877  1.0000
  O   O7        1.0  0.21264205788242652  0.4131397777688193  0.676739756220371  1.0000
  O   O8        1.0  0.7126410036178754  0.5868628065245359  0.32326094122445426  1.0000
  O   O9        1.0  0.21071683122763565  0.32688409386019396  0.4253018795247172  1.0000
  O   O10       1.0  0.7107173918681085  0.6731184848664283  0.574698814564627  1.0000
  O   O11       1.0  0.46289014323947697  0.39665935103200667  0.370777242218331  1.0000
  O   O12       1.0  0.9628918156678381  0.6033404384112514  0.6292239170557465  1.0000
