data_image0
_chemical_formula_structural       Cd4B4H92C108N12O16F8
_chemical_formula_sum              "Cd4 B4 H92 C108 N12 O16 F8"
_cell_length_a       15.298315191636123
_cell_length_b       15.298297535654637
_cell_length_c       16.57293998922851
_cell_angle_alpha    84.05124715119399
_cell_angle_beta     84.05123118654707
_cell_angle_gamma    89.71420392018751

_space_group_name_H-M_alt    "P 1"
_space_group_IT_number       1

loop_
  _space_group_symop_operation_xyz
  'x, y, z'

loop_
  _atom_site_type_symbol
  _atom_site_label
  _atom_site_symmetry_multiplicity
  _atom_site_fract_x
  _atom_site_fract_y
  _atom_site_fract_z
  _atom_site_occupancy
  Cd  Cd1       1.0  0.8663467046830392  0.1143700358478625  0.3397623618396892  1.0000
  Cd  Cd2       1.0  0.8856316452370053  0.13365239089330325  0.1602327356444491  1.0000
  Cd  Cd3       1.0  0.13366245769571353  0.8856307754125083  0.660227118355756  1.0000
  Cd  Cd4       1.0  0.1143760891118788  0.8663313060411892  0.8397638748206048  1.0000
  B   B1        1.0  0.39099132220854943  0.08819418908055351  0.14196360520827506  1.0000
  B   B2        1.0  0.9118097217751141  0.6090094124868769  0.35803845710429266  1.0000
  B   B3        1.0  0.6090072927613263  0.9118098521995465  0.8580368035958297  1.0000
  B   B4        1.0  0.08819283157298231  0.3909920112273113  0.6419600204166682  1.0000
  H   H1        1.0  0.74850476308999  0.13573294093372104  0.7590182380534287  1.0000
  H   H2        1.0  0.8642682940303745  0.251498414588788  0.7409830307146519  1.0000
  H   H3        1.0  0.2514951460532941  0.8642671579544231  0.24098241349100388  1.0000
  H   H4        1.0  0.13573095551373632  0.7485023353042096  0.2590188284272584  1.0000
  H   H5        1.0  0.8284111949846462  0.0521291333750256  0.7664223990565444  1.0000
  H   H6        1.0  0.9478728717152123  0.17159236686561033  0.7335781318893381  1.0000
  H   H7        1.0  0.17158871464590672  0.9478716198399652  0.2335787958712245  1.0000
  H   H8        1.0  0.0521283552037559  0.8284083901090257  0.2664223385437197  1.0000
  H   H9        1.0  0.7539363993598087  0.2372395632546827  0.6198147153070863  1.0000
  H   H10       1.0  0.762764565888908  0.2460663060201895  0.880188158492778  1.0000
  H   H11       1.0  0.24606417084446264  0.7627618476091628  0.38018635878987783  1.0000
  H   H12       1.0  0.2372359869693241  0.7539311644607666  0.11981267497204577  1.0000
  H   H13       1.0  0.7824673652477473  0.2343675829003544  0.46844711869356803  1.0000
  H   H14       1.0  0.7656361369275617  0.2175337886805693  0.03155608658605758  1.0000
  H   H15       1.0  0.21753254487007473  0.7656338246414905  0.5315546196175375  1.0000
  H   H16       1.0  0.23436508852959295  0.7824650053134972  0.9684427536969833  1.0000
  H   H17       1.0  0.9185757121145316  0.00029021223055280073  0.4951442861303119  1.0000
  H   H18       1.0  0.9997127326207931  0.08142317265359371  0.004855512973961101  1.0000
  H   H19       1.0  0.08142289802177773  0.9997112088577752  0.5048545530740184  1.0000
  H   H20       1.0  0.00028717940697480014  0.9185769291188919  0.9951445346368857  1.0000
  H   H21       1.0  0.9042181866357168  0.9973927673224735  0.6469419155924141  1.0000
  H   H22       1.0  0.002609293562187502  0.09578335166523289  0.8530571376510208  1.0000
  H   H23       1.0  0.09578238210674074  0.0026066805608096003  0.3530575283545261  1.0000
  H   H24       1.0  0.9973886458851455  0.9042154401406249  0.1469420040348339  1.0000
  H   H25       1.0  0.1984856103750801  0.1364208625098655  0.0397469231549294  1.0000
  H   H26       1.0  0.8635807295892448  0.8015138450681007  0.4602524940592401  1.0000
  H   H27       1.0  0.8015129838770039  0.8635785811761282  0.9602533055672846  1.0000
  H   H28       1.0  0.13641985792192912  0.19848758310186548  0.5397449564362375  1.0000
  H   H29       1.0  0.15083067341185344  0.0363658417451731  0.0846597249493257  1.0000
  H   H30       1.0  0.9636348108565829  0.8491683365972095  0.41534101685059704  1.0000
  H   H31       1.0  0.8491685780421961  0.963633602378465  0.9153404434923256  1.0000
  H   H32       1.0  0.03636576800114001  0.15083308291969638  0.5846582454456238  1.0000
  H   H33       1.0  0.2674716604756071  0.04332255996541791  0.055574723646898874  1.0000
  H   H34       1.0  0.9566783281160767  0.7325274795072048  0.44442536205669103  1.0000
  H   H35       1.0  0.732526931379262  0.956677535163081  0.9444266523922377  1.0000
  H   H36       1.0  0.0433215930524113  0.2674732852452024  0.555573417136756  1.0000
  H   H37       1.0  0.08901779459827  0.19157333439349594  0.3648517437147945  1.0000
  H   H38       1.0  0.8084273094607325  0.9109831381538385  0.13514946402543157  1.0000
  H   H39       1.0  0.9109801520798443  0.8084274261616287  0.6351478202539125  1.0000
  H   H40       1.0  0.19157194585234552  0.0890176175078636  0.8648511872493143  1.0000
  H   H41       1.0  0.18968363984240005  0.24483110431243926  0.37780732195624  1.0000
  H   H42       1.0  0.755169820881129  0.8103176209527803  0.12219442503582197  1.0000
  H   H43       1.0  0.8103162688136152  0.7551683402488506  0.6221927862048486  1.0000
  H   H44       1.0  0.2448300950056606  0.1896837923577763  0.8778061054081261  1.0000
  H   H45       1.0  0.1690382376615673  0.13664164341196994  0.4219005312323673  1.0000
  H   H46       1.0  0.8633592129058272  0.8309620561041341  0.07810069198875882  1.0000
  H   H47       1.0  0.8309610200487186  0.863358460807234  0.5780989727254562  1.0000
  H   H48       1.0  0.13663938857703783  0.1690393563311333  0.9218999590163076  1.0000
  H   H49       1.0  0.36676760182508167  0.2997817808300312  0.3739075795335934  1.0000
  H   H50       1.0  0.7002169530226328  0.6332323952176111  0.12609144576323666  1.0000
  H   H51       1.0  0.6332309991705145  0.7002189772783824  0.6260925280881365  1.0000
  H   H52       1.0  0.2997823046876533  0.36676770900159283  0.8739080581945868  1.0000
  H   H53       1.0  0.3396286813191196  0.3285952127293328  0.5195035075039769  1.0000
  H   H54       1.0  0.6714020730720024  0.6603696367336697  0.9804962603718791  1.0000
  H   H55       1.0  0.6603705807374569  0.6714068573547821  0.48049702267028477  1.0000
  H   H56       1.0  0.32859323854201256  0.33963046197531804  0.019504209202899893  1.0000
  H   H57       1.0  0.3105118725098919  0.204065453424441  0.6279999760872171  1.0000
  H   H58       1.0  0.7959312561856109  0.689487563928253  0.8719985185845825  1.0000
  H   H59       1.0  0.6894873852003941  0.795934650794763  0.3719995278706135  1.0000
  H   H60       1.0  0.20406406119737847  0.31051254054943916  0.1280007431230317  1.0000
  H   H61       1.0  0.30632570198506676  0.05053894939530321  0.5905265881377132  1.0000
  H   H62       1.0  0.94945829273329  0.6936747055483822  0.9094735527917236  1.0000
  H   H63       1.0  0.6936735590969717  0.9494618120351107  0.40947285526987537  1.0000
  H   H64       1.0  0.0505383385663549  0.3063247454777453  0.0905250449714359  1.0000
  H   H65       1.0  0.3312223515937164  0.022647376931992404  0.4446443936458876  1.0000
  H   H66       1.0  0.9773501479805021  0.6687759805275347  0.0553566630139031  1.0000
  H   H67       1.0  0.6687755888281545  0.9773527235275734  0.5553558348066472  1.0000
  H   H68       1.0  0.022648451553280304  0.33122281460031644  0.9446418144578103  1.0000
  H   H69       1.0  0.621532047283921  0.1404665898675432  0.3989913890774729  1.0000
  H   H70       1.0  0.8595320264678464  0.3784675259413818  0.10101002699958167  1.0000
  H   H71       1.0  0.3784685002926195  0.8595315291715551  0.6010111956378522  1.0000
  H   H72       1.0  0.1404678855599144  0.6215325758311109  0.8989900206112651  1.0000
  H   H73       1.0  0.5138945035114802  0.10450391188322067  0.4401164481419924  1.0000
  H   H74       1.0  0.8954950513380381  0.48610499720977174  0.05988616213646479  1.0000
  H   H75       1.0  0.48610472966112894  0.8954942062805885  0.5598862571344652  1.0000
  H   H76       1.0  0.10450485443349321  0.5138944444671623  0.9401145499582095  1.0000
  H   H77       1.0  0.5318364894599129  0.21578836220543002  0.404375277125986  1.0000
  H   H78       1.0  0.7842107762753798  0.4681622463875073  0.09562619672171015  1.0000
  H   H79       1.0  0.46816209613871973  0.784211072827503  0.5956267633969643  1.0000
  H   H80       1.0  0.21578847469140075  0.531836543409277  0.9043734283365978  1.0000
  H   H81       1.0  0.5573873627212155  0.0139992007738527  0.08104802233624746  1.0000
  H   H82       1.0  0.986001900301389  0.4426112312950183  0.4189532448349809  1.0000
  H   H83       1.0  0.44261188536108165  0.9859995861385827  0.9189522066556391  1.0000
  H   H84       1.0  0.013999326130310404  0.5573888713527566  0.5810466822147402  1.0000
  H   H85       1.0  0.6588121359900257  0.06854874732487562  0.09150700235431937  1.0000
  H   H86       1.0  0.9314519505269773  0.3411872416142502  0.40849361834469267  1.0000
  H   H87       1.0  0.34118776352526936  0.9314500342564997  0.9084943742241687  1.0000
  H   H88       1.0  0.0685499326194119  0.6588122071443153  0.591505705041129  1.0000
  H   H89       1.0  0.5711688313263749  0.12599771686551262  0.046348052658657886  1.0000
  H   H90       1.0  0.8740030800052595  0.4288309448515335  0.4536519444146092  1.0000
  H   H91       1.0  0.42883173790335155  0.8740023853446245  0.9536519346716257  1.0000
  H   H92       1.0  0.12599813342669108  0.5711671832782699  0.546348768219417  1.0000
  C   C1        1.0  0.8160580564263713  0.11811130270361761  0.7371460078411756  1.0000
  C   C2        1.0  0.8818907650277766  0.1839453085210252  0.7628563593334617  1.0000
  C   C3        1.0  0.18394119165592568  0.8818874842088178  0.26285422115071805  1.0000
  C   C4        1.0  0.11810849893874584  0.8160554557937375  0.23714248014054815  1.0000
  C   C5        1.0  0.8261156229188701  0.11677465578020471  0.6463717343969291  1.0000
  C   C6        1.0  0.8832290788801486  0.17388893742636924  0.8536309718222694  1.0000
  C   C7        1.0  0.1738836285351795  0.8832247883434337  0.3536284340447223  1.0000
  C   C8        1.0  0.11677149420860639  0.8261124763218319  0.14636949834111587  1.0000
  C   C9        1.0  0.7916528461444302  0.18374687962619154  0.5948370878563549  1.0000
  C   C10       1.0  0.8162555981446289  0.20835048613010096  0.9051664672936961  1.0000
  C   C11       1.0  0.20834705913983242  0.8162519077238883  0.40516308085497593  1.0000
  C   C12       1.0  0.183744965803406  0.7916502646381857  0.09483527128708862  1.0000
  C   C13       1.0  0.8063374080260105  0.18249584050166592  0.5108439487494534  1.0000
  C   C14       1.0  0.8175105031519793  0.19366693868776963  0.9891585528673655  1.0000
  C   C15       1.0  0.19366250786077896  0.8175055728088908  0.4891565816944946  1.0000
  C   C16       1.0  0.1824913747127184  0.8063331586289453  0.010842521768957189  1.0000
  C   C17       1.0  0.88421261753075  0.052299756557175704  0.5257455855481508  1.0000
  C   C18       1.0  0.9477045272718102  0.1157885941207297  0.9742543388080093  1.0000
  C   C19       1.0  0.11578665269200882  0.9477016678531526  0.474252589442031  1.0000
  C   C20       1.0  0.052298019820050015  0.8842121694978927  0.025744803196772605  1.0000
  C   C21       1.0  0.8744364818649687  0.0504539145583607  0.6101428918002654  1.0000
  C   C22       1.0  0.9495475454271868  0.125564951525547  0.8898572724577247  1.0000
  C   C23       1.0  0.12556342967553044  0.9495455328872779  0.3898566124272378  1.0000
  C   C24       1.0  0.050451064221853414  0.874435815235927  0.11014102336326193  1.0000
  C   C25       1.0  0.06110872902653601  0.1238104550559953  0.22128986218968544  1.0000
  C   C26       1.0  0.8761882064529092  0.9388911239472434  0.27871584309040986  1.0000
  C   C27       1.0  0.9388898739181358  0.8761929203598343  0.7787124189654049  1.0000
  C   C28       1.0  0.12380842582127372  0.06110963573259202  0.7212838414394297  1.0000
  C   C29       1.0  0.20979514419600787  0.0775431980608019  0.0812388239363884  1.0000
  C   C30       1.0  0.922458205198055  0.7902036381156139  0.41876126341064407  1.0000
  C   C31       1.0  0.7902027995976156  0.9224575596099672  0.9187613439658974  1.0000
  C   C32       1.0  0.07754237077518412  0.2097977785169434  0.5812386028191552  1.0000
  C   C33       1.0  0.222047837911397  0.10410895556167789  0.16302501954380935  1.0000
  C   C34       1.0  0.8958921901605026  0.7779515641087399  0.3369744337057483  1.0000
  C   C35       1.0  0.7779487852220655  0.8958911411382432  0.8369759334034298  1.0000
  C   C36       1.0  0.1041083882099443  0.22204920108131188  0.6630242852071361  1.0000
  C   C37       1.0  0.15705345075804186  0.12713072891708072  0.22527948817141658  1.0000
  C   C38       1.0  0.8728691879105526  0.8429457172002232  0.2747213213869273  1.0000
  C   C39       1.0  0.8429438329491391  0.8728700254316946  0.7747213439450177  1.0000
  C   C40       1.0  0.12713007268421714  0.1570543899033368  0.7252775786373248  1.0000
  C   C41       1.0  0.20060778737147444  0.1484492692310084  0.29171876063029595  1.0000
  C   C42       1.0  0.8515508216155468  0.7993915176140405  0.20828201652597755  1.0000
  C   C43       1.0  0.7993894958484375  0.851550830790913  0.7082815281028018  1.0000
  C   C44       1.0  0.1484484288639649  0.20060661785588962  0.791717065148994  1.0000
  C   C45       1.0  0.15950405018075742  0.18240927366477425  0.3679433889362541  1.0000
  C   C46       1.0  0.8175918329695618  0.8404965715036211  0.1320565841502628  1.0000
  C   C47       1.0  0.8404938907283893  0.8175914811216458  0.6320573828996172  1.0000
  C   C48       1.0  0.1824074377404656  0.1595055072335541  0.8679421342232627  1.0000
  C   C49       1.0  0.291885976782318  0.13527250538950852  0.269160331556975  1.0000
  C   C50       1.0  0.8647290051500535  0.7081146761318922  0.23083896682589256  1.0000
  C   C51       1.0  0.7081126208415185  0.8647275955076951  0.7308398366149972  1.0000
  C   C52       1.0  0.13527354819804316  0.29188674758229644  0.7691595106950614  1.0000
  C   C53       1.0  0.3649250137011748  0.14083556441305942  0.3134561067013522  1.0000
  C   C54       1.0  0.8591648220238356  0.6350742439006325  0.18654341080844716  1.0000
  C   C55       1.0  0.6350735810381778  0.8591645335997954  0.6865446654041987  1.0000
  C   C56       1.0  0.14083707026327366  0.36492586783785436  0.8134546441599682  1.0000
  C   C57       1.0  0.3508564179605784  0.15938938335951752  0.40020318809420263  1.0000
  C   C58       1.0  0.8406065157123451  0.6491435758902994  0.09979788576862347  1.0000
  C   C59       1.0  0.6491415190895398  0.8406100598888387  0.5997971009085672  1.0000
  C   C60       1.0  0.15939142085050406  0.35085521303120265  0.9002018598508099  1.0000
  C   C61       1.0  0.3537437330978009  0.2453956484958795  0.4216333395478528  1.0000
  C   C62       1.0  0.754602411638743  0.6462563621106624  0.07836633467219666  1.0000
  C   C63       1.0  0.6462548707822722  0.7546051124968899  0.5783661641402986  1.0000
  C   C64       1.0  0.24539684655881192  0.3537443964353955  0.921633712668978  1.0000
  C   C65       1.0  0.33916302665564774  0.2613094777771536  0.5033660235324148  1.0000
  C   C66       1.0  0.7386880946025302  0.6608354259316797  0.9966342974555429  1.0000
  C   C67       1.0  0.6608368824876295  0.7386906211109833  0.4966346280120176  1.0000
  C   C68       1.0  0.2613078785597409  0.3391666390798704  0.0033671380551111964  1.0000
  C   C69       1.0  0.32257143770249286  0.19142134022826704  0.5642615994433767  1.0000
  C   C70       1.0  0.808576579597613  0.6774285192331462  0.9357385424794344  1.0000
  C   C71       1.0  0.6774284743252752  0.8085787615442257  0.435738448167477  1.0000
  C   C72       1.0  0.19142004979208593  0.32257223756233344  0.06426174598398399  1.0000
  C   C73       1.0  0.3199688792431843  0.1053310930254128  0.5433736076300661  1.0000
  C   C74       1.0  0.8946653478059545  0.6800299524378486  0.9566279652035377  1.0000
  C   C75       1.0  0.6800290611786864  0.894669007434146  0.4566266208224689  1.0000
  C   C76       1.0  0.10533128060920659  0.3199694957039299  0.04337123649320059  1.0000
  C   C77       1.0  0.3337367720646682  0.0895692180002854  0.46155909583112725  1.0000
  C   C78       1.0  0.9104273976102705  0.666262420125122  0.03844137320733408  1.0000
  C   C79       1.0  0.6662618255591682  0.9104308828969182  0.538441072340845  1.0000
  C   C80       1.0  0.0895705447215462  0.3337363745650848  0.9615571645449418  1.0000
  C   C81       1.0  0.44995679151952583  0.12574465770081386  0.2779158172612525  1.0000
  C   C82       1.0  0.8742576730569384  0.5500422821837178  0.22208533157887433  1.0000
  C   C83       1.0  0.5500418037070959  0.874256094638895  0.7220854982276348  1.0000
  C   C84       1.0  0.1257448644069328  0.4499571641281364  0.7779145354599705  1.0000
  C   C85       1.0  0.5335251559890113  0.1295073679158563  0.3093120034221072  1.0000
  C   C86       1.0  0.8704904397433069  0.46647393474963655  0.19069014789260308  1.0000
  C   C87       1.0  0.4664740863243182  0.8704914132278674  0.690689433436944  1.0000
  C   C88       1.0  0.1295114246343658  0.5335235337222458  0.8093111689446812  1.0000
  C   C89       1.0  0.5514510124465772  0.14868459107585616  0.39263662571219266  1.0000
  C   C90       1.0  0.8513144425764879  0.4485485222617527  0.10736476934463465  1.0000
  C   C91       1.0  0.448548232263967  0.8513135386253694  0.607363663829936  1.0000
  C   C92       1.0  0.14868546945127287  0.5514515795107401  0.8926352782662119  1.0000
  C   C93       1.0  0.5965721579449904  0.11414611169110601  0.2444551295027678  1.0000
  C   C94       1.0  0.8858565042642399  0.4034271700884632  0.2555471490073628  1.0000
  C   C95       1.0  0.40342972568866753  0.8858539913943202  0.7555447372663904  1.0000
  C   C96       1.0  0.11414864900774553  0.5965703034559909  0.7444532624935289  1.0000
  C   C97       1.0  0.5513342414774911  0.09900819505086389  0.17594489030209096  1.0000
  C   C98       1.0  0.9009933379883464  0.44866427137868214  0.32405756745805536  1.0000
  C   C99       1.0  0.4486656710375456  0.9009925610484827  0.8240557006920992  1.0000
  C   C100      1.0  0.09901050762321968  0.5513345157129023  0.6759428435034778  1.0000
  C   C101      1.0  0.5874708164730793  0.07528954505169591  0.09440294493765576  1.0000
  C   C102      1.0  0.9247117239197709  0.4125287012464582  0.40559883104115346  1.0000
  C   C103      1.0  0.412527772497306  0.9247105471924468  0.9055990350350595  1.0000
  C   C104      1.0  0.0752901505731742  0.5874707388590538  0.5944023041454115  1.0000
  C   C105      1.0  0.6933570335997175  0.11732734826110662  0.24458447012129608  1.0000
  C   C106      1.0  0.8826780829231  0.306639569131505  0.2554159735516491  1.0000
  C   C107      1.0  0.3066448317133705  0.8826675057877154  0.755414069249049  1.0000
  C   C108      1.0  0.11732705978548813  0.6933592015292475  0.7445879404502448  1.0000
  N   N1        1.0  0.8513189514576994  0.11729085163771912  0.4768692920996926  1.0000
  N   N2        1.0  0.882714625702313  0.14868440061582083  0.023131707847348103  1.0000
  N   N3        1.0  0.1486803216495431  0.8827105756569651  0.5231282789569106  1.0000
  N   N4        1.0  0.11728792187681589  0.8513170173296629  0.9768679775407704  1.0000
  N   N5        1.0  0.4641794659060281  0.105663057932496  0.19690873013352928  1.0000
  N   N6        1.0  0.8943403040789449  0.5358200451972195  0.3030922780841294  1.0000
  N   N7        1.0  0.5358197865225662  0.8943376948448574  0.8030925250748027  1.0000
  N   N8        1.0  0.10566289058689189  0.4641794015522791  0.6969075286741527  1.0000
  N   N9        1.0  0.3018719236627164  0.10913231601427502  0.19011125619753236  1.0000
  N   N10       1.0  0.8908699654787497  0.698127826829797  0.3098886513189995  1.0000
  N   N11       1.0  0.6981260268744194  0.8908697560789065  0.8098887906042762  1.0000
  N   N12       1.0  0.1091325878693468  0.30187359688439136  0.6901098262019614  1.0000
  O   O1        1.0  0.03352198638791751  0.12246363569944661  0.15121057277205807  1.0000
  O   O2        1.0  0.8775315425908375  0.9664740110320696  0.3487921893567928  1.0000
  O   O3        1.0  0.9664779174736681  0.8775371117468393  0.8487918300228756  1.0000
  O   O4        1.0  0.12246440985364873  0.0335234563853746  0.6512090660719705  1.0000
  O   O5        1.0  0.012143878554546505  0.1206112030871225  0.2889895527379663  1.0000
  O   O6        1.0  0.8793884982682842  0.9878581785854479  0.21101284617422775  1.0000
  O   O7        1.0  0.9878547215056417  0.8793921694443514  0.7110133323507026  1.0000
  O   O8        1.0  0.1206087916951333  0.0121432358588862  0.7889873214583856  1.0000
  O   O9        1.0  0.7380792227478138  0.1417147516838639  0.17644661782265558  1.0000
  O   O10       1.0  0.8582905281982319  0.2619218294423007  0.3235479976719091  1.0000
  O   O11       1.0  0.2619252627196715  0.8582800954624689  0.823553492226189  1.0000
  O   O12       1.0  0.14171132703872047  0.738074976049667  0.676454587582782  1.0000
  O   O13       1.0  0.725191217986314  0.0966833305161643  0.3120602831692877  1.0000
  O   O14       1.0  0.9033202207658492  0.2748055843194521  0.18793608150927807  1.0000
  O   O15       1.0  0.27481457367978385  0.9033082401024828  0.6879381972688846  1.0000
  O   O16       1.0  0.09668618337315142  0.7251839804909609  0.8120697675020309  1.0000
  F   F1        1.0  0.40276651963868915  0.14349021451238997  0.0681637966541686  1.0000
  F   F2        1.0  0.8565139466387421  0.5972363322710735  0.4318374528588862  1.0000
  F   F3        1.0  0.5972393269891397  0.8565171032160567  0.9318386659804571  1.0000
  F   F4        1.0  0.14349121674850102  0.4027631129070031  0.5681627769912863  1.0000
  F   F5        1.0  0.3924246525760182  0.9990318150345345  0.1261164038462752  1.0000
  F   F6        1.0  0.000971843137350001  0.6075778272318858  0.3738832671826912  1.0000
  F   F7        1.0  0.6075733345239983  0.0009729089783121024  0.8738785692859279  1.0000
  F   F8        1.0  0.9990333596972576  0.39242427275020475  0.62611128506429  1.0000
