data_image0
_chemical_formula_structural       CuH22C32N2O4F6
_chemical_formula_sum              "Cu1 H22 C32 N2 O4 F6"
_cell_length_a       8.483152011435031
_cell_length_b       9.393075340900761
_cell_length_c       9.797837810001154
_cell_angle_alpha    65.85716968396319
_cell_angle_beta     78.1000858645797
_cell_angle_gamma    90.09632096442294

_space_group_name_H-M_alt    "P 1"
_space_group_IT_number       1

loop_
  _space_group_symop_operation_xyz
  'x, y, z'

loop_
  _atom_site_type_symbol
  _atom_site_label
  _atom_site_symmetry_multiplicity
  _atom_site_fract_x
  _atom_site_fract_y
  _atom_site_fract_z
  _atom_site_occupancy
  Cu  Cu1       1.0  0.9999959172465579  0.9999973945700235  0.5000059702959233  1.0000
  H   H1        1.0  0.9912401562355272  0.49800431031287223  0.23610790182686958  1.0000
  H   H2        1.0  0.008765204199185878  0.5019908833172478  0.7638912836977525  1.0000
  H   H3        1.0  0.8254164730303658  0.6137405467075894  0.3102449010144284  1.0000
  H   H4        1.0  0.17458971471874923  0.3862652393657057  0.689753975147319  1.0000
  H   H5        1.0  0.6313182236666394  0.7512305796457212  0.4232693861211914  1.0000
  H   H6        1.0  0.3686876882232967  0.24877167945517445  0.5767299318651026  1.0000
  H   H7        1.0  0.4873529097657752  0.6216082034241383  0.698751887811859  1.0000
  H   H8        1.0  0.5126483594456275  0.37839628074743803  0.3012453213233712  1.0000
  H   H9        1.0  0.5422881126535373  0.35142177894337573  0.8607002774819607  1.0000
  H   H10       1.0  0.4577130647802221  0.6485815218867473  0.1392964015209372  1.0000
  H   H11       1.0  0.7368424846795493  0.21150118525078906  0.7464846896375334  1.0000
  H   H12       1.0  0.263159991090312  0.7885033343238345  0.25351331177662223  1.0000
  H   H13       1.0  0.6404948357205953  0.11630238714005257  0.4433565949285736  1.0000
  H   H14       1.0  0.3594954800558128  0.8837007103223085  0.5566431146715658  1.0000
  H   H15       1.0  0.43992510146102864  0.11288573331206211  0.28838181493127735  1.0000
  H   H16       1.0  0.5600735713412986  0.8871163018445427  0.7116117332706722  1.0000
  H   H17       1.0  0.8050970751861827  0.9377158480690966  0.033419848016961906  1.0000
  H   H18       1.0  0.1948975153688224  0.062280325534693794  0.9665828982372275  1.0000
  H   H19       1.0  0.9856439468840181  0.946197245855039  0.20084101927792367  1.0000
  H   H20       1.0  0.014351288482608  0.05380710740515579  0.7991562929056926  1.0000
  H   H21       1.0  0.3698032068211887  0.059324150051693905  0.09450670955310159  1.0000
  H   H22       1.0  0.630191569657221  0.940674286501263  0.9054879519688798  1.0000
  C   C1        1.0  0.20474760083953925  0.38641118349485026  0.0781664869713907  1.0000
  C   C2        1.0  0.7952559994764884  0.6135770014692029  0.9218399026987142  1.0000
  C   C3        1.0  0.1123675657252363  0.2981942970625653  0.24661490614150944  1.0000
  C   C4        1.0  0.8876338970699321  0.7017973555937544  0.7533904732569568  1.0000
  C   C5        1.0  0.0006992832824365858  0.3763773703183232  0.3080989172378281  1.0000
  C   C6        1.0  0.9993049615820909  0.6236190058281037  0.6919030544724691  1.0000
  C   C7        1.0  0.9043029899841457  0.3075344286029775  0.4597757981624752  1.0000
  C   C8        1.0  0.09570153126580286  0.6924654514639099  0.540223699501759  1.0000
  C   C9        1.0  0.7948398264473867  0.4013884163639857  0.5213936734973146  1.0000
  C   C10       1.0  0.2051649706617411  0.5986149906753012  0.4786053823423729  1.0000
  C   C11       1.0  0.7655552460201563  0.5551401744412914  0.43137690139878515  1.0000
  C   C12       1.0  0.23444973517050732  0.444865576228949  0.5686211824840371  1.0000
  C   C13       1.0  0.6556041809704568  0.6335798903405702  0.4951784010524419  1.0000
  C   C14       1.0  0.34440079995707873  0.36642587185564685  0.5048206989411383  1.0000
  C   C15       1.0  0.5745596589127828  0.5608519805710515  0.6492774449959313  1.0000
  C   C16       1.0  0.4254429088978426  0.4391537108190562  0.35072007043978454  1.0000
  C   C17       1.0  0.6047333803575513  0.4088761797216377  0.7403802222542097  1.0000
  C   C18       1.0  0.39526798063148766  0.5911294877913846  0.25961751701334623  1.0000
  C   C19       1.0  0.713547525156855  0.33026010703742503  0.6769022885590203  1.0000
  C   C20       1.0  0.2864537435282913  0.6697444001860899  0.3230969527977266  1.0000
  C   C21       1.0  0.6719036633223754  0.0781521568085921  0.35050962946234415  1.0000
  C   C22       1.0  0.32809296294736606  0.9218545639596413  0.6494864869325738  1.0000
  C   C23       1.0  0.5608430840046168  0.0765455853567758  0.2644030032235847  1.0000
  C   C24       1.0  0.43915438171300986  0.9234564374487206  0.7355917849209561  1.0000
  C   C25       1.0  0.605231661647423  0.026112853150479502  0.14606654799636223  1.0000
  C   C26       1.0  0.39476691832476263  0.9738880447685645  0.8539305345163084  1.0000
  C   C27       1.0  0.7627108046544252  0.9799764472831995  0.12157525251326706  1.0000
  C   C28       1.0  0.23728508528918013  0.020020898961213604  0.8784247517091329  1.0000
  C   C29       1.0  0.8642513237860855  0.9845467174891309  0.2145094877783649  1.0000
  C   C30       1.0  0.13574270502208213  0.015457600368009104  0.7854870321263263  1.0000
  C   C31       1.0  0.48734565203783825  0.022436371498230294  0.05840339193102302  1.0000
  C   C32       1.0  0.5126517211127748  0.9775645025437283  0.9415939144134811  1.0000
  N   N1        1.0  0.8209067770070675  0.032126269567491796  0.32797599943251754  1.0000
  N   N2        1.0  0.17909133194343235  0.9678840020502263  0.6720194513060277  1.0000
  O   O1        1.0  0.15052891329708734  0.15812405445311833  0.3073633790866026  1.0000
  O   O2        1.0  0.8494676296447495  0.8418663539313441  0.6926454138391449  1.0000
  O   O3        1.0  0.9020919831089814  0.1633383022857018  0.5520568779049668  1.0000
  O   O4        1.0  0.09790520464446932  0.8366602857551583  0.44794648095021466  1.0000
  F   F1        1.0  0.156205240335737  0.31979725909816636  0.9898899494961455  1.0000
  F   F2        1.0  0.8438017963635077  0.6801886538661749  0.01011674063533243  1.0000
  F   F3        1.0  0.3670861690226488  0.37488736621330077  0.06342058836995083  1.0000
  F   F4        1.0  0.632913534180098  0.6250972547250129  0.9365899629524819  1.0000
  F   F5        1.0  0.1835929976399768  0.5413010996887095  0.012586841790273648  1.0000
  F   F6        1.0  0.8164116259423508  0.4586847424695292  0.987418263783347  1.0000
