data_image0
_chemical_formula_structural       Na4H44C24N32O8
_chemical_formula_sum              "Na4 H44 C24 N32 O8"
_cell_length_a       6.184823475152976
_cell_length_b       8.98376779693311
_cell_length_c       21.058112024258094
_cell_angle_alpha    78.77480655827124
_cell_angle_beta     81.62657092128192
_cell_angle_gamma    69.87679006200833

_space_group_name_H-M_alt    "P 1"
_space_group_IT_number       1

loop_
  _space_group_symop_operation_xyz
  'x, y, z'

loop_
  _atom_site_type_symbol
  _atom_site_label
  _atom_site_symmetry_multiplicity
  _atom_site_fract_x
  _atom_site_fract_y
  _atom_site_fract_z
  _atom_site_occupancy
  Na  Na1       1.0  0.2820115095054093  0.9726505259187305  0.4645623156393341  1.0000
  Na  Na2       1.0  0.7198080923193473  0.5269375258865736  0.035493128549717305  1.0000
  Na  Na3       1.0  0.7179898450774117  0.0273468664860843  0.5354373088055125  1.0000
  Na  Na4       1.0  0.2801895370083904  0.4730634668429587  0.9645066726919679  1.0000
  H   H1        1.0  0.07312416755046065  0.2052593128793134  0.5537824539168312  1.0000
  H   H2        1.0  0.8311069005778795  0.2949506023734969  0.9462145283853757  1.0000
  H   H3        1.0  0.9268787508527512  0.7947380795255015  0.44621724157903486  1.0000
  H   H4        1.0  0.1688903415823333  0.7050491902477987  0.05378629788611989  1.0000
  H   H5        1.0  0.2872754703419601  0.9217539354208668  0.6054324925052441  1.0000
  H   H6        1.0  0.8145498927417093  0.5784737740768549  0.8945260482114037  1.0000
  H   H7        1.0  0.7127237228061674  0.0782470573086727  0.3945673797874533  1.0000
  H   H8        1.0  0.18544930040641827  0.4215272186526846  0.1054738240813009  1.0000
  H   H9        1.0  0.5694540580015897  0.5324832260679173  0.2789254082267192  1.0000
  H   H10       1.0  0.38099917513319775  0.9677576846204587  0.2211888309477175  1.0000
  H   H11       1.0  0.4305509157227549  0.4675177666616221  0.7210752229753935  1.0000
  H   H12       1.0  0.6189954140915649  0.0322421080008368  0.7788113785164085  1.0000
  H   H13       1.0  0.18663413474638474  0.6213188383863155  0.3345603932401744  1.0000
  H   H14       1.0  0.14315541230961773  0.8785728408039475  0.16545610139907302  1.0000
  H   H15       1.0  0.8133737898979874  0.3786761538020187  0.6654421112247134  1.0000
  H   H16       1.0  0.8568453446588936  0.121428151925592  0.8345438419446508  1.0000
  H   H17       1.0  0.9727197784509231  0.49762368199360907  0.2388643423975765  1.0000
  H   H18       1.0  0.7099717770276043  0.0024662224351104  0.2609738067945102  1.0000
  H   H19       1.0  0.027283648248456527  0.502380911060655  0.7611375571140683  1.0000
  H   H20       1.0  0.2900264145432629  0.997533570186185  0.7390260700663305  1.0000
  H   H21       1.0  0.001854186256046884  0.4109266625605414  0.47439189208267857  1.0000
  H   H22       1.0  0.8864596633179148  0.0893420579960704  0.02554599410823499  1.0000
  H   H23       1.0  0.9981487321471648  0.5890707298442734  0.5256078034131875  1.0000
  H   H24       1.0  0.11353587531750266  0.9106577346252251  0.9744532659452361  1.0000
  H   H25       1.0  0.7238903322291539  0.3900195768952912  0.500257076705516  1.0000
  H   H26       1.0  0.6132007666225976  0.1101411339196403  0.9997284229730994  1.0000
  H   H27       1.0  0.27611046011055146  0.6099790156177605  0.49974247212016815  1.0000
  H   H28       1.0  0.3867881109879789  0.8898634591346166  0.00027331178468161134  1.0000
  H   H29       1.0  0.8901191526456599  0.3075313370631747  0.4305940502450624  1.0000
  H   H30       1.0  0.6278983658252387  0.1927421839264056  0.06934757487820062  1.0000
  H   H31       1.0  0.10988429262948085  0.6924672554498841  0.5694061153879915  1.0000
  H   H32       1.0  0.37210353242494404  0.8072600089113706  0.9306538590643854  1.0000
  H   H33       1.0  0.4179605081453986  0.6636910600488477  0.6216478233330917  1.0000
  H   H34       1.0  0.7034428945693352  0.8365426499900721  0.8782138858684403  1.0000
  H   H35       1.0  0.5820371565535326  0.336307532464204  0.378351583390554  1.0000
  H   H36       1.0  0.2965583724756939  0.1634559425229796  0.1217851882519199  1.0000
  H   H37       1.0  0.681200296917048  0.706896156830588  0.6185959079350383  1.0000
  H   H38       1.0  0.006779222330166868  0.7933027500693512  0.8813708025006189  1.0000
  H   H39       1.0  0.3187994938453897  0.2931012355742268  0.381403645458782  1.0000
  H   H40       1.0  0.9932205852276967  0.2066982426601882  0.1186300902537596  1.0000
  H   H41       1.0  0.5988606271665875  0.663895078449805  0.5477658515323397  1.0000
  H   H42       1.0  0.8108061283311442  0.836519847933495  0.9521373130861902  1.0000
  H   H43       1.0  0.401133874520383  0.3361059142797274  0.45223380760729986  1.0000
  H   H44       1.0  0.1891857725869883  0.1634823449042813  0.047862674088598595  1.0000
  C   C1        1.0  0.8285402995454946  0.6409478087749747  0.3475666043234397  1.0000
  C   C2        1.0  0.817754879486742  0.859025477775667  0.1523925282045653  1.0000
  C   C3        1.0  0.17145945584575648  0.3590519838463209  0.6524333435884202  1.0000
  C   C4        1.0  0.182243961865041  0.1409719146291479  0.8476079745999171  1.0000
  C   C5        1.0  0.3274042516498812  0.4809685798259693  0.224047646834606  1.0000
  C   C6        1.0  0.03299399706494197  0.0191993316384043  0.2759365551616852  1.0000
  C   C7        1.0  0.6726082617675786  0.5190324129035631  0.7759503492886068  1.0000
  C   C8        1.0  0.9670052314543728  0.9807992608746473  0.7240629226129868  1.0000
  C   C9        1.0  0.055813530749560365  0.5925786462325107  0.3140353339427477  1.0000
  C   C10       1.0  0.9631817871569976  0.9074534456219396  0.1859298476769098  1.0000
  C   C11       1.0  0.9441899313210059  0.4074235466052656  0.6859661710508576  1.0000
  C   C12       1.0  0.036815032464495905  0.0925475471075998  0.8140723981424215  1.0000
  C   C13       1.0  0.10485324342111112  0.5224047170605814  0.2601512621155848  1.0000
  C   C14       1.0  0.8880352509624035  0.9777497858344474  0.23975168932071259  1.0000
  C   C15       1.0  0.8951454918171111  0.4775998759936826  0.7398504242429951  1.0000
  C   C16       1.0  0.11196375031470761  0.0222500067868552  0.7602457429624748  1.0000
  C   C17       1.0  0.8990736935398902  0.3306034179950643  0.4791692673776069  1.0000
  C   C18       1.0  0.7080897487505311  0.1696088974742338  0.02077907503493749  1.0000
  C   C19       1.0  0.10093078868370528  0.6693939744097506  0.5208304991692784  1.0000
  C   C20       1.0  0.2919026790395381  0.8303944954717863  0.9792213822770462  1.0000
  C   C21       1.0  0.534954215155921  0.7219443140636201  0.5911921241349702  1.0000
  C   C22       1.0  0.8482867606026545  0.778359002253282  0.9087373825656115  1.0000
  C   C23       1.0  0.465045488068718  0.2780542784494386  0.4088068789343708  1.0000
  C   C24       1.0  0.15171039401975864  0.2216419904762574  0.09126289338139769  1.0000
  N   N1        1.0  0.5287250267601498  0.48697272135535025  0.23976426934564188  1.0000
  N   N2        1.0  0.25596573641105647  0.0131411852381902  0.26032459769817246  1.0000
  N   N3        1.0  0.47127578237497414  0.513029471482433  0.7602366188405937  1.0000
  N   N4        1.0  0.7440324551598112  0.9868586073831054  0.7396752791626682  1.0000
  N   N5        1.0  0.638567366631648  0.614891058647892  0.3337089449762445  1.0000
  N   N6        1.0  0.5879720819172364  0.8850978293098848  0.16622967826315718  1.0000
  N   N7        1.0  0.36143442728531733  0.3851087339734036  0.6662905992813108  1.0000
  N   N8        1.0  0.4120267594345541  0.1148995630949301  0.8337708245413181  1.0000
  N   N9        1.0  0.3703829001170219  0.4297647616184292  0.1661632034797904  1.0000
  N   N10       1.0  0.9670075280962678  0.070350345083348  0.33381353106072  1.0000
  N   N11       1.0  0.6296168720696472  0.5702386313275909  0.8338380837926208  1.0000
  N   N12       1.0  0.03298966189733258  0.9296482474297036  0.6661863503682497  1.0000
  N   N13       1.0  0.7744574428470091  0.7225707705653832  0.39837810373875016  1.0000
  N   N14       1.0  0.8958476180163192  0.7774685219385091  0.1015768485711135  1.0000
  N   N15       1.0  0.22554227717305536  0.277431422272393  0.6016222386911423  1.0000
  N   N16       1.0  0.10415331402779084  0.2225300705745425  0.898424195421576  1.0000
  N   N17       1.0  0.5488682301183445  0.7459332776915772  0.4152543113794138  1.0000
  N   N18       1.0  0.7104439170359241  0.754059210590917  0.084665983176258  1.0000
  N   N19       1.0  0.4511342657461487  0.2540653148214744  0.5847468036642951  1.0000
  N   N20       1.0  0.28955527611220355  0.24594178213861537  0.9153338891164394  1.0000
  N   N21       1.0  0.46718992548766664  0.6813398518399723  0.37662342600128074  1.0000
  N   N22       1.0  0.5257849323005318  0.8186202335200221  0.12328014700563018  1.0000
  N   N23       1.0  0.532813607325281  0.3186575405648426  0.6233772899562594  1.0000
  N   N24       1.0  0.4742142608475958  0.1813807592095174  0.8767197252870744  1.0000
  N   N25       1.0  0.5968965825721712  0.40658707116134  0.1480468574244043  1.0000
  N   N26       1.0  0.15224794398417182  0.0935040333756234  0.3520353730320521  1.0000
  N   N27       1.0  0.4031020483328333  0.5934151216764434  0.8519529392491378  1.0000
  N   N28       1.0  0.8477486837663054  0.9064957592456722  0.6479644327777621  1.0000
  N   N29       1.0  0.6940991225817541  0.4403077125150077  0.19206822017465439  1.0000
  N   N30       1.0  0.32707395437556397  0.059789392563161  0.3080919024040226  1.0000
  N   N31       1.0  0.30590467448973147  0.5596944803227757  0.8079313149466287  1.0000
  N   N32       1.0  0.6729236749521735  0.9402116001663785  0.6919078988376626  1.0000
  O   O1        1.0  0.006520554477610556  0.1795697958739524  0.5182340308486459  1.0000
  O   O2        1.0  0.7033133045070702  0.3206281182964474  0.9816789669132717  1.0000
  O   O3        1.0  0.9934838402081851  0.8204287966390993  0.4817651853737602  1.0000
  O   O4        1.0  0.29668281316689615  0.6793740745413288  0.01832170811990611  1.0000
  O   O5        1.0  0.41444083351120076  0.8892682054471166  0.5708732024378091  1.0000
  O   O6        1.0  0.8748382457004242  0.6110267101120925  0.9291091127481508  1.0000
  O   O7        1.0  0.5855573580596672  0.110731587174179  0.4291266744230313  1.0000
  O   O8        1.0  0.12516150969082673  0.388973082509203  0.0708908351637092  1.0000
