data_image0
_chemical_formula_structural       Zn4H36C40N16O16
_chemical_formula_sum              "Zn4 H36 C40 N16 O16"
_cell_length_a       9.436053355064558
_cell_length_b       10.224711525
_cell_length_c       13.938
_cell_angle_alpha    90.0
_cell_angle_beta     109.42916993199421
_cell_angle_gamma    90.0

_space_group_name_H-M_alt    "P 1"
_space_group_IT_number       1

loop_
  _space_group_symop_operation_xyz
  'x, y, z'

loop_
  _atom_site_type_symbol
  _atom_site_label
  _atom_site_symmetry_multiplicity
  _atom_site_fract_x
  _atom_site_fract_y
  _atom_site_fract_z
  _atom_site_occupancy
  Zn  Zn1       1.0  0.4343397268343523  0.8279930420824257  0.2482210256652237  1.0000
  Zn  Zn2       1.0  0.0656601343813676  0.3279926276453082  0.2517789789538725  1.0000
  Zn  Zn3       1.0  0.5656611193564274  0.1720068087691118  0.7517792366422357  1.0000
  Zn  Zn4       1.0  0.9343395880500793  0.6720062451835318  0.7482210302843271  1.0000
  H   H1        1.0  0.384111055687427  0.5984873005989257  0.5423300220924006  1.0000
  H   H2        1.0  0.11588768176896018  0.09848688616180819  0.9576690119943834  1.0000
  H   H3        1.0  0.61588866674402  0.40151450629801383  0.4576692696827465  1.0000
  H   H4        1.0  0.8841109169031469  0.9015139427124339  0.0423307441745493  1.0000
  H   H5        1.0  0.1806757789037547  0.5889691836562605  0.124460390946652  1.0000
  H   H6        1.0  0.3193240823119723  0.0889697472418405  0.3755388962093917  1.0000
  H   H7        1.0  0.8193239435276921  0.411030667195277  0.8755389008284951  1.0000
  H   H8        1.0  0.6806756401194747  0.9110301036096969  0.6244618304918532  1.0000
  H   H9        1.0  0.7503756893222686  0.7479467739800114  0.41845637620420467  1.0000
  H   H10       1.0  0.7496238943248982  0.24794635954289387  0.0815429201900386  1.0000
  H   H11       1.0  0.24962515686851816  0.2520530768715261  0.5815431686402093  1.0000
  H   H12       1.0  0.2503758281065416  0.7520544693313482  0.9184578065112061  1.0000
  H   H13       1.0  0.9575362283126196  0.942140027759855  0.23137500514338433  1.0000
  H   H14       1.0  0.5424644790938798  0.4421396133227304  0.2686252617831784  1.0000
  H   H15       1.0  0.0424634941188202  0.05785982309168249  0.7686250040948153  1.0000
  H   H16       1.0  0.45753411957822004  0.5578602375288071  0.7313744943857542  1.0000
  H   H17       1.0  0.64988126297024  0.9300037440420609  0.1306529599452944  1.0000
  H   H18       1.0  0.8501183206769269  0.4300043076276411  0.3693463364489489  1.0000
  H   H19       1.0  0.3501184594611999  0.0699961068094765  0.8693463318298527  1.0000
  H   H20       1.0  0.14988140175452  0.5699955432238966  0.6306536727892436  1.0000
  H   H21       1.0  0.12718146311953396  0.8127789209192358  0.4046340828849395  1.0000
  H   H22       1.0  0.3728172743368532  0.3127785064821182  0.0953663861279423  1.0000
  H   H23       1.0  0.8728171355525731  0.1872209299323018  0.5953656732839931  1.0000
  H   H24       1.0  0.6271824480945938  0.6872213443694193  0.9046343405733024  1.0000
  H   H25       1.0  0.0261768500278876  0.7674328983085914  0.4870199775133699  1.0000
  H   H26       1.0  0.47382301118783227  0.2674324838714739  0.012980027105726284  1.0000
  H   H27       1.0  0.9738228724035521  0.2325669525429461  0.5129800317248225  1.0000
  H   H28       1.0  0.5261778350029473  0.7325673669800707  0.9870202352017329  1.0000
  H   H29       1.0  0.1705181182442672  0.9724205886581245  0.544780158589866  1.0000
  H   H30       1.0  0.32948174297145266  0.4724201742209999  0.9552205634922827  1.0000
  H   H31       1.0  0.8294816041871798  0.027580240216117595  0.45521985064832643  1.0000
  H   H32       1.0  0.6705179794599871  0.5275796766305376  0.04477944574591672  1.0000
  H   H33       1.0  0.0795733987496732  0.0485324205760449  0.4266341408406404  1.0000
  H   H34       1.0  0.4204264624660467  0.5485328350131624  0.0733658637784558  1.0000
  H   H35       1.0  0.9204263236817737  0.9514674302754997  0.5733658683975591  1.0000
  H   H36       1.0  0.5795732599653931  0.4514670158383751  0.9266341454597365  1.0000
  C   C1        1.0  0.3378840915444172  0.6390370998755373  0.3655228642635606  1.0000
  C   C2        1.0  0.1621157696713027  0.1390376634611243  0.1344771403555356  1.0000
  C   C3        1.0  0.6621145071276899  0.3609617729532957  0.6344754569792669  1.0000
  C   C4        1.0  0.837885076519477  0.8609621873904132  0.8655245568780288  1.0000
  C   C5        1.0  0.4323495490461085  0.7206178855984859  0.4491869596704276  1.0000
  C   C6        1.0  0.0676514359289513  0.220618449184073  0.0508132980179354  1.0000
  C   C7        1.0  0.5676524209040109  0.2793839212984537  0.5508099683910429  1.0000
  C   C8        1.0  0.9323482865024957  0.7793843357355712  0.9491902985355196  1.0000
  C   C9        1.0  0.2223155574275566  0.5856566207622151  0.2070755302253033  1.0000
  C   C10       1.0  0.2776854275475031  0.0856571843478022  0.29292472746305986  1.0000
  C   C11       1.0  0.7776852887632302  0.4143422520666178  0.7929247320821559  1.0000
  C   C12       1.0  0.7223154186432765  0.9143416884810379  0.7070755348444066  1.0000
  C   C13       1.0  0.7616503667640869  0.7981966024219957  0.3528550843633838  1.0000
  C   C14       1.0  0.7383492168830799  0.2981961879848711  0.1471442120308595  1.0000
  C   C15       1.0  0.2383493556673528  0.2018032484295418  0.6471442074117633  1.0000
  C   C16       1.0  0.2616505055483671  0.7018036628666664  0.8528557972073328  1.0000
  C   C17       1.0  0.8679388962647252  0.9002258868129759  0.25384451386945983  1.0000
  C   C18       1.0  0.6320606873824417  0.4002254723758583  0.2461547825247834  1.0000
  C   C19       1.0  0.1320608261667147  0.0997739640385618  0.746154777905687  1.0000
  C   C20       1.0  0.36794015880834496  0.5997743784756793  0.7538447623196304  1.0000
  C   C21       1.0  0.715678495990886  0.8937102995675942  0.2050334834599354  1.0000
  C   C22       1.0  0.7843210876562805  0.3937108631531814  0.2949658129343078  1.0000
  C   C23       1.0  0.2843212264405537  0.1062895512839432  0.7949665257782569  1.0000
  C   C24       1.0  0.21567751101582636  0.6062889876983562  0.7050339432346248  1.0000
  C   C25       1.0  0.03541752306727369  0.8413675025418357  0.4322463240903645  1.0000
  C   C26       1.0  0.4645823381484533  0.3413680661274228  0.06775368052873182  1.0000
  C   C27       1.0  0.964583323123513  0.1586323483097019  0.5677539382170949  1.0000
  C   C28       1.0  0.5354173842829937  0.6586317847241148  0.9322463287094678  1.0000
  C   C29       1.0  0.0634541948001583  0.9770935811316193  0.4812786166721779  1.0000
  C   C30       1.0  0.4365456664155687  0.4770941447171992  0.01872138794691842  1.0000
  C   C31       1.0  0.9365455276312886  0.0229062697199183  0.5187213925660217  1.0000
  C   C32       1.0  0.5634540560158782  0.5229066841570358  0.9812779038282287  1.0000
  C   C33       1.0  0.2509770393525699  0.5284442486997207  0.36287788790627923  1.0000
  C   C34       1.0  0.2490228218631501  0.028444812285300703  0.1371213992497715  1.0000
  C   C35       1.0  0.7490226830788771  0.47155658017452134  0.6371214038688677  1.0000
  C   C36       1.0  0.7509769005682898  0.9715560165889343  0.862878609988428  1.0000
  C   C37       1.0  0.2306999258510984  0.4457700335951529  0.44405479781603663  1.0000
  C   C38       1.0  0.2692999353646215  0.9457694700095729  0.055945206803066604  1.0000
  C   C39       1.0  0.7692986728210087  0.5542298172563846  0.5559456758159483  1.0000
  C   C40       1.0  0.730702034585498  0.0542294028192671  0.9440545911106071  1.0000
  N   N1        1.0  0.3193746514821925  0.6729285205921727  0.2665210118338379  1.0000
  N   N2        1.0  0.1806240859741877  0.1729290841777598  0.233478022252946  1.0000
  N   N3        1.0  0.6806239471899076  0.3270703522366603  0.7334780268720493  1.0000
  N   N4        1.0  0.819375636457252  0.8270707666737848  0.7665227044482988  1.0000
  N   N5        1.0  0.6509061314868276  0.8300380875537741  0.2676924834653178  1.0000
  N   N6        1.0  0.8490934521603322  0.3300376731166494  0.23230753039197788  1.0000
  N   N7        1.0  0.3490935909446122  0.1699617632977635  0.7323075257728745  1.0000
  N   N8        1.0  0.1509073940304475  0.6699631557575927  0.7676927319154885  1.0000
  N   N9        1.0  0.8947360614473965  0.8385185224088759  0.3465810259096287  1.0000
  N   N10       1.0  0.6052635221997704  0.3385181079717583  0.15341898794766706  1.0000
  N   N11       1.0  0.1052636609840505  0.1614813284426617  0.6534189833285708  1.0000
  N   N12       1.0  0.3947362002316694  0.6614817428797792  0.8465817387535779  1.0000
  N   N13       1.0  0.1790384615477549  0.49654603825118926  0.2629358360535079  1.0000
  N   N14       1.0  0.320961399667965  0.9965454746656022  0.23706345110254287  1.0000
  N   N15       1.0  0.820961260883692  0.5034538126003483  0.7370641731846916  1.0000
  N   N16       1.0  0.6790383227634749  0.0034543761859354  0.7629358406726039  1.0000
  O   O1        1.0  0.4947440387901878  0.8199947724197543  0.4300942013617046  1.0000
  O   O2        1.0  0.0052558224255392  0.3199933799599322  0.0699058032573916  1.0000
  O   O3        1.0  0.5052556836412592  0.1800060564544879  0.5699043729503899  1.0000
  O   O4        1.0  0.9947450237652475  0.6800064708916054  0.9300951765131202  1.0000
  O   O5        1.0  0.4448749706315311  0.6864976075694216  0.5429267398617199  1.0000
  O   O6        1.0  0.0551248905841888  0.1864981711550016  0.9570732647573763  1.0000
  O   O7        1.0  0.5551236280405689  0.313502243282116  0.4570687115289117  1.0000
  O   O8        1.0  0.9448770793659306  0.8135026577192334  0.04293083793459827  1.0000
  O   O9        1.0  0.299352631350537  0.47798414537665923  0.5362788295084187  1.0000
  O   O10       1.0  0.2006461061058502  0.9779845598137769  0.9637209220414178  1.0000
  O   O11       1.0  0.7006448435622303  0.5220157054748782  0.4637221085173522  1.0000
  O   O12       1.0  0.7993547400849295  0.0220162690604582  0.036277905339943614  1.0000
  O   O13       1.0  0.1453459090648721  0.3460576849868602  0.4162716883080009  1.0000
  O   O14       1.0  0.3546539521508478  0.8460571214012802  0.0837283163110953  1.0000
  O   O15       1.0  0.8546538133665678  0.6539421658646773  0.5837276034671461  1.0000
  O   O16       1.0  0.6453457702805991  0.1539417514275527  0.9162716929270969  1.0000
