data_image0
_chemical_formula_structural       Co2H44C48N8O8
_chemical_formula_sum              "Co2 H44 C48 N8 O8"
_cell_length_a       6.920091692590224
_cell_length_b       8.48605871749595
_cell_length_c       18.9507
_cell_angle_alpha    96.35097001519158
_cell_angle_beta     98.03116580330902
_cell_angle_gamma    103.45992502831538

_space_group_name_H-M_alt    "P 1"
_space_group_IT_number       1

loop_
  _space_group_symop_operation_xyz
  'x, y, z'

loop_
  _atom_site_type_symbol
  _atom_site_label
  _atom_site_symmetry_multiplicity
  _atom_site_fract_x
  _atom_site_fract_y
  _atom_site_fract_z
  _atom_site_occupancy
  Co  Co1       1.0  0.9538040232664285  0.5040708041195572  0.2479625408589357  1.0000
  Co  Co2       1.0  0.046192421766328075  0.4959311634605967  0.752035422804184  1.0000
  H   H1        1.0  0.9102942517240107  0.2079363899965259  0.11947642441698039  1.0000
  H   H2        1.0  0.08970282971132088  0.7920582258082334  0.8805243736566695  1.0000
  H   H3        1.0  0.17369199754722328  0.1477412783523064  0.1788026565664111  1.0000
  H   H4        1.0  0.8263032441140794  0.852252112156556  0.8211958762120093  1.0000
  H   H5        1.0  0.21807419465956454  0.9484598955766899  0.16793161137101012  1.0000
  H   H6        1.0  0.7819232671689561  0.0515359455239661  0.8320687391188886  1.0000
  H   H7        1.0  0.28449690568469066  0.2496368853369262  0.035165171639007994  1.0000
  H   H8        1.0  0.7155001757506412  0.750357730467833  0.9648340433796607  1.0000
  H   H9        1.0  0.177319082263601  0.5775750798218198  0.9689132154237472  1.0000
  H   H10       1.0  0.8226783795649195  0.4224207612788362  0.0310855520111701  1.0000
  H   H11       1.0  0.9231265499405409  0.8044043072894382  0.08636101854166611  1.0000
  H   H12       1.0  0.07687237126881999  0.1955915338112177  0.9136383510322548  1.0000
  H   H13       1.0  0.4749835300042875  0.3491946277457103  0.23003513651189422  1.0000
  H   H14       1.0  0.5250136136229457  0.6508048892426501  0.7699637967727357  1.0000
  H   H15       1.0  0.9664031625633028  0.8779637213071751  0.2383074866611778  1.0000
  H   H16       1.0  0.0335896029213885  0.1220357956811853  0.7616870017814678  1.0000
  H   H17       1.0  0.5399322044641294  0.9817805922618703  0.07172496755902098  1.0000
  H   H18       1.0  0.4600677957328898  0.0182140235428889  0.9282754517376618  1.0000
  H   H19       1.0  0.25860625665628584  0.757912904982831  0.08504484776018023  1.0000
  H   H20       1.0  0.7413981838751623  0.2420866120055223  0.9149544577945222  1.0000
  H   H21       1.0  0.4713977443259337  0.7623901361988246  0.1494363206148392  1.0000
  H   H22       1.0  0.5286051746327728  0.2376044796059347  0.8505621368499021  1.0000
  H   H23       1.0  0.6934419805260816  0.577151127440672  0.12436599224955815  1.0000
  H   H24       1.0  0.3065565602900975  0.4228434883640872  0.8756322418531396  1.0000
  H   H25       1.0  0.5302780505998824  0.2858272250182381  0.4048094618065791  1.0000
  H   H26       1.0  0.4697249305507255  0.7141722919701223  0.5951924077190753  1.0000
  H   H27       1.0  0.7859558369412198  0.9842336346522415  0.43601244949856277  1.0000
  H   H28       1.0  0.21404930218470497  0.0157634317443112  0.5639904641026163  1.0000
  H   H29       1.0  0.5925736035970388  0.5434542649144021  0.3417577976840747  1.0000
  H   H30       1.0  0.4074243630084666  0.4565526038493459  0.6582410140690058  1.0000
  H   H31       1.0  0.15008290416971448  0.8534173685567765  0.44257513117553776  1.0000
  H   H32       1.0  0.8499210937766575  0.146576021952086  0.5574285974918995  1.0000
  H   H33       1.0  0.1658754735618686  0.5214026146149564  0.526629087525862  1.0000
  H   H34       1.0  0.8341271271955505  0.4785956770775002  0.4733721742135515  1.0000
  H   H35       1.0  0.6846874726741204  0.0265080514851519  0.2908252295960453  1.0000
  H   H36       1.0  0.3153159510615708  0.9734975919826994  0.7091732721868597  1.0000
  H   H37       1.0  0.023976472824173794  0.2336381967799497  0.45168149806567476  1.0000
  H   H38       1.0  0.9760232091715578  0.7663600949125069  0.5483159209707651  1.0000
  H   H39       1.0  0.1686397802259023  0.1639127336310793  0.39069751074044495  1.0000
  H   H40       1.0  0.8313574255932252  0.8360916845408752  0.6092979747001976  1.0000
  H   H41       1.0  0.32518519736772317  0.6822778397117091  0.35931703548964583  1.0000
  H   H42       1.0  0.6748200039501028  0.3177241278684448  0.6406840133225202  1.0000
  H   H43       1.0  0.3187252383077421  0.8589900143067268  0.3191141281710018  1.0000
  H   H44       1.0  0.6812752666662618  0.1410156291611244  0.6808905569237923  1.0000
  C   C1        1.0  0.7662945356519372  0.2008014919749854  0.13650064234614942  1.0000
  C   C2        1.0  0.23370292617657634  0.7991943491256777  0.8634997081437492  1.0000
  C   C3        1.0  0.11868145644400838  0.0299780894719319  0.0689839557702285  1.0000
  C   C4        1.0  0.881319622740669  0.9700153010369306  0.9310148748242427  1.0000
  C   C5        1.0  0.2341430561064328  0.0634850311338013  0.14500826208105622  1.0000
  C   C6        1.0  0.765855484709739  0.9365095846709579  0.854992082761612  1.0000
  C   C7        1.0  0.21166556785956905  0.5752715235311641  0.1535182388618068  1.0000
  C   C8        1.0  0.7883319561608457  0.4247292187530931  0.8464818298940601  1.0000
  C   C9        1.0  0.16152700826797425  0.1392340489235622  0.0197421894344245  1.0000
  C   C10       1.0  0.8384737527154156  0.8607630174729977  0.9802562793247702  1.0000
  C   C11       1.0  0.3191691477763072  0.5436527628500869  0.9828039850978385  1.0000
  C   C12       1.0  0.6808294552317661  0.4563467541382664  0.017193967270820613  1.0000
  C   C13       1.0  0.9568473202677907  0.8908305535455767  0.0485113064719584  1.0000
  C   C14       1.0  0.04314830178669379  0.1091640622591825  0.9514873064076995  1.0000
  C   C15       1.0  0.5485754771581951  0.28103141686843  0.19534587388121588  1.0000
  C   C16       1.0  0.45142090568265997  0.7189656495281298  0.8046534268859276  1.0000
  C   C17       1.0  0.8474622069796212  0.8311292361487617  0.2677460567123617  1.0000
  C   C18       1.0  0.15253169968463  0.168873956727289  0.7322502550889924  1.0000
  C   C19       1.0  0.5840406502339873  0.0894269959134846  0.11240310256860649  1.0000
  C   C20       1.0  0.4159571919877152  0.9105700704830682  0.8875973280225368  1.0000
  C   C21       1.0  0.34662265515837015  0.6801409236633518  0.10999274482586692  1.0000
  C   C22       1.0  0.653379945599049  0.3198573680291048  0.8900058784885874  1.0000
  C   C23       1.0  0.4262513910368994  0.5879165772117929  0.053437267602617994  1.0000
  C   C24       1.0  0.573746451184803  0.4120804891847598  0.9465615799335438  1.0000
  C   C25       1.0  0.6078358664014941  0.5432288104689391  0.06978284124079438  1.0000
  C   C26       1.0  0.39216819373677225  0.4567694812235175  0.9302158565276741  1.0000
  C   C27       1.0  0.5144114119879929  0.3793969463672084  0.4463485684974416  1.0000
  C   C28       1.0  0.4855901097817749  0.6206025706211449  0.5536511158342209  1.0000
  C   C29       1.0  0.6598288150406546  0.9900390866230637  0.46393847807729577  1.0000
  C   C30       1.0  0.3401748647044229  0.0099579797734961  0.5360654164398612  1.0000
  C   C31       1.0  0.46338892157733363  0.9083008224775924  0.43069165555645134  1.0000
  C   C32       1.0  0.5366144399664563  0.0916999198066648  0.5693118771254291  1.0000
  C   C33       1.0  0.6576667020415954  0.6522801455053866  0.3196498895725526  1.0000
  C   C34       1.0  0.3423319631583793  0.3477242726665679  0.6803488364320601  1.0000
  C   C35       1.0  0.30412348832641095  0.9190319639635405  0.4675379354213192  1.0000
  C   C36       1.0  0.6958798110254845  0.0809638771371155  0.5324658789945929  1.0000
  C   C37       1.0  0.31193282009215295  0.5111346349789372  0.5140919340251315  1.0000
  C   C38       1.0  0.6880687016776077  0.4888648820094161  0.4859093333615121  1.0000
  C   C39       1.0  0.7066107013563891  0.9042107847657803  0.29193592700456616  1.0000
  C   C40       1.0  0.29338796384358545  0.0957936334061742  0.7080627990000466  1.0000
  C   C41       1.0  0.13390520863844557  0.2741905898627195  0.4167676542591252  1.0000
  C   C42       1.0  0.8660945355491874  0.7258126030133383  0.5832310660982574  1.0000
  C   C43       1.0  0.32347518020164756  0.3889456773103461  0.4598463786693118  1.0000
  C   C44       1.0  0.6765281813421495  0.611055064973911  0.540153987902599  1.0000
  C   C45       1.0  0.4134607256548931  0.8067581007119671  0.35683838604199286  1.0000
  C   C46       1.0  0.5865433966752676  0.1932450921640907  0.6431642514723777  1.0000
  C   C47       1.0  0.02874767162758468  0.348801307762038  0.3576136388631285  1.0000
  C   C48       1.0  0.9712591134548844  0.6512104621853112  0.6423874486199708  1.0000
  N   N1        1.0  0.8153436219465745  0.6734373297983609  0.2851854872339743  1.0000
  N   N2        1.0  0.18465028471767647  0.3265658630776969  0.7148118799373722  1.0000
  N   N3        1.0  0.5874667135695901  0.7889312706732525  0.32440463997794217  1.0000
  N   N4        1.0  0.4125345521907845  0.2110768233863993  0.6755949284694085  1.0000
  N   N5        1.0  0.7425280889592614  0.3195155104732024  0.1884217218532953  1.0000
  N   N6        1.0  0.25746829388160103  0.6804815559233504  0.8115786342838335  1.0000
  N   N7        1.0  0.4479619361193272  0.1420853124811998  0.1503678110708719  1.0000
  N   N8        1.0  0.5520340663283461  0.8579105286194562  0.8496314095950268  1.0000
  O   O1        1.0  0.11747162214090417  0.6562072188625976  0.19343376435855222  1.0000
  O   O2        1.0  0.8825255836782232  0.3437971993093569  0.8065638318220607  1.0000
  O   O3        1.0  0.195665615857898  0.4253823014674083  0.15127229002171563  1.0000
  O   O4        1.0  0.8043366666982337  0.5746196661127456  0.8487312483073879  1.0000
  O   O5        1.0  0.1423144837356745  0.4331886616417648  0.3187092244112009  1.0000
  O   O6        1.0  0.857687542811071  0.5668218830096876  0.6812920872936061  1.0000
  O   O7        1.0  0.8409384164093652  0.3270694596923036  0.3470457242070779  1.0000
  O   O8        1.0  0.1590632919360928  0.6729447608468462  0.6529568087174342  1.0000
