data_image0
_chemical_formula_structural       Al2H14C28N4O10F4
_chemical_formula_sum              "Al2 H14 C28 N4 O10 F4"
_cell_length_a       6.760085167026945
_cell_length_b       16.890140127216785
_cell_length_c       16.890283522736013
_cell_angle_alpha    83.41291279723039
_cell_angle_beta     84.1344163208287
_cell_angle_gamma    84.13389613848965

_space_group_name_H-M_alt    "P 1"
_space_group_IT_number       1

loop_
  _space_group_symop_operation_xyz
  'x, y, z'

loop_
  _atom_site_type_symbol
  _atom_site_label
  _atom_site_symmetry_multiplicity
  _atom_site_fract_x
  _atom_site_fract_y
  _atom_site_fract_z
  _atom_site_occupancy
  Al  Al1       1.0  0.5000083277393585  0.4999967971089562  0.49999842780167825  1.0000
  Al  Al2       1.0  1.3808878342955513e-05  0.49999935726027217  0.5000034836888503  1.0000
  H   H1        1.0  0.7500237959767801  0.4211169844575552  0.5788653574172997  1.0000
  H   H2        1.0  0.2499735689857659  0.5788643684876432  0.4211203068957304  1.0000
  H   H3        1.0  0.3645646352409245  0.7324533986920017  0.5069175305190328  1.0000
  H   H4        1.0  0.2960780793318208  0.8811387593218213  0.5058422412973516  1.0000
  H   H5        1.0  0.9283940484858705  0.9003674027651127  0.49857996807700294  1.0000
  H   H6        1.0  0.0716051889179141  0.09963413337638372  0.501409393956955  1.0000
  H   H7        1.0  0.7039025788024562  0.1188561964819712  0.49415857320295226  1.0000
  H   H8        1.0  0.6354193022662002  0.26754041326481837  0.4930826248664958  1.0000
  H   H9        1.0  0.8645577783090772  0.5068871339346683  0.7324697085627037  1.0000
  H   H10       1.0  0.7960949743185918  0.5057903664664636  0.8811505318767132  1.0000
  H   H11       1.0  0.42837301245613457  0.4985806303086946  0.9003586730671388  1.0000
  H   H12       1.0  0.5716102101983866  0.5014428115830397  0.09964754035087962  1.0000
  H   H13       1.0  0.20392902547929742  0.4941877588519291  0.11884597925006095  1.0000
  H   H14       1.0  0.13546496326681987  0.4930916963437398  0.26753865961589446  1.0000
  C   C1        1.0  0.20926258809667786  0.5008911161631603  0.6434459563605303  1.0000
  C   C2        1.0  0.29063876620833184  0.3565591774644332  0.4991156663467536  1.0000
  C   C3        1.0  0.7907617781814126  0.49911209450309707  0.3565509844442688  1.0000
  C   C4        1.0  0.7093541665257277  0.6434448866769102  0.5008838724919826  1.0000
  C   C5        1.0  0.6816557536725726  0.7322123966591647  0.5024052882191441  1.0000
  C   C6        1.0  0.48596783375666774  0.7703969505003556  0.5048053879365285  1.0000
  C   C7        1.0  0.4477084334362759  0.8524293485101284  0.5043224015777525  1.0000
  C   C8        1.0  0.6081060826165725  0.8998742615791997  0.5018132065225842  1.0000
  C   C9        1.0  0.8042170610520143  0.8637093067604341  0.5002961387795822  1.0000
  C   C10       1.0  0.8379615763576497  0.7812375141872464  0.5003726974718461  1.0000
  C   C11       1.0  0.19576508600659542  0.13629055541353097  0.49970185910508047  1.0000
  C   C12       1.0  0.3918751501285769  0.10012329043549069  0.4981826411109509  1.0000
  C   C13       1.0  0.5522811831485228  0.14756427925326676  0.49566861190076145  1.0000
  C   C14       1.0  0.5140190151121473  0.22959602749874355  0.495186398123181  1.0000
  C   C15       1.0  0.31833529311648334  0.2677875496835114  0.4975922846678388  1.0000
  C   C16       1.0  0.16202823698501592  0.21875685640193146  0.4996295091323901  1.0000
  C   C17       1.0  0.181636383018386  0.5023931702768606  0.7322086881964438  1.0000
  C   C18       1.0  0.9859684367221748  0.5047756741888206  0.7704047747818095  1.0000
  C   C19       1.0  0.947713675214111  0.5043176474897777  0.8524333014499137  1.0000
  C   C20       1.0  0.10812553906441748  0.501831439981032  0.8998741672836631  1.0000
  C   C21       1.0  0.3042137065466192  0.5003131694845706  0.8636977866038933  1.0000
  C   C22       1.0  0.3379330729232279  0.5003794520943997  0.7812334762820683  1.0000
  C   C23       1.0  0.6957768143808138  0.4997050907116218  0.1363049253226407  1.0000
  C   C24       1.0  0.8918602893226362  0.49817183696112016  0.1001287290077428  1.0000
  C   C25       1.0  0.05229009781049147  0.4956589188306565  0.14756842863451422  1.0000
  C   C26       1.0  0.014046026481381051  0.49519492608317967  0.22959868780580453  1.0000
  C   C27       1.0  0.8183657226617527  0.4976000452835122  0.26779480666796474  1.0000
  C   C28       1.0  0.662067939322327  0.4996334637614197  0.2187703372323568  1.0000
  N   N1        1.0  0.5889736238700252  0.9840951668786816  0.5006326743462779  1.0000
  N   N2        1.0  0.41102464683714157  0.0159099088100874  0.4993576469411564  1.0000
  N   N3        1.0  0.08898420735513927  0.5006278328040279  0.9841004091426058  1.0000
  N   N4        1.0  0.9110175111741725  0.49937686570117984  0.015899853062620723  1.0000
  O   O1        1.0  0.38617664432498344  0.49391052460175894  0.6096692654813296  1.0000
  O   O2        1.0  0.11371467585345837  0.390317696174975  0.5061028104614211  1.0000
  O   O3        1.0  0.9511275914997699  0.49459121118879074  0.39115462353476  1.0000
  O   O4        1.0  0.5489976890637607  0.6088350940288125  0.5054185468437993  1.0000
  O   O5        1.0  0.6138508527453014  0.506087678752877  0.39033383799921495  1.0000
  O   O6        1.0  0.8862762017852931  0.6096819383489063  0.49388768312979897  1.0000
  O   O7        1.0  0.04888996548963579  0.505420303741417  0.6088425933520797  1.0000
  O   O8        1.0  0.45100763797013604  0.3911579350490797  0.49459014419313263  1.0000
  O   O9        1.0  0.7499964088955481  0.4641703713590815  0.5357903447377055  1.0000
  O   O10       1.0  0.25001151740502087  0.5358225408196944  0.46420697368547087  1.0000
  F   F1        1.0  0.031010932250467162  0.7496166217608363  0.49828057605583354  1.0000
  F   F2        1.0  0.9689846343957172  0.2503917391411932  0.5017019167427961  1.0000
  F   F3        1.0  0.5309775621775972  0.4983092684782449  0.7496141410085714  1.0000
  F   F4        1.0  0.4690281248706327  0.5017288939979777  0.2503869242192423  1.0000
