data_image0
_chemical_formula_structural       Zn2H40C64N2O8
_chemical_formula_sum              "Zn2 H40 C64 N2 O8"
_cell_length_a       9.275370128114957
_cell_length_b       18.246867258553586
_cell_length_c       19.326634152400562
_cell_angle_alpha    89.42263259283168
_cell_angle_beta     90.24699149080259
_cell_angle_gamma    90.18485916796155

_space_group_name_H-M_alt    "P 1"
_space_group_IT_number       1

loop_
  _space_group_symop_operation_xyz
  'x, y, z'

loop_
  _atom_site_type_symbol
  _atom_site_label
  _atom_site_symmetry_multiplicity
  _atom_site_fract_x
  _atom_site_fract_y
  _atom_site_fract_z
  _atom_site_occupancy
  Zn  Zn1       1.0  0.4859670351265991  0.42404326193815217  0.4985946510233745  1.0000
  Zn  Zn2       1.0  0.48742470857106923  0.5762339289630917  0.5015065169354216  1.0000
  H   H1        1.0  0.7303782759979073  0.5633294291064174  0.3028844059727192  1.0000
  H   H2        1.0  0.6381977160136785  0.690920062293152  0.582692038193926  1.0000
  H   H3        1.0  0.62928902848617  0.3090913856637201  0.5813996244051438  1.0000
  H   H4        1.0  0.34352075123518233  0.6937032590197346  0.4216163516807967  1.0000
  H   H5        1.0  0.3512989679557776  0.16978266024457156  0.4099353355203945  1.0000
  H   H6        1.0  0.6480021866083592  0.8278279411160553  0.5864640266719476  1.0000
  H   H7        1.0  0.6420787128875247  0.17209549755796158  0.5856450085518291  1.0000
  H   H8        1.0  0.3449818753950354  0.8306225111076271  0.41551567151562097  1.0000
  H   H9        1.0  0.7227403572986049  0.06809362298804439  0.5276891979849623  1.0000
  H   H10       1.0  0.272803579886876  0.9322996671538913  0.47216339108383926  1.0000
  H   H11       1.0  0.27292165953104336  0.0672475529363012  0.47056409373132624  1.0000
  H   H12       1.0  0.7380646543627306  0.4374622651574711  0.6990910109059669  1.0000
  H   H13       1.0  0.7228506639841259  0.9330098243963502  0.5289054123561954  1.0000
  H   H14       1.0  0.44218128709955107  0.3185093822534809  0.0344727710654453  1.0000
  H   H15       1.0  0.45324300468833917  0.20284426437859077  0.1025786710177456  1.0000
  H   H16       1.0  0.6604172357489658  0.1792558537661932  0.18240827938114992  1.0000
  H   H17       1.0  0.8555861342543736  0.2728145318414832  0.1933434350368373  1.0000
  H   H18       1.0  0.8418095886632457  0.38915747709260273  0.12620050525742948  1.0000
  H   H19       1.0  0.4384645695025783  0.6802594371965964  0.9645030059965903  1.0000
  H   H20       1.0  0.44854239132273926  0.7957124613914388  0.8959956845069145  1.0000
  H   H21       1.0  0.6565212070592992  0.820657118298399  0.8178108381275422  1.0000
  H   H22       1.0  0.8538786470963656  0.7286209461610295  0.8087915479080792  1.0000
  H   H23       1.0  0.353764983073262  0.5625257761008767  0.7328490302894153  1.0000
  H   H24       1.0  0.8409316218880039  0.612428239162888  0.8762458331721988  1.0000
  H   H25       1.0  0.844818940650555  0.33158058129328777  0.956766410890424  1.0000
  H   H26       1.0  0.8437599208008708  0.21599349953906  0.8900745469776368  1.0000
  H   H27       1.0  0.627646274844686  0.1812754341024103  0.8204291158101569  1.0000
  H   H28       1.0  0.4131789325513538  0.26348397244601773  0.8178737961494278  1.0000
  H   H29       1.0  0.41659599340754033  0.3795843712726494  0.8833910264395399  1.0000
  H   H30       1.0  0.8400886813834918  0.6701681962514101  0.045147629294277195  1.0000
  H   H31       1.0  0.8361256648625358  0.7860548986009304  0.1113533662119295  1.0000
  H   H32       1.0  0.6186921774678779  0.8193303616419882  0.17943909988179738  1.0000
  H   H33       1.0  0.40558642487136615  0.7355211571038749  0.1807189873428854  1.0000
  H   H34       1.0  0.35123866749123084  0.4337895597392887  0.2654395437245114  1.0000
  H   H35       1.0  0.41185650755457465  0.6190770454447048  0.1157679752341352  1.0000
  H   H36       1.0  0.7909429181600062  0.5597050502106243  0.1774811834442218  1.0000
  H   H37       1.0  0.7960808448659621  0.44230418146783995  0.8249006995556414  1.0000
  H   H38       1.0  0.40539382975826754  0.5628251225659398  0.8595887368054989  1.0000
  H   H39       1.0  0.4049858496347556  0.4346918987035763  0.13919796251448696  1.0000
  H   H40       1.0  0.3513986788718456  0.3068382000664869  0.41375877499125824  1.0000
  C   C1        1.0  0.5085061970781056  0.4967683600067402  0.632870433554004  1.0000
  C   C2        1.0  0.41010927731175434  0.8022976698538072  0.4543780647445034  1.0000
  C   C3        1.0  0.49660784267851454  0.15862332905075496  0.49803073248309465  1.0000
  C   C4        1.0  0.49663425810694417  0.8416418223214278  0.5009975206429687  1.0000
  C   C5        1.0  0.6231625456059505  0.03850150582740498  0.5163229018577837  1.0000
  C   C6        1.0  0.3725251664682999  0.9618640753514145  0.4832481223777237  1.0000
  C   C7        1.0  0.37256138371646597  0.038022321853723895  0.4823676812110805  1.0000
  C   C8        1.0  0.6231946478259263  0.9622313259259415  0.5170516368548732  1.0000
  C   C9        1.0  0.49784066360026463  0.9224736135571233  0.5004897795270651  1.0000
  C   C10       1.0  0.4978699226892404  0.07779612912304397  0.49883000330572  1.0000
  C   C11       1.0  0.7662522313770169  0.5016522062035661  0.5004080931592512  1.0000
  C   C12       1.0  0.5031047488898537  0.5010294410315339  0.3671103670024038  1.0000
  C   C13       1.0  0.2088806774758254  0.5018742803527373  0.4994219136117906  1.0000
  C   C14       1.0  0.9220974225264625  0.5016715189922464  0.49999247816660386  1.0000
  C   C15       1.0  0.0530554133099272  0.5018330550080562  0.4996110906685658  1.0000
  C   C16       1.0  0.6604833454613868  0.5346562907580148  0.266564379961828  1.0000
  C   C17       1.0  0.6662371707283016  0.46531207408625613  0.7346610727594864  1.0000
  C   C18       1.0  0.44967010967737053  0.5357000333449164  0.753658062115278  1.0000
  C   C19       1.0  0.4467033363359861  0.46180337078568806  0.2455851120622796  1.0000
  C   C20       1.0  0.6938045426941032  0.5325141534494404  0.1964219416152275  1.0000
  C   C21       1.0  0.6982836396861531  0.46815221546636804  0.8050443469755137  1.0000
  C   C22       1.0  0.47953294209573033  0.5362416302731603  0.8242157891503582  1.0000
  C   C23       1.0  0.41308541958516554  0.2741203654949444  0.4509013686140478  1.0000
  C   C24       1.0  0.47773487492925437  0.4619353841488589  0.1752443005851987  1.0000
  C   C25       1.0  0.6016090426819006  0.4972424761142021  0.1495415498053276  1.0000
  C   C26       1.0  0.6041053174977337  0.5025165262435819  0.8510183418726811  1.0000
  C   C27       1.0  0.5367359272206331  0.4992949267602426  0.2916287138489864  1.0000
  C   C28       1.0  0.5417243925245573  0.49903294249547503  0.7085038704626924  1.0000
  C   C29       1.0  0.6335975980461654  0.4325550202853562  0.0365539998600113  1.0000
  C   C30       1.0  0.6323418704434899  0.567624969226486  0.9642122374282565  1.0000
  C   C31       1.0  0.6319739136612698  0.4335978942988632  0.9635461029480226  1.0000
  C   C32       1.0  0.6294793572480374  0.5665653515791005  0.0372013115276104  1.0000
  C   C33       1.0  0.6268989101426216  0.5011927485305419  0.9273417827375638  1.0000
  C   C34       1.0  0.5749057463782494  0.7246989909270097  0.5470442737064121  1.0000
  C   C35       1.0  0.6256002948843219  0.49892987400971117  0.07337893343328261  1.0000
  C   C36       1.0  0.6411711559486621  0.36180729935711736  0.07562357433632631  1.0000
  C   C37       1.0  0.5327921638018297  0.30846821347566333  0.069386486658253  1.0000
  C   C38       1.0  0.5392649915114874  0.2433735462974482  0.1076882200159233  1.0000
  C   C39       1.0  0.655225268385941  0.2301550526861007  0.1524356816767636  1.0000
  C   C40       1.0  0.7645412422840895  0.2825700305125309  0.1585672282001624  1.0000
  C   C41       1.0  0.7571850963305735  0.34795618710509757  0.12068572512906428  1.0000
  C   C42       1.0  0.638897078300275  0.6383694901709447  0.92508053628152  1.0000
  C   C43       1.0  0.5294217382291181  0.6908610316555865  0.9302511337544529  1.0000
  C   C44       1.0  0.535402656944605  0.755841898391786  0.8917333371890521  1.0000
  C   C45       1.0  0.5706947679605677  0.2753337624519929  0.5443934052564146  1.0000
  C   C46       1.0  0.6518743445605042  0.7697771999457286  0.847845972195799  1.0000
  C   C47       1.0  0.762314657958676  0.7182353660229664  0.8428044108991416  1.0000
  C   C48       1.0  0.7554263129927251  0.6529763682258006  0.8808969964960411  1.0000
  C   C49       1.0  0.6307452484815458  0.36340388822016206  0.924634649288798  1.0000
  C   C50       1.0  0.7503798875521427  0.3166335221342962  0.9261089085253219  1.0000
  C   C51       1.0  0.7495103397680226  0.2516160045056779  0.8886551651892489  1.0000
  C   C52       1.0  0.6284370275882479  0.23211523213575438  0.8496242751011138  1.0000
  C   C53       1.0  0.5082308400053038  0.27808690994771  0.848256427556997  1.0000
  C   C54       1.0  0.509703786448384  0.34326480899920137  0.8853104848914343  1.0000
  C   C55       1.0  0.6262389852261026  0.6368158759051282  0.07594492843985282  1.0000
  C   C56       1.0  0.40958813496432367  0.7262378809106308  0.4566916168609723  1.0000
  C   C57       1.0  0.7450352689646708  0.6845359092066798  0.07509890228851651  1.0000
  C   C58       1.0  0.7425052970906806  0.7496982498129013  0.1122606206749808  1.0000
  C   C59       1.0  0.6206226572217589  0.76839264656045  0.150401059150731  1.0000
  C   C60       1.0  0.5013111010128952  0.7214660898927576  0.1511183083058114  1.0000
  C   C61       1.0  0.5043480412720741  0.6561152419418759  0.1143473614873258  1.0000
  C   C62       1.0  0.413489939382302  0.19804603522801756  0.4495262262163494  1.0000
  C   C63       1.0  0.5805520445843797  0.8007768572313835  0.5480744586991975  1.0000
  C   C64       1.0  0.5771326376993217  0.1993119936655177  0.5460004587949783  1.0000
  N   N1        1.0  0.48985895957534353  0.3120426917784797  0.4977240069097206  1.0000
  N   N2        1.0  0.4905433847358013  0.6881565941802988  0.5022655998161767  1.0000
  O   O1        1.0  0.5371772287276712  0.4374331969782617  0.6014863706959446  1.0000
  O   O2        1.0  0.5322195580301923  0.560260167095194  0.3987230714908776  1.0000
  O   O3        1.0  0.44992244965833816  0.4430801375920836  0.3944510329361464  1.0000
  O   O4        1.0  0.455518007195586  0.5544504199773073  0.6052185663305991  1.0000
  O   O5        1.0  0.7045673466719222  0.44317811833276016  0.480311318842304  1.0000
  O   O6        1.0  0.26995771823619213  0.5621572948157832  0.4829686791997432  1.0000
  O   O7        1.0  0.26958288455374213  0.4416336321417447  0.5158187645337122  1.0000
  O   O8        1.0  0.7061317709865663  0.5602149501229192  0.5207661770584907  1.0000
