data_image0
_chemical_formula_structural       Cd2H56C70N8O12
_chemical_formula_sum              "Cd2 H56 C70 N8 O12"
_cell_length_a       8.63402700952461
_cell_length_b       11.992798830182783
_cell_length_c       16.445601461190304
_cell_angle_alpha    110.19532763489669
_cell_angle_beta     96.0065249833323
_cell_angle_gamma    105.82930377673047

_space_group_name_H-M_alt    "P 1"
_space_group_IT_number       1

loop_
  _space_group_symop_operation_xyz
  'x, y, z'

loop_
  _atom_site_type_symbol
  _atom_site_label
  _atom_site_symmetry_multiplicity
  _atom_site_fract_x
  _atom_site_fract_y
  _atom_site_fract_z
  _atom_site_occupancy
  Cd  Cd1       1.0  0.0658422883627949  0.33890144581346965  0.3436216644307067  1.0000
  Cd  Cd2       1.0  0.9341572658965945  0.6610989840357676  0.6563772814523718  1.0000
  H   H1        1.0  0.21868348455758715  0.9786851744442939  0.41704960983722134  1.0000
  H   H2        1.0  0.7813179786167836  0.0213143139845613  0.5829522467282686  1.0000
  H   H3        1.0  0.40758946785426514  0.9580104311209965  0.3966938057725003  1.0000
  H   H4        1.0  0.5924124246748904  0.041989998640382005  0.6033083069679253  1.0000
  H   H5        1.0  0.9663559521881807  0.7300148531070435  0.2999304152376041  1.0000
  H   H6        1.0  0.03364363592552881  0.26998562416846283  0.7000728007863091  1.0000
  H   H7        1.0  0.4463215571055557  0.809494333940215  0.4573867757861053  1.0000
  H   H8        1.0  0.5536794525323714  0.19050417928021085  0.5426117745038612  1.0000
  H   H9        1.0  0.8878969103694845  0.5167381073420927  0.30169940410341684  1.0000
  H   H10       1.0  0.11210454796855632  0.48326137431158145  0.698301842441957  1.0000
  H   H11       1.0  0.3464506637071452  0.5908628726149132  0.4531170731225417  1.0000
  H   H12       1.0  0.6535530893736805  0.4091365479742707  0.546881850099105  1.0000
  H   H13       1.0  0.5356157458584364  0.3587790861137847  0.16789536519097947  1.0000
  H   H14       1.0  0.464385278288482  0.6412194474321851  0.8321050151593428  1.0000
  H   H15       1.0  0.4580918638608082  0.05009177358782319  0.9193338138448441  1.0000
  H   H16       1.0  0.5419131627753798  0.9499104506733785  0.08066404784123903  1.0000
  H   H17       1.0  0.17656418844549646  0.9469979529021516  0.9337823165359469  1.0000
  H   H18       1.0  0.823441570716291  0.0530033198198296  0.06621595737370001  1.0000
  H   H19       1.0  0.07679031533387362  0.05200187889505511  0.06902303333551883  1.0000
  H   H20       1.0  0.9232136050611361  0.9479928010677555  0.9309747257682306  1.0000
  H   H21       1.0  0.09788969834871605  0.4985206137954137  0.18327028790167085  1.0000
  H   H22       1.0  0.9021110081183893  0.501479792296756  0.8167281063396603  1.0000
  H   H23       1.0  0.3609736959915892  0.4722581419210314  0.9718353772145962  1.0000
  H   H24       1.0  0.6390215284260492  0.5277404562088108  0.028162881183497742  1.0000
  H   H25       1.0  0.12338465295030691  0.28857204026273564  0.868809001385259  1.0000
  H   H26       1.0  0.8766113039929382  0.711425606327886  0.13118966923639874  1.0000
  H   H27       1.0  0.868920847202766  0.21685284392930262  0.920548520494066  1.0000
  H   H28       1.0  0.1310743917238639  0.7831457745260765  0.07945156796438377  1.0000
  H   H29       1.0  0.5689239078207251  0.5547273831967914  0.35590618988047856  1.0000
  H   H30       1.0  0.4310729223410803  0.445272166384413  0.6440948231513987  1.0000
  H   H31       1.0  0.9204679689383114  0.9231231666919372  0.5009243819547609  1.0000
  H   H32       1.0  0.0795240512240909  0.0768811711176198  0.49907573162115443  1.0000
  H   H33       1.0  0.8514541376862753  0.9876055382837948  0.3750902451940734  1.0000
  H   H34       1.0  0.14853645855513523  0.012393127773577801  0.624907779690524  1.0000
  H   H35       1.0  0.6390820724418447  0.8314940938579198  0.23951204256360378  1.0000
  H   H36       1.0  0.3609138893377307  0.16850355950788298  0.7604872380781772  1.0000
  H   H37       1.0  0.7341569513816071  0.4040600040177652  0.40162109107227206  1.0000
  H   H38       1.0  0.26584492180222696  0.5959403986428881  0.5983785815876745  1.0000
  H   H39       1.0  0.43633982466712246  0.2918783038312966  0.3774130985899192  1.0000
  H   H40       1.0  0.5636648113049318  0.7081230332988397  0.6225893870821866  1.0000
  H   H41       1.0  0.5159972527643079  0.9521985671601813  0.213925227395798  1.0000
  H   H42       1.0  0.4839992742266902  0.047802875292767104  0.786075629587444  1.0000
  H   H43       1.0  0.8125879201485163  0.0789209176047905  0.24279702595936936  1.0000
  H   H44       1.0  0.1874080416310591  0.9210767357610055  0.7572022546824119  1.0000
  H   H45       1.0  0.21354979978102054  0.0282194030172249  0.20608502569115222  1.0000
  H   H46       1.0  0.7864497834963589  0.9717810674831001  0.7939175803126449  1.0000
  H   H47       1.0  0.20742417081159203  0.09703747389377781  0.3180687900592148  1.0000
  H   H48       1.0  0.7925742457490657  0.9029630000380705  0.6819325375259667  1.0000
  H   H49       1.0  0.08952869893640515  0.8647272296329049  0.25396184650113446  1.0000
  H   H50       1.0  0.9104731887564199  0.13527319335329221  0.7460396562191748  1.0000
  H   H51       1.0  0.2799259651338841  0.8490476246706108  0.23300921933406477  1.0000
  H   H52       1.0  0.7200779431489012  0.15095467077392746  0.7669934641346006  1.0000
  H   H53       1.0  0.6676908809906764  0.2693067744408211  0.9664863244534916  1.0000
  H   H54       1.0  0.3323106938586662  0.7306955278667572  0.033513802177942885  1.0000
  H   H55       1.0  0.40463965560397946  0.5104302524917584  0.2257619910417787  1.0000
  H   H56       1.0  0.5953578780654426  0.4895683048991373  0.7742357740929438  1.0000
  C   C1        1.0  0.27287953818542116  0.9157593825543557  0.3721164102850311  1.0000
  C   C2        1.0  0.7271223591800722  0.0842410539822041  0.6278863124755107  1.0000
  C   C3        1.0  0.21600276418185158  0.7887859672033884  0.3772769891449388  1.0000
  C   C4        1.0  0.7839979567942521  0.21121445921432516  0.6227232351567553  1.0000
  C   C5        1.0  0.0559638605680987  0.7044034752127644  0.3350195192305493  1.0000
  C   C6        1.0  0.9440361472277274  0.2955979298449023  0.6649827329280529  1.0000
  C   C7        1.0  0.3205189257521539  0.7483490649241062  0.42286231455456413  1.0000
  C   C8        1.0  0.6794817952239497  0.25165136149360734  0.5771379097471228  1.0000
  C   C9        1.0  0.009594981407630583  0.5852368603932447  0.33669990852629894  1.0000
  C   C10       1.0  0.9904080584929249  0.41476353883589223  0.663301042552263  1.0000
  C   C11       1.0  0.26646966855720666  0.6271985267311847  0.4212368416759206  1.0000
  C   C12       1.0  0.7335333568343502  0.37280185217240114  0.5787622793422785  1.0000
  C   C13       1.0  0.23360961277586514  0.27454273879436647  0.20337992276771646  1.0000
  C   C14       1.0  0.7663902494906694  0.7254558049583082  0.7966197891841136  1.0000
  C   C15       1.0  0.2976932365537266  0.21231744336489564  0.12484262747962303  1.0000
  C   C16       1.0  0.7023092478080668  0.7876791803274512  0.8751579672977103  1.0000
  C   C17       1.0  0.4562829334699146  0.26976865208117573  0.11642552030851766  1.0000
  C   C18       1.0  0.5437188183662727  0.730228923150392  0.883574662245252  1.0000
  C   C19       1.0  0.5126525752797307  0.211153733606963  0.04184998863907909  1.0000
  C   C20       1.0  0.48734972725888775  0.7888476103862059  0.9581499401958031  1.0000
  C   C21       1.0  0.41079968151561275  0.0955943838104574  0.9760640252913793  1.0000
  C   C22       1.0  0.5891995792456229  0.9044079524608862  0.02393598458330363  1.0000
  C   C23       1.0  0.25369625506865395  0.037798285765056505  0.9849030435690127  1.0000
  C   C24       1.0  0.746309518602139  0.9622030072824684  0.01509706040098986  1.0000
  C   C25       1.0  0.1978166621631274  0.0956449634964756  0.059623493456555814  1.0000
  C   C26       1.0  0.8021876972593276  0.9043506713492208  0.9403757418623616  1.0000
  C   C27       1.0  0.8142524705977578  0.3209238290126494  0.09038795385678364  1.0000
  C   C28       1.0  0.18574869424212878  0.6790775590631312  0.9096143566801945  1.0000
  C   C29       1.0  0.9653316204435497  0.3569016833775152  0.055015765640753486  1.0000
  C   C30       1.0  0.03466721096290115  0.6430997115612982  0.9449839880590007  1.0000
  C   C31       1.0  0.10415244375563758  0.45444816189121445  0.11421462063621857  1.0000
  C   C32       1.0  0.8958471105037447  0.5455522679580227  0.88578432524686  1.0000
  C   C33       1.0  0.24574475991119016  0.49659805730238543  0.0845006414984724  1.0000
  C   C34       1.0  0.7542547991845224  0.5034023793220328  0.9154989144047293  1.0000
  C   C35       1.0  0.2510672747483653  0.43844834197274446  0.9952870390446835  1.0000
  C   C36       1.0  0.7489272316526724  0.5615512280218623  0.00471263719020237  1.0000
  C   C37       1.0  0.11655692125291488  0.3366147642560123  0.9372946084518718  1.0000
  C   C38       1.0  0.8834460896296437  0.6633855943220298  0.06270268250597161  1.0000
  C   C39       1.0  0.9734937029241666  0.2964967700932207  0.966589490983097  1.0000
  C   C40       1.0  0.02650470396382332  0.7035036902882582  0.03341061656184514  1.0000
  C   C41       1.0  0.38813034968466553  0.6085339198332846  0.14630319227568128  1.0000
  C   C42       1.0  0.6118692045747168  0.3914665100159453  0.8536957536073971  1.0000
  C   C43       1.0  0.5870650519212789  0.6848625923262048  0.2899735119493202  1.0000
  C   C44       1.0  0.41293060668748177  0.3151369539113347  0.7100256126438257  1.0000
  C   C45       1.0  0.6305982609372408  0.6493942207019857  0.35988442903252615  1.0000
  C   C46       1.0  0.3693978366989654  0.35060628041843966  0.6401161717757875  1.0000
  C   C47       1.0  0.7500027839875685  0.7361883949977398  0.4354381444393241  1.0000
  C   C48       1.0  0.24999099472419323  0.2638121333112693  0.5645617295921215  1.0000
  C   C49       1.0  0.8275785393793669  0.8584844905170144  0.4412489303103869  1.0000
  C   C50       1.0  0.1724163915401178  0.1415160140349343  0.5587503920793111  1.0000
  C   C51       1.0  0.7887695036560345  0.8928915324649934  0.37109433686598  1.0000
  C   C52       1.0  0.21123063759964825  0.10710508454003081  0.6289024810338902  1.0000
  C   C53       1.0  0.6699811538818922  0.8063956408558823  0.2949162421544076  1.0000
  C   C54       1.0  0.3300159552690758  0.19360198197767184  0.7050818768255029  1.0000
  C   C55       1.0  0.7994754122893043  0.7000610804566706  0.5104424294213319  1.0000
  C   C56       1.0  0.20052860283212945  0.29994402209140253  0.4895579140931476  1.0000
  C   C57       1.0  0.6821636001819584  0.30360438170426113  0.3598902299779  1.0000
  C   C58       1.0  0.3178329171363714  0.6963970471983246  0.6401094069651025  1.0000
  C   C59       1.0  0.5146825535462441  0.239771644612766  0.34656175422378516  1.0000
  C   C60       1.0  0.4853173280656121  0.7602269262406339  0.6534403978085238  1.0000
  C   C61       1.0  0.44884379866137186  0.11098822529021389  0.2930638634801711  1.0000
  C   C62       1.0  0.5511549113974324  0.8890103422195281  0.7069364001134063  1.0000
  C   C63       1.0  0.5590924096942018  0.05237536436867168  0.255714614056842  1.0000
  C   C64       1.0  0.440904825640736  0.9476250926691423  0.7442836050493684  1.0000
  C   C65       1.0  0.7245525710841108  0.12198794748234579  0.27187399783803573  1.0000
  C   C66       1.0  0.27544627483133155  0.8780134677820186  0.7281275859220745  1.0000
  C   C67       1.0  0.2674201176263153  0.03963226578774481  0.2734247895741931  1.0000
  C   C68       1.0  0.7325778840885492  0.9603672871371177  0.726578111896423  1.0000
  C   C69       1.0  0.22385239072414007  0.9099693084762777  0.2781080538390485  1.0000
  C   C70       1.0  0.7761483495972927  0.0900311450421682  0.7218946105431245  1.0000
  N   N1        1.0  0.11402711335541225  0.5461446177486664  0.3778716307856557  1.0000
  N   N2        1.0  0.8859769428962282  0.4538529099687737  0.6221274484846264  1.0000
  N   N3        1.0  0.7859288804834675  0.24589473029287484  0.3233150129269334  1.0000
  N   N4        1.0  0.21406994608664573  0.7541066578707641  0.6766841307526976  1.0000
  N   N5        1.0  0.6698252387804898  0.26495934471254406  0.02799317033828434  1.0000
  N   N6        1.0  0.33017474483367687  0.735042026469209  0.9720060317197226  1.0000
  N   N7        1.0  0.45789867553232  0.5950970680457529  0.21873381250902219  1.0000
  N   N8        1.0  0.5420981401204941  0.4049024612099074  0.7812653704624994  1.0000
  O   O1        1.0  0.09771712109773739  0.20985162524877407  0.21372064754347525  1.0000
  O   O2        1.0  0.9022821807937049  0.7901431361919365  0.7862780980870102  1.0000
  O   O3        1.0  0.3143181858606425  0.3868566981894048  0.25737282145090035  1.0000
  O   O4        1.0  0.6856816812422225  0.6131418523384512  0.742627500521053  1.0000
  O   O5        1.0  0.9054789042289143  0.7868837205527581  0.5790905282115874  1.0000
  O   O6        1.0  0.09452091207106857  0.21312239125536786  0.4209098379643238  1.0000
  O   O7        1.0  0.7374222270701837  0.587723806208821  0.5041948103151201  1.0000
  O   O8        1.0  0.26258859929528455  0.4122783534685084  0.4958051733231913  1.0000
  O   O9        1.0  0.8233337992914471  0.34064012853994535  0.17037181679958746  1.0000
  O   O10       1.0  0.1766680787287171  0.6593602808958892  0.8296284658804824  1.0000
  O   O11       1.0  0.43460855629056283  0.7052859489582417  0.12977992845145545  1.0000
  O   O12       1.0  0.5653925843676645  0.29471540524163237  0.8702193319849274  1.0000
