data_image0
_chemical_formula_structural       Zn2H17C34N2O8F
_chemical_formula_sum              "Zn2 H17 C34 N2 O8 F1"
_cell_length_a       9.829298416504644
_cell_length_b       10.901313499388246
_cell_length_c       15.9391661573954
_cell_angle_alpha    87.56513965381795
_cell_angle_beta     88.91653215393303
_cell_angle_gamma    88.80052787972646

_space_group_name_H-M_alt    "P 1"
_space_group_IT_number       1

loop_
  _space_group_symop_operation_xyz
  'x, y, z'

loop_
  _atom_site_type_symbol
  _atom_site_label
  _atom_site_symmetry_multiplicity
  _atom_site_fract_x
  _atom_site_fract_y
  _atom_site_fract_z
  _atom_site_occupancy
  Zn  Zn1       1.0  0.6497762948975206  0.5009107974478371  0.4981960586156191  1.0000
  Zn  Zn2       1.0  0.35637955380190073  0.5111476312311893  0.5118314866716747  1.0000
  H   H1        1.0  0.35134217578223564  0.3356329114845523  0.9707545916862731  1.0000
  H   H2        1.0  0.8744166326383295  0.658490105405683  0.43551205958213773  1.0000
  H   H3        1.0  0.5661871312680661  0.32318198912849283  0.08762400178074611  1.0000
  H   H4        1.0  0.2556867387758571  0.5572781744360357  0.04068442599169941  1.0000
  H   H5        1.0  0.4220434542654345  0.6917927457049374  0.9234544557290153  1.0000
  H   H6        1.0  0.6368426550286231  0.6794358698278913  0.04037671503752452  1.0000
  H   H7        1.0  0.7327908062546769  0.45770002697931034  0.9700580173802182  1.0000
  H   H8        1.0  0.35136341877100113  0.1302722322026639  0.581496658997189  1.0000
  H   H9        1.0  0.7376271135683936  0.09973717706272109  0.22742127521494387  1.0000
  H   H10       1.0  0.7645673237049805  0.8705759031536716  0.25225172164489623  1.0000
  H   H11       1.0  0.655100983029044  0.7678085743111397  0.3757541955993703  1.0000
  H   H12       1.0  0.362640252264093  0.9012575945793985  0.600037313517632  1.0000
  H   H13       1.0  0.13094452633156808  0.6687246961064944  0.4486501767117305  1.0000
  H   H14       1.0  0.25043040519874876  0.3343628990960923  0.6233695370155915  1.0000
  H   H15       1.0  0.12755541946773263  0.15082732441694452  0.680218468805471  1.0000
  H   H16       1.0  0.8836660134582389  0.12281489610436581  0.6464962689047484  1.0000
  H   H17       1.0  0.7584317108521785  0.2813694107429399  0.5608769407140884  1.0000
  C   C1        1.0  0.4834588921000814  0.2739061203891637  0.4764597391650299  1.0000
  C   C2        1.0  0.6938948325725677  0.05299178427411281  0.283053418626139  1.0000
  C   C3        1.0  0.707734677744412  0.9248170248479258  0.2975028798371114  1.0000
  C   C4        1.0  0.526000355768268  0.4679060551683777  0.6666778408480596  1.0000
  C   C5        1.0  0.6472113656408778  0.8671257111391597  0.36680400117040807  1.0000
  C   C6        1.0  0.5716456372791328  0.9354808365721682  0.4265471651668592  1.0000
  C   C7        1.0  0.559090569313838  0.06720587108851113  0.4140861118122317  1.0000
  C   C8        1.0  0.48273216426715493  0.13642711596590834  0.47332486790473643  1.0000
  C   C9        1.0  0.41172003139971747  0.0760445967383134  0.5379591892549416  1.0000
  C   C10       1.0  0.4192964434985669  0.9476926922480899  0.5489746810213421  1.0000
  C   C11       1.0  0.5006250441866911  0.8781465734680299  0.4965924823476657  1.0000
  C   C12       1.0  0.5072626506217048  0.48699144306697667  0.9210809629982892  1.0000
  C   C13       1.0  0.14411469352855732  0.3207887768473441  0.6092627538882669  1.0000
  C   C14       1.0  0.0746215431815145  0.22013910475771328  0.6409407337336293  1.0000
  C   C15       1.0  0.9358957216395113  0.20472219528370061  0.622527319966075  1.0000
  C   C16       1.0  0.5065734475904333  0.7418684039403659  0.513882861983298  1.0000
  C   C17       1.0  0.8650000695974568  0.2925577319322699  0.5754512660372485  1.0000
  C   C18       1.0  0.9325723488207699  0.39847343959667825  0.5436048681898031  1.0000
  C   C19       1.0  0.0754099091070017  0.41047120565092143  0.5580822327540036  1.0000
  C   C20       1.0  0.07403502522942058  0.5928813922885041  0.4778239150025529  1.0000
  C   C21       1.0  0.9319509995392039  0.5853439445736229  0.4685293267333393  1.0000
  C   C22       1.0  0.4885437486920381  0.5491190396286925  0.3435068021862478  1.0000
  C   C23       1.0  0.5740059743556146  0.6027236136010785  0.02393463480805741  1.0000
  C   C24       1.0  0.5347776619826803  0.4045588612488444  0.04978159826156772  1.0000
  C   C25       1.0  0.4145803690949777  0.41224969304510495  0.9868875618519939  1.0000
  C   C26       1.0  0.5249267200019928  0.46493425436812436  0.7572958760110213  1.0000
  C   C27       1.0  0.4796329544722013  0.5528928607399168  0.2532224749708618  1.0000
  C   C28       1.0  0.6268680397110772  0.4799984795981375  0.9864321008449509  1.0000
  C   C29       1.0  0.4815876884588235  0.5279327817102484  0.08975322211047403  1.0000
  C   C30       1.0  0.45377202812419176  0.6103762960080986  0.9611476800364331  1.0000
  C   C31       1.0  0.36172891140445534  0.5349792290531922  0.024567504346229903  1.0000
  C   C32       1.0  0.5176562347700795  0.4720579290223413  0.8334368265512355  1.0000
  C   C33       1.0  0.47608248024206284  0.5443366850776172  0.1772857184318468  1.0000
  C   C34       1.0  0.6200463877444233  0.11986805164323745  0.33986191565517754  1.0000
  N   N1        1.0  0.14386745924934977  0.5079321169293892  0.5219074360670464  1.0000
  N   N2        1.0  0.8631635596757478  0.489903752974385  0.49970153620449054  1.0000
  O   O1        1.0  0.5993382947450242  0.321224449801413  0.4856106467996356  1.0000
  O   O2        1.0  0.3694820606447635  0.3304686216856894  0.4768667804422436  1.0000
  O   O3        1.0  0.6397137639656948  0.48093404840776094  0.6284407564990604  1.0000
  O   O4        1.0  0.4100870442497566  0.4585468484843106  0.6325744923605257  1.0000
  O   O5        1.0  0.6221222855172995  0.6875115712939748  0.5084262641553041  1.0000
  O   O6        1.0  0.3938151779226615  0.6911555350321593  0.5333772927267051  1.0000
  O   O7        1.0  0.608109420803075  0.5341387911234109  0.372818318368438  1.0000
  O   O8        1.0  0.3774491328877332  0.5595632664405912  0.38545623294572817  1.0000
  F   F1        1.0  0.600265021975204  0.24229345914948655  0.3220310763787638  1.0000
