data_image0
_chemical_formula_structural       Cd3H14C24N6O12
_chemical_formula_sum              "Cd3 H14 C24 N6 O12"
_cell_length_a       8.686158787361258
_cell_length_b       9.25037204164349
_cell_length_c       10.006155110379245
_cell_angle_alpha    101.30915424688338
_cell_angle_beta     105.11273307752084
_cell_angle_gamma    114.27053694689886

_space_group_name_H-M_alt    "P 1"
_space_group_IT_number       1

loop_
  _space_group_symop_operation_xyz
  'x, y, z'

loop_
  _atom_site_type_symbol
  _atom_site_label
  _atom_site_symmetry_multiplicity
  _atom_site_fract_x
  _atom_site_fract_y
  _atom_site_fract_z
  _atom_site_occupancy
  Cd  Cd1       1.0  0.22764652848959338  0.014071507172424398  0.13718920243751848  1.0000
  Cd  Cd2       1.0  0.7723541460595343  0.985929583206939  0.8628108975507729  1.0000
  Cd  Cd3       1.0  0.5000004237512526  1.1131789178995808e-06  0.5000003537276142  1.0000
  H   H1        1.0  0.36815230379356473  0.769728996813363  0.921009427160591  1.0000
  H   H2        1.0  0.6318477074522305  0.23027083350913807  0.07899229428592489  1.0000
  H   H3        1.0  0.6049485769977068  0.7013943298208715  0.31381339168051875  1.0000
  H   H4        1.0  0.3950544839681598  0.29860676324478413  0.6861872481844031  1.0000
  H   H5        1.0  0.7041615743065321  0.6411764026390543  0.06867296704697169  1.0000
  H   H6        1.0  0.29583724247045506  0.35882342476069334  0.9313274845055658  1.0000
  H   H7        1.0  0.5385305322872682  0.6103431028464  0.9015695182751884  1.0000
  H   H8        1.0  0.4614694764376566  0.3896567243168859  0.09843020326000836  1.0000
  H   H9        1.0  0.22941083061807896  0.45600592591046046  0.33706175005757893  1.0000
  H   H10       1.0  0.770589178106846  0.5439939012528254  0.6629379714776178  1.0000
  H   H11       1.0  0.828339975811147  0.026645514314665796  0.3873736201144666  1.0000
  H   H12       1.0  0.17165936835000645  0.9733530512121432  0.6126267229232949  1.0000
  H   H13       1.0  0.2006028189000872  0.47819459443822143  0.7633290029751194  1.0000
  H   H14       1.0  0.799398383033207  0.5218052340682034  0.2366709884983962  1.0000
  C   C1        1.0  0.4078900390308178  0.7743122123378042  0.03457815551278994  1.0000
  C   C2        1.0  0.592109303869904  0.22568635160939718  0.9654211875693122  1.0000
  C   C3        1.0  0.5328303611830661  0.7414756728071193  0.23658577404786732  1.0000
  C   C4        1.0  0.4671696500627291  0.2585241575153816  0.7634159473986486  1.0000
  C   C5        1.0  0.5573982082746696  0.5925508961656759  0.008807721213265984  1.0000
  C   C6        1.0  0.4425999414176757  0.40744766643838654  0.9911913519305172  1.0000
  C   C7        1.0  0.23154720295059406  0.48760048823513796  0.5568228930207866  1.0000
  C   C8        1.0  0.7684540015035709  0.512399343430509  0.4431790983640481  1.0000
  C   C9        1.0  0.1674951171616712  0.39608792588449393  0.40670835569365227  1.0000
  C   C10       1.0  0.8325067505958256  0.6039131658380155  0.5932920142329507  1.0000
  C   C11       1.0  0.023195862304362404  0.23023090658331563  0.3451928504980657  1.0000
  C   C12       1.0  0.9768053421498024  0.7697689250823315  0.6548091408867689  1.0000
  C   C13       1.0  0.9422195025349325  0.15487132779195179  0.4347738396046451  1.0000
  C   C14       1.0  0.057780506189992295  0.8451284993713344  0.5652258819305515  1.0000
  C   C15       1.0  0.009018380319297145  0.24260036439890337  0.586047919155213  1.0000
  C   C16       1.0  0.9909834874382001  0.7574007273236063  0.4139524507713901  1.0000
  C   C17       1.0  0.1535298202357253  0.4094085864014188  0.6463908931286041  1.0000
  C   C18       1.0  0.8464689952808228  0.5905912394187209  0.35360855846827366  1.0000
  C   C19       1.0  0.3789239121123131  0.6699559790199388  0.614574862797184  1.0000
  C   C20       1.0  0.6210755692284381  0.3300451100162789  0.38542496725278846  1.0000
  C   C21       1.0  0.9577433589745894  0.1387614981437295  0.18319546334599582  1.0000
  C   C22       1.0  0.04225784295870483  0.8612383303626955  0.8168045281275197  1.0000
  C   C23       1.0  0.9286113892252815  0.15871169037678357  0.6834877446985742  1.0000
  C   C24       1.0  0.07138928532384628  0.8412894000025729  0.3165123552897099  1.0000
  N   N1        1.0  0.38582375415830233  0.8616877673343025  0.14198597883452624  1.0000
  N   N2        1.0  0.6141762545666224  0.13831205982898342  0.8580137427006703  1.0000
  N   N3        1.0  0.46496041143481653  0.841532512710593  0.2693251853561591  1.0000
  N   N4        1.0  0.5350395972901082  0.15846731445268594  0.7306745361790374  1.0000
  N   N5        1.0  0.4997706600811539  0.6966660944303057  0.08975878934921862  1.0000
  N   N6        1.0  0.5002286840799995  0.3033324710965103  0.9102415536885502  1.0000
  O   O1        1.0  0.4882030580177599  0.7339337653418098  0.7494555598551215  1.0000
  O   O2        1.0  0.5117976152709288  0.26606732345794626  0.2505435401775101  1.0000
  O   O3        1.0  0.37933089963643607  0.7428539653269509  0.5200112697323859  1.0000
  O   O4        1.0  0.6206679146196804  0.25714585891358144  0.4799871819088323  1.0000
  O   O5        1.0  0.07695018738399281  0.1670264244002126  0.12432007469941907  1.0000
  O   O6        1.0  0.9230491542562903  0.8329721379673812  0.8756782684270233  1.0000
  O   O7        1.0  0.7874185051851442  0.0423710392619299  0.1096898752249444  1.0000
  O   O8        1.0  0.21258269674814997  0.957628789244502  0.890310116248571  1.0000
  O   O9        1.0  0.7783328226185091  0.015496606538519597  0.6223181858374289  1.0000
  O   O10       1.0  0.2216666599826809  0.9845044840773125  0.37768264416820313  1.0000
  O   O11       1.0  0.009483267703600992  0.22529973059784675  0.8218681234734432  1.0000
  O   O12       1.0  0.9905155490733859  0.7747000968019006  0.17813232807909415  1.0000
