data_image0
_chemical_formula_structural       Ni2H40C40N4O16
_chemical_formula_sum              "Ni2 H40 C40 N4 O16"
_cell_length_a       7.293415246793372
_cell_length_b       10.753162499520569
_cell_length_c       12.620801406040673
_cell_angle_alpha    88.05392205761449
_cell_angle_beta     73.15035114830398
_cell_angle_gamma    82.69425345600007

_space_group_name_H-M_alt    "P 1"
_space_group_IT_number       1

loop_
  _space_group_symop_operation_xyz
  'x, y, z'

loop_
  _atom_site_type_symbol
  _atom_site_label
  _atom_site_symmetry_multiplicity
  _atom_site_fract_x
  _atom_site_fract_y
  _atom_site_fract_z
  _atom_site_occupancy
  Ni  Ni1       1.0  0.6089654360078994  0.16199865347304146  0.5869753274617864  1.0000
  Ni  Ni2       1.0  0.3908653737412138  0.837754304581651  0.413354245124701  1.0000
  H   H1        1.0  0.6240455264094892  0.0841341168775998  0.3829324642133116  1.0000
  H   H2        1.0  0.37558123622241607  0.9162335768905766  0.6168305197310673  1.0000
  H   H3        1.0  0.8398484975594727  0.09771960263136488  0.3804010137669919  1.0000
  H   H4        1.0  0.15987679347570347  0.9019729752425647  0.6192393635818618  1.0000
  H   H5        1.0  0.6577924262090988  0.3895046637972399  0.4901881992452033  1.0000
  H   H6        1.0  0.34211713137848676  0.6105108304619407  0.5109100127326798  1.0000
  H   H7        1.0  0.4439457039633082  0.4011865166049303  0.5729323480783108  1.0000
  H   H8        1.0  0.5558311354132712  0.598546160324254  0.4283115882215824  1.0000
  H   H9        1.0  0.9295385145254895  0.23902527646209387  0.6070473270618211  1.0000
  H   H10       1.0  0.07085733320273127  0.7611319962525586  0.3929415386282145  1.0000
  H   H11       1.0  0.33250984787855487  0.11150392984491482  0.5087847163105153  1.0000
  H   H12       1.0  0.6671103428488505  0.8884024953996317  0.4912644701510943  1.0000
  H   H13       1.0  0.238811203986387  0.22347720360914985  0.5950725688023226  1.0000
  H   H14       1.0  0.7609467671942268  0.7763151207073945  0.40518442673300836  1.0000
  H   H15       1.0  0.18411702952554512  0.7089246906646381  0.7868931524410739  1.0000
  H   H16       1.0  0.8161002853695151  0.29122454898410405  0.21215051082061362  1.0000
  H   H17       1.0  0.4212992314768229  0.5638104429450763  0.8047895647078533  1.0000
  H   H18       1.0  0.578515041993107  0.4363671634048599  0.19434753324812706  1.0000
  H   H19       1.0  0.9603808422487318  0.35292297231743675  0.8629111653199076  1.0000
  H   H20       1.0  0.03911041889365657  0.6475114328547207  0.1371927024107649  1.0000
  H   H21       1.0  0.5733653010835057  0.9383059074296013  0.8623406051336461  1.0000
  H   H22       1.0  0.4268214940651303  0.06159430443818079  0.13702433668807862  1.0000
  H   H23       1.0  0.9117294991598967  0.8368398651077765  0.9093879088730219  1.0000
  H   H24       1.0  0.08848364882555158  0.1631547800031328  0.0898745874262659  1.0000
  H   H25       1.0  0.3088653097779286  0.49079384170270396  0.0473815398464907  1.0000
  H   H26       1.0  0.6907482076596665  0.5097230067187724  0.9526862215107103  1.0000
  H   H27       1.0  0.30316184923776035  0.0667674303404269  0.984289570116566  1.0000
  H   H28       1.0  0.697132521433282  0.9327732486708625  0.01542125286002972  1.0000
  H   H29       1.0  0.4925726037287034  0.2996267948785842  0.0044349945021054165  1.0000
  H   H30       1.0  0.5071545475129182  0.7014211349570304  0.9958846509431468  1.0000
  H   H31       1.0  0.23381140324834604  0.29881581316048056  0.7434125623435719  1.0000
  H   H32       1.0  0.7655157693359553  0.7005183667106678  0.25727034339395527  1.0000
  H   H33       1.0  0.046971881071144084  0.7126079133762316  0.6104147490310439  1.0000
  H   H34       1.0  0.9536687545441963  0.2871063564351743  0.3896007711301408  1.0000
  H   H35       1.0  0.7073765700235698  0.41013383126400516  0.7235949788112421  1.0000
  H   H36       1.0  0.2926699491752415  0.5898737810245578  0.2764811412812734  1.0000
  H   H37       1.0  0.7355441192853432  0.1538170129213654  0.8303363254342102  1.0000
  H   H38       1.0  0.26412193553011315  0.8465674347154037  0.17059954553980822  1.0000
  H   H39       1.0  0.9219382829346755  0.0882508453306912  0.6171185289136005  1.0000
  H   H40       1.0  0.07887521139199549  0.911808783752292  0.3823243125965022  1.0000
  C   C1        1.0  0.08226692990598394  0.9616148899604866  0.9611476874823737  1.0000
  C   C2        1.0  0.9180488506328074  0.0380480198013515  0.03840513134156249  1.0000
  C   C3        1.0  0.8982829765402158  0.5509080278196591  0.6657046807882879  1.0000
  C   C4        1.0  0.10187792690078372  0.44906794945482176  0.3344258873725465  1.0000
  C   C5        1.0  0.21111328809117674  0.7855379900216093  0.8325467242967761  1.0000
  C   C6        1.0  0.7890663449689724  0.2144319659204896  0.16671412119872994  1.0000
  C   C7        1.0  0.5581714109334968  0.5965572833513874  0.760170899962496  1.0000
  C   C8        1.0  0.4418155604274857  0.40353179307680154  0.2391643070092755  1.0000
  C   C9        1.0  0.40155817664586385  0.8112644638160019  0.8165337682521212  1.0000
  C   C10       1.0  0.5986205796182202  0.18873915563876412  0.18270473677876004  1.0000
  C   C11       1.0  0.7467295677459018  0.7675716829834442  0.6920825975766363  1.0000
  C   C12       1.0  0.25361684919242566  0.2324226537525362  0.3072659054025095  1.0000
  C   C13       1.0  0.9794577587424769  0.4175689107417709  0.922322095345095  1.0000
  C   C14       1.0  0.02025277669272192  0.5827898731647422  0.077723050627668  1.0000
  C   C15       1.0  0.5686197759982503  0.7263364614412352  0.7521927668429527  1.0000
  C   C16       1.0  0.4315441286223559  0.27373878853690314  0.2469531375909071  1.0000
  C   C17       1.0  0.4280048253802348  0.9154240561383916  0.8721365029395899  1.0000
  C   C18       1.0  0.5722293194849895  0.0843960049579877  0.12726688018480556  1.0000
  C   C19       1.0  0.05608925850914656  0.8593440344875631  0.9022854459365703  1.0000
  C   C20       1.0  0.9441503940363061  0.1404695452192897  0.09712596353961798  1.0000
  C   C21       1.0  0.15435903003254473  0.41117907877649884  0.9484517846049059  1.0000
  C   C22       1.0  0.84536281651188  0.5891169335190227  0.05160226172910144  1.0000
  C   C23       1.0  0.1736488195250345  0.4939303212102999  0.026509620934739093  1.0000
  C   C24       1.0  0.8260707432440525  0.5064432797408783  0.9734891980618344  1.0000
  C   C25       1.0  0.27286342664483226  0.988217729190325  0.9426363358214331  1.0000
  C   C26       1.0  0.7274046429923188  0.011439308198262698  0.056939520642309595  1.0000
  C   C27       1.0  0.47760663995761377  0.27963944414951675  0.9240801379816972  1.0000
  C   C28       1.0  0.5219995221431546  0.7207464870457513  0.0764003427716204  1.0000
  C   C29       1.0  0.7674014597098162  0.9028376964151615  0.662424748947835  1.0000
  C   C30       1.0  0.23313091521884388  0.09714990965953518  0.33712180409903436  1.0000
  C   C31       1.0  0.33815484942527957  0.2765885121975415  0.7895964457950412  1.0000
  C   C32       1.0  0.6613950198101645  0.7229430006830813  0.21097317952724384  1.0000
  C   C33       1.0  0.9096581211150222  0.6797808275348771  0.6530372646926567  1.0000
  C   C34       1.0  0.09072284790627798  0.32014045103445443  0.3467651600975117  1.0000
  C   C35       1.0  0.07657850101280422  0.4584543887717769  0.6326286851196627  1.0000
  C   C36       1.0  0.9235341035507998  0.5414396026610434  0.36829766889459137  1.0000
  C   C37       1.0  0.7187358225637155  0.5099787807700764  0.7162792280120841  1.0000
  C   C38       1.0  0.2813020419700435  0.49001384137835663  0.28350165006551015  1.0000
  C   C39       1.0  0.5957595558078452  0.20684913079332293  0.8374428077705643  1.0000
  C   C40       1.0  0.40391392402019477  0.7933597344099823  0.1631734518486638  1.0000
  N   N1        1.0  0.3135062846829654  0.3239263852186411  0.8925284066266386  1.0000
  N   N2        1.0  0.6860638893974953  0.6760747736361594  0.10788086687492882  1.0000
  N   N3        1.0  0.5073325192040129  0.2067085553746323  0.7540552531663423  1.0000
  N   N4        1.0  0.4924056711139427  0.7929956665578927  0.24656756294213986  1.0000
  O   O1        1.0  0.057677188868673575  0.3412420361071398  0.6432581338290788  1.0000
  O   O2        1.0  0.9423892362679707  0.6586287900858848  0.3573120196493207  1.0000
  O   O3        1.0  0.9071509495309867  0.9509130737377585  0.6781952267655456  1.0000
  O   O4        1.0  0.0937106590970416  0.048890017990217395  0.3211537667231141  1.0000
  O   O5        1.0  0.6413630827958554  0.9610503210657626  0.6186757944260038  1.0000
  O   O6        1.0  0.3588818304193067  0.0391076193702133  0.38115387018270047  1.0000
  O   O7        1.0  0.2398631276075207  0.49911372380027064  0.60256088633286  1.0000
  O   O8        1.0  0.7602961472794759  0.500796096160613  0.39921864477050667  1.0000
  O   O9        1.0  0.7031937513334795  0.13224944305948577  0.41310012441037  1.0000
  O   O10       1.0  0.2968111905000583  0.8677860427864486  0.5866688960013492  1.0000
  O   O11       1.0  0.576080678300876  0.35290599772221737  0.5579390916332869  1.0000
  O   O12       1.0  0.4237122192867984  0.6467166226957488  0.4429397066147446  1.0000
  O   O13       1.0  0.8957065457449003  0.1655459486294362  0.5740376732154786  1.0000
  O   O14       1.0  0.10404598421627748  0.8347830494141492  0.42599603135256814  1.0000
  O   O15       1.0  0.32916434882401546  0.14343889717051184  0.5821579978762728  1.0000
  O   O16       1.0  0.6708266944930728  0.8564466972782443  0.41784397078514246  1.0000
