data_image0
_chemical_formula_structural       Zn16H48C104S16O52
_chemical_formula_sum              "Zn16 H48 C104 S16 O52"
_cell_length_a       19.65685228755374
_cell_length_b       19.645231862700207
_cell_length_c       33.34738233922131
_cell_angle_alpha    79.316457705761
_cell_angle_beta     79.28206489276808
_cell_angle_gamma    63.99577606557317

_space_group_name_H-M_alt    "P 1"
_space_group_IT_number       1

loop_
  _space_group_symop_operation_xyz
  'x, y, z'

loop_
  _atom_site_type_symbol
  _atom_site_label
  _atom_site_symmetry_multiplicity
  _atom_site_fract_x
  _atom_site_fract_y
  _atom_site_fract_z
  _atom_site_occupancy
  Zn  Zn1       1.0  0.0566193047656824  0.3999091839490347  0.47811729243152706  1.0000
  Zn  Zn2       1.0  0.9838431299259227  0.48347889659919474  0.5594894279057739  1.0000
  Zn  Zn3       1.0  0.0593568973761762  0.5610921272622987  0.4829065375565235  1.0000
  Zn  Zn4       1.0  0.900867771352445  0.5547060266435508  0.478662935565012  1.0000
  Zn  Zn5       1.0  0.6937793366638445  0.3498762767341502  0.27153431370059167  1.0000
  Zn  Zn6       1.0  0.689550756129222  0.18949350221075184  0.26696607954451684  1.0000
  Zn  Zn7       1.0  0.767634722976645  0.2659678020126889  0.18991029512214655  1.0000
  Zn  Zn8       1.0  0.8477918048053965  0.19504583135196885  0.27190512339682027  1.0000
  Zn  Zn9       1.0  0.26672584762302176  0.7670734824407148  0.6896470368096529  1.0000
  Zn  Zn10      1.0  0.3486211849290655  0.6954965970251336  0.7713131768863377  1.0000
  Zn  Zn11      1.0  0.1935222546195305  0.8495984764588657  0.7718759651733365  1.0000
  Zn  Zn12      1.0  0.1907585667007154  0.6890699488086581  0.7668733499199335  1.0000
  Zn  Zn13      1.0  0.560116350969075  0.060518312018260245  0.9831141044908733  1.0000
  Zn  Zn14      1.0  0.4012646612193294  0.05527240332998664  0.9783575726725287  1.0000
  Zn  Zn15      1.0  0.555812169792361  0.9006954082477139  0.9783832137870264  1.0000
  Zn  Zn16      1.0  0.482882897030578  0.9832836410935217  0.060319215099930455  1.0000
  H   H1        1.0  0.7958842609963099  0.5022727367775204  0.3991413828416128  1.0000
  H   H2        1.0  0.9540687293689771  0.24762249144155396  0.3508669133072288  1.0000
  H   H3        1.0  0.7477808539154154  0.4539292887856376  0.35083641496074586  1.0000
  H   H4        1.0  0.002209065225727599  0.29605083249114733  0.39911000554533865  1.0000
  H   H5        1.0  0.15230475910343697  0.6524555100616071  0.5493679260362896  1.0000
  H   H6        1.0  0.0976887325664961  0.5975129075170145  0.7006795659157632  1.0000
  H   H7        1.0  0.20062557223614874  0.7007074548811475  0.5976059182702542  1.0000
  H   H8        1.0  0.0493468763518266  0.5492355478013097  0.6524480784139683  1.0000
  H   H9        1.0  0.4635147985722057  0.23906449240654132  0.3407879256941726  1.0000
  H   H10       1.0  0.4787511843930759  0.7028932521350626  0.6013313984701084  1.0000
  H   H11       1.0  0.2029910444210543  0.9786082455926317  0.6012852617206265  1.0000
  H   H12       1.0  0.9494391715391899  0.9706249505703897  0.34788880707304054  1.0000
  H   H13       1.0  0.7007744106647209  0.20062244815815675  0.09760167666844671  1.0000
  H   H14       1.0  0.5492786590060135  0.04929471919593457  0.1523974491784799  1.0000
  H   H15       1.0  0.6524319276640256  0.15241171226831807  0.04935079009759143  1.0000
  H   H16       1.0  0.597574356300342  0.09756073787595196  0.20064353235712673  1.0000
  H   H17       1.0  0.5469946708842671  0.7714848670686292  0.1486696522994393  1.0000
  H   H18       1.0  0.1626910528449557  0.14155879173652863  0.0400255042386988  1.0000
  H   H19       1.0  0.2478249320685322  0.9539562501530908  0.850898968105227  1.0000
  H   H20       1.0  0.5022616059416478  0.7960216001518248  0.8991190940138907  1.0000
  H   H21       1.0  0.2959865706118876  0.00230465613061165  0.899152628795683  1.0000
  H   H22       1.0  0.4541473193255356  0.7476956098173134  0.8508203174064521  1.0000
  H   H23       1.0  0.30054822001319087  0.27938328994491  0.9021378378324768  1.0000
  H   H24       1.0  0.786374714547236  0.010936616271784726  0.9092154461557486  1.0000
  H   H25       1.0  0.23115206976701325  0.5754378031702388  0.3991330337526264  1.0000
  H   H26       1.0  0.3305093187389261  0.5513600476154464  0.3970037947611259  1.0000
  H   H27       1.0  0.275997252958291  0.5358303204580538  0.4441224202536703  1.0000
  H   H28       1.0  0.8211565232797327  0.47700773566504057  0.6532311891803884  1.0000
  H   H29       1.0  0.7573897110930049  0.5366968944095591  0.6908870423956869  1.0000
  H   H30       1.0  0.8240225285580179  0.5642972258106201  0.6558650040978123  1.0000
  H   H31       1.0  0.0643763217210989  0.3239558576862294  0.6560210605621607  1.0000
  H   H32       1.0  0.03642091998846551  0.25741005286266017  0.690924523244007  1.0000
  H   H33       1.0  0.9770734183737488  0.3213708537346847  0.6532333153290609  1.0000
  H   H34       1.0  0.7982975799899706  0.7218311238681211  0.3897845088588667  1.0000
  H   H35       1.0  0.7319275287713581  0.8198271860963972  0.3863488273570964  1.0000
  H   H36       1.0  0.7588482599416296  0.7666787768912542  0.4348372887638519  1.0000
  H   H37       1.0  0.7730023253714579  0.4287244164677304  0.09673391049896202  1.0000
  H   H38       1.0  0.7134097848018115  0.49255534705647364  0.05911502270124909  1.0000
  H   H39       1.0  0.6857805485257558  0.42589054159700607  0.09410647172024508  1.0000
  H   H40       1.0  0.07198269723309642  0.14846880640873653  0.2398811885820606  1.0000
  H   H41       1.0  0.1576119531104041  0.06972141722348368  0.22409204347826517  1.0000
  H   H42       1.0  0.0690525114107388  0.0612385447502035  0.2371768495236353  1.0000
  H   H43       1.0  0.4912849683573342  0.4830916721066387  0.8151521441336059  1.0000
  H   H44       1.0  0.5179540253562038  0.43028497959387824  0.8637479162194593  1.0000
  H   H45       1.0  0.4516133328017347  0.5283061098799423  0.8600796640524282  1.0000
  H   H46       1.0  0.9737670238522894  0.7142402793768954  0.8058484057976686  1.0000
  H   H47       1.0  0.919593693272816  0.6985344429641881  0.8530733038486106  1.0000
  H   H48       1.0  0.0189420532263824  0.6746747649900656  0.850739349466032  1.0000
  C   C1        1.0  0.061499744683793316  0.3156071904964578  0.5614390126259394  1.0000
  C   C2        1.0  0.0693171302148912  0.5693715896585303  0.5694672647302141  1.0000
  C   C3        1.0  0.1844106124588905  0.4383045800465055  0.4385394890557563  1.0000
  C   C4        1.0  0.9387066128874294  0.6844055166591191  0.4385632789613468  1.0000
  C   C5        1.0  0.9304301122997386  0.4306633878335902  0.4305638538128136  1.0000
  C   C6        1.0  0.8156384705422822  0.5616276126926466  0.5613906726404209  1.0000
  C   C7        1.0  0.5654875962281238  0.31095232303728443  0.3114979727135392  1.0000
  C   C8        1.0  0.6806293272095588  0.18055852232225064  0.18055040109832987  1.0000
  C   C9        1.0  0.6884803583267997  0.43446911747313516  0.18863365614813432  1.0000
  C   C10       1.0  0.9342460063334811  0.18868738163072857  0.18845118023220667  1.0000
  C   C11       1.0  0.8195229704970474  0.319272388295282  0.3194010837527443  1.0000
  C   C12       1.0  0.8120211877613883  0.06552642162029086  0.31146905399101144  1.0000
  C   C13       1.0  0.4342017689007491  0.6887286896291372  0.6882380319566649  1.0000
  C   C14       1.0  0.3195615695327803  0.8193434095420071  0.8193881146284809  1.0000
  C   C15       1.0  0.1888619264486948  0.9341991131943675  0.6881843881589021  1.0000
  C   C16       1.0  0.0655392038812295  0.811690099173511  0.811452610230546  1.0000
  C   C17       1.0  0.18063605381122727  0.6806174717115995  0.6805397699751126  1.0000
  C   C18       1.0  0.31127851457107886  0.565655584051008  0.8114333301697981  1.0000
  C   C19       1.0  0.4379995030446224  0.18437643421308536  0.9385316461674408  1.0000
  C   C20       1.0  0.43058548534472146  0.930617079559923  0.9305995001794115  1.0000
  C   C21       1.0  0.6843175659786525  0.9390449850464438  0.9385378077563615  1.0000
  C   C22       1.0  0.5612360674383368  0.8158543902869229  0.06176507911307988  1.0000
  C   C23       1.0  0.5693690084924938  0.06947333047524747  0.0694080967324311  1.0000
  C   C24       1.0  0.31532375079720504  0.06178978873292347  0.0612342170161426  1.0000
  C   C25       1.0  0.9018296631351389  0.4019421192229657  0.40177503671451825  1.0000
  C   C26       1.0  0.8482734398539549  0.3481320114674419  0.34805507063443036  1.0000
  C   C27       1.0  0.8300259250395357  0.44672194716249447  0.38829029851911656  1.0000
  C   C28       1.0  0.9200440842001643  0.3033187306425659  0.3615733681685569  1.0000
  C   C29       1.0  0.8033976016502818  0.4199535678634874  0.3615654290287936  1.0000
  C   C30       1.0  0.94667699544128  0.33009301187209394  0.3882872116419946  1.0000
  C   C31       1.0  0.0981235202892563  0.5980756066490115  0.5981706547129734  1.0000
  C   C32       1.0  0.1518205907653964  0.6518602094040844  0.651853885685668  1.0000
  C   C33       1.0  0.14074821723882988  0.6407536391903578  0.5825362427774651  1.0000
  C   C34       1.0  0.1092100398665536  0.6091844559505406  0.6675093171303814  1.0000
  C   C35       1.0  0.16746839174893322  0.6674993456638774  0.609229356632987  1.0000
  C   C36       1.0  0.0825040940245074  0.5824416086568718  0.6408164600275937  1.0000
  C   C37       1.0  0.3036638494450159  0.4554091895658275  0.401280473558657  1.0000
  C   C38       1.0  0.4460644788489033  0.2959990492119288  0.3488481013639273  1.0000
  C   C39       1.0  0.2589888312044621  0.41450720869007535  0.41372087272700503  1.0000
  C   C40       1.0  0.49067237884427317  0.33626572802204174  0.33642785174794915  1.0000
  C   C41       1.0  0.3778527272346892  0.3387454984473593  0.3724876461817671  1.0000
  C   C42       1.0  0.3715797668667591  0.411077050695745  0.3776699002397805  1.0000
  C   C43       1.0  0.727171736175663  0.5754591403089933  0.6295546362597618  1.0000
  C   C44       1.0  0.5239274093786506  0.673807172654925  0.6210680044163582  1.0000
  C   C45       1.0  0.7416085554773987  0.5859662997954872  0.5867947906011607  1.0000
  C   C46       1.0  0.5092015931022402  0.6635942399630396  0.6634716945939303  1.0000
  C   C47       1.0  0.603057040390155  0.6419418852276307  0.6083542116832489  1.0000
  C   C48       1.0  0.6474603327509172  0.6079096540872867  0.641365252575781  1.0000
  C   C49       1.0  0.0754211367542581  0.22717428966497982  0.6295694119179557  1.0000
  C   C50       1.0  0.1739022862142292  0.023835557949865912  0.6210351832946229  1.0000
  C   C51       1.0  0.08589718145658051  0.24155285463419326  0.5868023119289488  1.0000
  C   C52       1.0  0.163694686315786  0.009200553245520385  0.6634470825872469  1.0000
  C   C53       1.0  0.1419851113745807  0.10298223768921838  0.6083309847418121  1.0000
  C   C54       1.0  0.10793368406442737  0.14744103801351116  0.6413597194839086  1.0000
  C   C55       1.0  0.8434637796092092  0.7998615626128823  0.3974676645659656  1.0000
  C   C56       1.0  0.90531961389204  0.9497925268434458  0.3525342104528945  1.0000
  C   C57       1.0  0.9128678637231002  0.7588501610943089  0.4135940969270351  1.0000
  C   C58       1.0  0.8365703243383322  0.9907534968424162  0.3364430439205677  1.0000
  C   C59       1.0  0.9085340716904681  0.8801912992788203  0.37479112744648546  1.0000
  C   C60       1.0  0.8420054917493048  0.8692416201772629  0.37530364103345437  1.0000
  C   C61       1.0  0.6518052560770542  0.15187536522364553  0.15184367382550332  1.0000
  C   C62       1.0  0.5981354829542553  0.09814261105184846  0.09814292122096897  1.0000
  C   C63       1.0  0.6675077070947495  0.16752171148528555  0.1092190717667734  1.0000
  C   C64       1.0  0.5824649179268134  0.08247720858079083  0.14077753088546527  1.0000
  C   C65       1.0  0.6407949291426362  0.14079833181284582  0.08251615952863028  1.0000
  C   C66       1.0  0.6091742748335066  0.10920928043520917  0.16747717753577257  1.0000
  C   C67       1.0  0.6745461112412414  0.5228443645227756  0.12047246544194928  1.0000
  C   C68       1.0  0.5761078642855608  0.726251515304419  0.12892363143207317  1.0000
  C   C69       1.0  0.6639805511572874  0.508523889796436  0.16323906832639778  1.0000
  C   C70       1.0  0.5863320492779422  0.7408620167501356  0.08650628368832967  1.0000
  C   C71       1.0  0.6079895283737429  0.6471267245879774  0.14166798756679094  1.0000
  C   C72       1.0  0.6420620172866264  0.6025994196053336  0.10867554256261515  1.0000
  C   C73       1.0  0.08074936657627059  0.1243119545488796  0.17831483937808199  1.0000
  C   C74       1.0  0.16971616631873593  0.1252497181943966  0.07247916127715831  1.0000
  C   C75       1.0  0.009381882238038501  0.16342626365877072  0.1641421395584644  1.0000
  C   C76       1.0  0.24068836349180608  0.08651727870424958  0.08634511519233001  1.0000
  C   C77       1.0  0.11105238880337961  0.1393340300447292  0.1056603834848389  1.0000
  C   C78       1.0  0.1383344019572164  0.1110212670867199  0.1443740602175723  1.0000
  C   C79       1.0  0.34828175595354344  0.8481325525264509  0.8481033335622571  1.0000
  C   C80       1.0  0.4018972122040553  0.9019059476228081  0.9018385558373153  1.0000
  C   C81       1.0  0.30343376094637614  0.9199460203824898  0.8616322511001754  1.0000
  C   C82       1.0  0.4467115957210908  0.8300613793180319  0.8883292059800069  1.0000
  C   C83       1.0  0.3300928754380266  0.9467031182036154  0.8883523152218943  1.0000
  C   C84       1.0  0.42006217202258966  0.803310098181889  0.8616035721609092  1.0000
  C   C85       1.0  0.40652551028039596  0.4501305344942921  0.8525200301934746  1.0000
  C   C86       1.0  0.3446723664626816  0.30020137654304346  0.8974913837440609  1.0000
  C   C87       1.0  0.33710481561544725  0.4911762808343669  0.8364003886287534  1.0000
  C   C88       1.0  0.4134171259563715  0.2592143076078343  0.9135894468011685  1.0000
  C   C89       1.0  0.3415310936419331  0.36974533301332724  0.8751892566397925  1.0000
  C   C90       1.0  0.40803403646211217  0.38071818237907007  0.8746683175089769  1.0000
  C   C91       1.0  0.9462069389421757  0.7946324340076816  0.8486975776572551  1.0000
  C   C92       1.0  0.8037510326725155  0.9540256998161142  0.9011491233344272  1.0000
  C   C93       1.0  0.9909041245039134  0.8355193817624028  0.8362746983415619  1.0000
  C   C94       1.0  0.7591367713345533  0.9137548237387348  0.9135957003871837  1.0000
  C   C95       1.0  0.8719753451532739  0.9112480838064418  0.8775169765278862  1.0000
  C   C96       1.0  0.8782711281743971  0.8389137789077877  0.8723247605432147  1.0000
  C   C97       1.0  0.2846323861467823  0.5337340176879266  0.4107891174030343  1.0000
  C   C98       1.0  0.7853188478876234  0.5363169819668914  0.6591504674699067  1.0000
  C   C99       1.0  0.0362802074595834  0.2853612754077943  0.6592034041553916  1.0000
  C   C100      1.0  0.7794740234309359  0.7760665302911037  0.4022590916155694  1.0000
  C   C101      1.0  0.7137405869911291  0.46462564993895966  0.09084930808558765  1.0000
  C   C102      1.0  0.0960439714624002  0.0994433729818809  0.22219327201612063  1.0000
  C   C103      1.0  0.47049928201525393  0.47394207032723307  0.8477303498222851  1.0000
  C   C104      1.0  0.9653358436023751  0.7162954470632172  0.8391776342466671  1.0000
  S   S1        1.0  0.2992314527106643  0.32446876214252285  0.3969453700413155  1.0000
  S   S2        1.0  0.4501282175276414  0.4260051220074247  0.3532914582764803  1.0000
  S   S3        1.0  0.6597627691289462  0.6341748810756441  0.5619216496469689  1.0000
  S   S4        1.0  0.5911292912374719  0.6154133151478405  0.6880697334739949  1.0000
  S   S5        1.0  0.1342104536322708  0.15965297470881984  0.5619094346557033  1.0000
  S   S6        1.0  0.1154290739950312  0.09117969092631745  0.6880602983961382  1.0000
  S   S7        1.0  0.9743145728631434  0.8041758046234404  0.40189378446190466  1.0000
  S   S8        1.0  0.7756351586807  0.9451361397542687  0.34824013685005173  1.0000
  S   S9        1.0  0.615703705397415  0.5904847928176196  0.18810525476899187  1.0000
  S   S10       1.0  0.6346266639677013  0.6587944078004287  0.06194714365557987  1.0000
  S   S11       1.0  0.0130323363152698  0.1831191197985262  0.11077840625122093  1.0000
  S   S12       1.0  0.23656141039647594  0.06698817323622563  0.1395998723014458  1.0000
  S   S13       1.0  0.27571753324684783  0.44576476604333254  0.8480927399451943  1.0000
  S   S14       1.0  0.4743952176228561  0.3048030540856032  0.9017524199628326  1.0000
  S   S15       1.0  0.950639750161173  0.9255200926789369  0.8530976921348665  1.0000
  S   S16       1.0  0.7997475625176946  0.8239766526374911  0.896749773264503  1.0000
  O   O1        1.0  0.00044398451857569966  0.4994785232779932  0.4994697996323795  1.0000
  O   O2        1.0  0.0781376217326368  0.31459439688798346  0.5224551003448282  1.0000
  O   O3        1.0  0.030654015226069507  0.5311637335810248  0.5857795553312714  1.0000
  O   O4        1.0  0.1558409308907898  0.5046567617758484  0.4503821515968056  1.0000
  O   O5        1.0  0.025674578017749597  0.37488319075301757  0.5803595187566443  1.0000
  O   O6        1.0  0.1542322076453431  0.3904338601715693  0.4462402810523328  1.0000
  O   O7        1.0  0.08560720390651969  0.5853493700000458  0.5310540174144264  1.0000
  O   O8        1.0  0.005602626124371601  0.6577878029840464  0.44972994691634927  1.0000
  O   O9        1.0  0.886764907808093  0.4965615958268402  0.4415492263464387  1.0000
  O   O10       1.0  0.8926356870216807  0.6523924941416509  0.44714703819781937  1.0000
  O   O11       1.0  0.996012863641724  0.3870342701806137  0.44179033699003156  1.0000
  O   O12       1.0  0.874940416341083  0.5256804076531054  0.5801921197682275  1.0000
  O   O13       1.0  0.8145537498325979  0.5784885889048611  0.522403144196545  1.0000
  O   O14       1.0  0.7492502479371694  0.2503671498236173  0.25016013496856  1.0000
  O   O15       1.0  0.5963194234359648  0.358161236075418  0.30349327491236977  1.0000
  O   O16       1.0  0.6646078961437425  0.16407765739089084  0.21896603910222012  1.0000
  O   O17       1.0  0.7242335149169108  0.37512694285273085  0.1698117051054666  1.0000
  O   O18       1.0  0.5928560047044797  0.24441407304671967  0.3001215682483718  1.0000
  O   O19       1.0  0.6718710936887078  0.4356277249634389  0.22765006494253734  1.0000
  O   O20       1.0  0.7189315311790024  0.2191124047192474  0.16432045379833232  1.0000
  O   O21       1.0  0.8762385364770822  0.22445546877568756  0.16842526089488533  1.0000
  O   O22       1.0  0.8633308570393224  0.2534824667572835  0.3082801111396094  1.0000
  O   O23       1.0  0.9327704442151656  0.1729205976733112  0.22749209969436635  1.0000
  O   O24       1.0  0.753728746776339  0.3626010578312985  0.30837998794219607  1.0000
  O   O25       1.0  0.7453866122609085  0.09300423378881821  0.3000926656081618  1.0000
  O   O26       1.0  0.8591695984151997  0.09624752382202931  0.30336126699961596  1.0000
  O   O27       1.0  0.2496943720178777  0.7507056652219505  0.7498470289393993  1.0000
  O   O28       1.0  0.37587967029913477  0.7244076413958073  0.6687567329069778  1.0000
  O   O29       1.0  0.3631824480611101  0.7534192256387372  0.8083938258095956  1.0000
  O   O30       1.0  0.1726345959550812  0.9343378065511064  0.7271875279860893  1.0000
  O   O31       1.0  0.4344005580874679  0.672335382822567  0.7272500761724457  1.0000
  O   O32       1.0  0.22447487460705423  0.8759002346099367  0.6685863345700155  1.0000
  O   O33       1.0  0.253928749377792  0.8628892172312561  0.8081936921131643  1.0000
  O   O34       1.0  0.09569144358619751  0.8596070928990257  0.8037214707295918  1.0000
  O   O35       1.0  0.1642788089633527  0.664607110005612  0.7189643688613359  1.0000
  O   O36       1.0  0.09427111421825879  0.7453151025249697  0.7996353900347157  1.0000
  O   O37       1.0  0.2192696241584429  0.718794694769642  0.6642267663431127  1.0000
  O   O38       1.0  0.3574178797965146  0.597642682537071  0.8028356840613354  1.0000
  O   O39       1.0  0.24437916885623417  0.5924295871454959  0.800268315533316  1.0000
  O   O40       1.0  0.5000931079578593  0.9998858817975672  1.6535394614396427e-05  1.0000
  O   O41       1.0  0.5046728553398482  0.15693227822811198  0.9498771390264549  1.0000
  O   O42       1.0  0.38690469810998  0.996425040153781  0.9416820324676323  1.0000
  O   O43       1.0  0.6535613671527116  0.8917534380571865  0.9466101162674929  1.0000
  O   O44       1.0  0.3909144860892511  0.1536201941747919  0.9466105891553693  1.0000
  O   O45       1.0  0.6568399057019504  0.005610462094132717  0.9498698749446389  1.0000
  O   O46       1.0  0.4962932083553611  0.8870719363195223  0.9417171012534595  1.0000
  O   O47       1.0  0.5775855088462548  0.8156124674037674  0.022750885299089394  1.0000
  O   O48       1.0  0.5309115882892855  0.03108107354315586  0.0856391854176479  1.0000
  O   O49       1.0  0.5255487546751213  0.8742458979634621  0.08125952421058001  1.0000
  O   O50       1.0  0.5855849914276305  0.08576422274509804  0.030994324613971013  1.0000
  O   O51       1.0  0.31520229973178  0.07803124388404829  0.022324338769706704  1.0000
  O   O52       1.0  0.37375882449345  0.026090663638569753  0.08080985963870552  1.0000
