data_image0
_chemical_formula_structural       Sm4H18C36N6O24
_chemical_formula_sum              "Sm4 H18 C36 N6 O24"
_cell_length_a       6.527360326377719
_cell_length_b       7.6505636180000325
_cell_length_c       18.193257752964076
_cell_angle_alpha    90.00000644800578
_cell_angle_beta     90.20758697491353
_cell_angle_gamma    89.99999176278784

_space_group_name_H-M_alt    "P 1"
_space_group_IT_number       1

loop_
  _space_group_symop_operation_xyz
  'x, y, z'

loop_
  _atom_site_type_symbol
  _atom_site_label
  _atom_site_symmetry_multiplicity
  _atom_site_fract_x
  _atom_site_fract_y
  _atom_site_fract_z
  _atom_site_occupancy
  Sm  Sm1       1.0  0.5571003851685034  0.4044356447817633  0.8959109413140565  1.0000
  Sm  Sm2       1.0  0.9428980889849469  0.4044368909541518  0.6040889680652839  1.0000
  Sm  Sm3       1.0  0.44289907237033793  0.5955639514571374  0.10408882823097797  1.0000
  Sm  Sm4       1.0  0.05710288981102  0.5955627052847275  0.39591135694693935  1.0000
  H   H1        1.0  0.2246929591019793  0.007561538610289599  0.13705435384962775  1.0000
  H   H2        1.0  0.2753075718306945  0.0075602576751094995  0.3629457968480024  1.0000
  H   H3        1.0  0.7753080518788024  0.9924367505351339  0.8629443222823239  1.0000
  H   H4        1.0  0.7246918642516819  0.9924393385639332  0.6370550719505343  1.0000
  H   H5        1.0  0.6311766087193077  0.0017187937064164999  0.03128249614205458  1.0000
  H   H6        1.0  0.8688251663422194  0.0017188359654483002  0.46871804762527336  1.0000
  H   H7        1.0  0.3688197848488245  0.9982808025326689  0.968717261722105  1.0000
  H   H8        1.0  0.1311773337108733  0.9982807602734098  0.5312828328541457  1.0000
  H   H9        1.0  0.5320288266397384  0.8122474198307046  0.8126435094361495  1.0000
  H   H10       1.0  0.9679711203610352  0.8122473774229916  0.687355876020156  1.0000
  H   H11       1.0  0.4679721628844646  0.18775217640810377  0.18735626594932595  1.0000
  H   H12       1.0  0.0320283264494563  0.1877535259092227  0.31264444315166867  1.0000
  H   H13       1.0  0.9234757464461082  0.4755609960229847  0.07999202166184459  1.0000
  H   H14       1.0  0.5765259581648081  0.47556236793140977  0.42000799555820817  1.0000
  H   H15       1.0  0.07652525380632372  0.5244386002157526  0.9200072040968831  1.0000
  H   H16       1.0  0.4234750099028091  0.5244385354007834  0.579992879080798  1.0000
  H   H17       1.0  0.2500001524851498  0.28359618128594394  0.7500000357234808  1.0000
  H   H18       1.0  0.7500008263107103  0.7164047220461782  0.25000028928877777  1.0000
  C   C1        1.0  0.7579921831308029  0.2564634191080657  0.05283362732933478  1.0000
  C   C2        1.0  0.7420110910011959  0.2564660852314304  0.4471663850595958  1.0000
  C   C3        1.0  0.24200728513638833  0.7435348700375216  0.9471655925889236  1.0000
  C   C4        1.0  0.25798987706642146  0.7435348181007626  0.5528344895794105  1.0000
  C   C5        1.0  0.09646586799534158  0.26157420100412304  0.1112071483869315  1.0000
  C   C6        1.0  0.4035361514053122  0.2615716042385897  0.3887930205233089  1.0000
  C   C7        1.0  0.9035351429852198  0.7384267023277855  0.8887915277450844  1.0000
  C   C8        1.0  0.5964648166624185  0.7384279920003606  0.6112078541156618  1.0000
  C   C9        1.0  0.09535189206905412  0.07755638640167462  0.11325590566192284  1.0000
  C   C10       1.0  0.4046486054155096  0.0775564031592069  0.38674534769847907  1.0000
  C   C11       1.0  0.9046460656692473  0.9224419027438556  0.886742209162399  1.0000
  C   C12       1.0  0.5953523411960903  0.9224392718001581  0.6132566261939016  1.0000
  C   C13       1.0  0.7593364364049294  0.0742859915255494  0.05398095694747699  1.0000
  C   C14       1.0  0.7406653262244801  0.074284736234361  0.4460195903543535  1.0000
  C   C15       1.0  0.2406660851046283  0.9257136047131734  0.9460188242784464  1.0000
  C   C16       1.0  0.25933409912966  0.9257148600047528  0.5539818280709312  1.0000
  C   C17       1.0  0.9294486192260649  0.9873520478762571  0.08411147785655258  1.0000
  C   C18       1.0  0.5705529869764874  0.9873534194379585  0.4158891139180695  1.0000
  C   C19       1.0  0.07055237029813098  0.012647548362551199  0.915888297528923  1.0000
  C   C20       1.0  0.42944643837742547  0.012648790987640301  0.584112304507279  1.0000
  C   C21       1.0  0.9361374750623668  0.7907416963125371  0.0845981443115846  1.0000
  C   C22       1.0  0.5638641540953914  0.7907417614595997  0.4154029875134454  1.0000
  C   C23       1.0  0.0638635359181947  0.20925920701936454  0.9154005318204309  1.0000
  C   C24       1.0  0.436135271258756  0.20925783477951396  0.5845984309118392  1.0000
  C   C25       1.0  0.4075757383196716  0.06680561281380899  0.7870134944270857  1.0000
  C   C26       1.0  0.09242461451933785  0.06680692928627249  0.7129860168339376  1.0000
  C   C27       1.0  0.5924252512046378  0.933192676331764  0.2129862809583613  1.0000
  C   C28       1.0  0.9075748430193898  0.9331939740458707  0.28701375271113244  1.0000
  C   C29       1.0  0.40945426017904646  0.8834996904623009  0.7853529844919789  1.0000
  C   C30       1.0  0.09054441003042508  0.8834983934036698  0.7146471103340346  1.0000
  C   C31       1.0  0.5905451866312249  0.11650382705639827  0.21464733467990266  1.0000
  C   C32       1.0  0.9094550260518375  0.11650250992861536  0.2853537584645308  1.0000
  C   C33       1.0  0.24999858739154487  0.7953454059821041  0.7499994927191833  1.0000
  C   C34       1.0  0.7499993381618282  0.20465549735012437  0.25000027098544547  1.0000
  C   C35       1.0  0.2500001254633446  0.5990500642288764  0.7500000434058902  1.0000
  C   C36       1.0  0.7499993213471542  0.4009508391033378  0.2500002757659274  1.0000
  N   N1        1.0  0.9266609271279835  0.34088464377862954  0.08078029202855667  1.0000
  N   N2        1.0  0.5733408005558259  0.3408847087730393  0.4192197186317798  1.0000
  N   N3        1.0  0.07333855186744388  0.6591136453668867  0.9192183782629539  1.0000
  N   N4        1.0  0.42666016751179103  0.6591161945591535  0.5807811560072266  1.0000
  N   N5        1.0  0.2500001640101175  0.149053152641855  0.7500000324468914  1.0000
  N   N6        1.0  0.7500008147857428  0.850947750690267  0.25000029256536743  1.0000
  O   O1        1.0  0.6102442517952865  0.35579205419205107  0.026377721137258392  1.0000
  O   O2        1.0  0.8897544093639737  0.3557907881088909  0.473622278568257  1.0000
  O   O3        1.0  0.3897551950153185  0.6442075420469208  0.9736225980345234  1.0000
  O   O4        1.0  0.1102450374466315  0.644208808130081  0.526378040603525  1.0000
  O   O5        1.0  0.24338257128740537  0.358303016383303  0.134800519395057  1.0000
  O   O6        1.0  0.2566194315414235  0.35830304537146423  0.3651996542266217  1.0000
  O   O7        1.0  0.7566184289650266  0.6416965798554344  0.8651987063636779  1.0000
  O   O8        1.0  0.7433815472544297  0.6416978579606577  0.6348006707856368  1.0000
  O   O9        1.0  0.10601767119412389  0.7143408406327153  0.09602052871672838  1.0000
  O   O10       1.0  0.3939858026238241  0.7143382489421201  0.40397966808686886  1.0000
  O   O11       1.0  0.893983329058308  0.28565875560602183  0.9039786970420064  1.0000
  O   O12       1.0  0.6060151654439068  0.28566134729683057  0.5960212065521018  1.0000
  O   O13       1.0  0.7709376681105126  0.7068603029799688  0.07241488115197818  1.0000
  O   O14       1.0  0.7290639861460518  0.7068603514111442  0.4275856969606905  1.0000
  O   O15       1.0  0.22906026817132394  0.29313798616571046  0.927584332925839  1.0000
  O   O16       1.0  0.27093391795085614  0.2931405519212262  0.5724151659974339  1.0000
  O   O17       1.0  0.5400368994881077  0.16234497560356692  0.8213697650313632  1.0000
  O   O18       1.0  0.9599631481257161  0.1623462389960295  0.6786301383969044  1.0000
  O   O19       1.0  0.45996410076433136  0.8376546206351706  0.17862946072736455  1.0000
  O   O20       1.0  0.04003783067013699  0.8376546643360921  0.3213701866153542  1.0000
  O   O21       1.0  0.35572942415083014  0.5185030572767673  0.7982395928461158  1.0000
  O   O22       1.0  0.14426931931794226  0.5185043646122479  0.7017599345753139  1.0000
  O   O23       1.0  0.6442700333880111  0.4814965389621335  0.20176017669892585  1.0000
  O   O24       1.0  0.8557316594778042  0.4814978458131165  0.2982403904369803  1.0000
