data_image0
_chemical_formula_structural       Hg4H36C44N12Cl8
_chemical_formula_sum              "Hg4 H36 C44 N12 Cl8"
_cell_length_a       7.507182684
_cell_length_b       12.626049575715662
_cell_length_c       13.1057
_cell_angle_alpha    90.0
_cell_angle_beta     90.0
_cell_angle_gamma    96.06705012006047

_space_group_name_H-M_alt    "P 1"
_space_group_IT_number       1

loop_
  _space_group_symop_operation_xyz
  'x, y, z'

loop_
  _atom_site_type_symbol
  _atom_site_label
  _atom_site_symmetry_multiplicity
  _atom_site_fract_x
  _atom_site_fract_y
  _atom_site_fract_z
  _atom_site_occupancy
  Hg  Hg1       1.0  0.7425567206595363  0.7497620718193758  0.8497249288477561  1.0000
  Hg  Hg2       1.0  0.7574430690279214  0.7502375670989068  0.34972569187452507  1.0000
  Hg  Hg3       1.0  0.2574408246486186  0.2502371564764729  0.1502750711522438  1.0000
  Hg  Hg4       1.0  0.24255742355779125  0.2497632541459609  0.6502750711522436  1.0000
  H   H1        1.0  0.619721068877098  0.6528852848190638  0.08264800811860337  1.0000
  H   H2        1.0  0.88027857922922  0.8471135576247164  0.5826480081186034  1.0000
  H   H3        1.0  0.3802778084886924  0.34711394347679203  0.9173519918813966  1.0000
  H   H4        1.0  0.11972191335650001  0.1528872636201442  0.4173519918813965  1.0000
  H   H5        1.0  0.6156870107377443  0.48963429493898053  0.1873551202911727  1.0000
  H   H6        1.0  0.8843117872585894  0.0103637262599321  0.6873551202911725  1.0000
  H   H7        1.0  0.3843105345704103  0.5103649333568683  0.8126448797088272  1.0000
  H   H8        1.0  0.1156873732695018  0.9896370949849285  0.3126441166820513  1.0000
  H   H9        1.0  0.7482115119013244  0.3306022305122411  0.11486070946229177  1.0000
  H   H10       1.0  0.7517889013149387  0.16939738363568324  0.6148614724890676  1.0000
  H   H11       1.0  0.25178750704561287  0.6693977942581101  0.8851392905377081  1.0000
  H   H12       1.0  0.2482102592131455  0.8306034376091775  0.3851377644841562  1.0000
  H   H13       1.0  0.8642222422190573  0.34186039764136933  0.9328200706562767  1.0000
  H   H14       1.0  0.6357783125783528  0.1581400129810646  0.4328208336830528  1.0000
  H   H15       1.0  0.1357795824242984  0.6581404236034986  0.0671806923704921  1.0000
  H   H16       1.0  0.3642208479497313  0.841860808263796  0.5671784032901712  1.0000
  H   H17       1.0  0.9252101090864429  0.4386153240424093  0.7809769794822115  1.0000
  H   H18       1.0  0.574791636187449  0.061384290105515  0.2809769794822117  1.0000
  H   H19       1.0  0.0747915739757659  0.5613847007279489  0.21902378354456428  1.0000
  H   H20       1.0  0.4252045770630701  0.9386149381903337  0.7190230205177882  1.0000
  H   H21       1.0  0.1919183386200061  0.5419403686357498  0.6975468689196305  1.0000
  H   H22       1.0  0.30808699524111927  0.9580584738080304  0.1975491579999513  1.0000
  H   H23       1.0  0.8080845349186846  0.4580588596601061  0.3024508420000487  1.0000
  H   H24       1.0  0.691913355763454  0.0419415509623278  0.8024508420000485  1.0000
  H   H25       1.0  0.3191168564050885  0.5758956697357647  0.522272751550851  1.0000
  H   H26       1.0  0.1808837155500882  0.9241063586060321  0.0222765666847238  1.0000
  H   H27       1.0  0.6808849682382601  0.424105151509096  0.477724959368821  1.0000
  H   H28       1.0  0.8191141129203601  0.0758944626388285  0.977724196342052  1.0000
  H   H29       1.0  0.13630251317960781  0.6601005473604644  0.391811959681668  1.0000
  H   H30       1.0  0.3636908321628098  0.8398982950833158  0.8918142487619889  1.0000
  H   H31       1.0  0.863697979406112  0.3399002738843961  0.6081865142647871  1.0000
  H   H32       1.0  0.6363025753912908  0.16010013673803772  0.1081865142647871  1.0000
  H   H33       1.0  0.7127726328597248  0.6713682721836491  0.5954287065933173  1.0000
  H   H34       1.0  0.7872296793618574  0.8286305702601311  0.09542641751298928  1.0000
  H   H35       1.0  0.28723332953767783  0.3286333455357209  0.40457281946023466  1.0000
  H   H36       1.0  0.212766109145214  0.1713662686122106  0.9045728194602345  1.0000
  C   C1        1.0  0.674698988719733  0.5829771245603155  0.05216661452650578  1.0000
  C   C2        1.0  0.8252991857478023  0.9170209214089554  0.5521673775532818  1.0000
  C   C3        1.0  0.32530136228484  0.4170229002100427  0.9478333854734939  1.0000
  C   C4        1.0  0.1746983595603524  0.0829783068868934  0.44783262244671806  1.0000
  C   C5        1.0  0.6738410498884305  0.4906856412856726  0.11104786466957248  1.0000
  C   C6        1.0  0.8261576065267562  0.0093115834387376  0.6110486276963485  1.0000
  C   C7        1.0  0.3261578274773598  0.5093135870101833  0.8889521353304273  1.0000
  C   C8        1.0  0.17384141242018106  0.9906884413316206  0.3889506092768826  1.0000
  C   C9        1.0  0.7447441136488778  0.4026752084757632  0.06958117460341379  1.0000
  C   C10       1.0  0.7552560164050846  0.09732281272315653  0.5695819376301898  1.0000
  C   C11       1.0  0.2552562373556881  0.597324816294595  0.930418825396586  1.0000
  C   C12       1.0  0.24474300254185272  0.9026772120472017  0.43041806236981006  1.0000
  C   C13       1.0  0.809132656210423  0.40874991952590994  0.9697475144402785  1.0000
  C   C14       1.0  0.6908690890634688  0.09124969462201452  0.4697475144402787  1.0000
  C   C15       1.0  0.1908691684329256  0.5912509017189507  0.030253248586490093  1.0000
  C   C16       1.0  0.3091314035222511  0.9087511266228461  0.5302517225329453  1.0000
  C   C17       1.0  0.8038782418102599  0.5038465860073984  0.9153459944909483  1.0000
  C   C18       1.0  0.6961227383536865  0.9961522564363748  0.4153459944909485  1.0000
  C   C19       1.0  0.1961234412519417  0.4961534387629599  0.08465400550905137  1.0000
  C   C20       1.0  0.3038762805932436  0.0038477683339764  0.5846532424822755  1.0000
  C   C21       1.0  0.8718618046864747  0.5106620183472614  0.8104855139366833  1.0000
  C   C22       1.0  0.6281406491162542  0.9893376205710211  0.3104847509099073  1.0000
  C   C23       1.0  0.1281413520145094  0.4893388028976062  0.18951524909009265  1.0000
  C   C24       1.0  0.3718570377730473  0.01066240419933  0.6895144860633167  1.0000
  C   C25       1.0  0.9426619525563638  0.6050808850249396  0.6596709828547914  1.0000
  C   C26       1.0  0.5573416917228471  0.8949179574188406  0.1596709828547915  1.0000
  C   C27       1.0  0.0573423946211022  0.39491913974541865  0.3403297801719845  1.0000
  C   C28       1.0  0.44265571200416093  0.1050804744025058  0.8403290171452082  1.0000
  C   C29       1.0  0.1144116414755629  0.5766754182762241  0.6385023310467943  1.0000
  C   C30       1.0  0.3855926434902203  0.9233250171165609  0.1385038571003463  1.0000
  C   C31       1.0  0.885592847283057  0.4233254029686364  0.36149690592642963  1.0000
  C   C32       1.0  0.6144063754567171  0.0766750076537974  0.8614961428996537  1.0000
  C   C33       1.0  0.185695250206436  0.5959182423186462  0.5416009827784832  1.0000
  C   C34       1.0  0.3143066538063764  0.9040837860231505  0.0416032718588113  1.0000
  C   C35       1.0  0.8143077649134014  0.404081782451712  0.45839825419474056  1.0000
  C   C36       1.0  0.6856913162452258  0.09591783169621242  0.9583974911679645  1.0000
  C   C37       1.0  0.08441293607857153  0.6423973085363386  0.468425189039884  1.0000
  C   C38       1.0  0.41558602065667577  0.8576031268564464  0.9684259520666598  1.0000
  C   C39       1.0  0.9155903622035596  0.3576043091830243  0.5315748109601159  1.0000
  C   C40       1.0  0.5844116662326259  0.1423968979139119  0.031574047933339996  1.0000
  C   C41       1.0  0.8482188608104337  0.6505882523464521  0.5813066070488446  1.0000
  C   C42       1.0  0.6517822609346667  0.8494113865718305  0.0813058440220686  1.0000
  C   C43       1.0  0.151785769529333  0.3494133653729179  0.4186941559779314  1.0000
  C   C44       1.0  0.3482154259546348  0.1505886381985206  0.9186941559779312  1.0000
  N   N1        1.0  0.7395255451336026  0.5899797284088635  0.9571400230434077  1.0000
  N   N2        1.0  0.7604755766114977  0.9100199105094191  0.45714078607018377  1.0000
  N   N3        1.0  0.2604748058709704  0.41002029636148773  0.042859213929816085  1.0000
  N   N4        1.0  0.23952344233543954  0.0899801142609391  0.54285845090304  1.0000
  N   N5        1.0  0.8660698888122482  0.5952938063066711  0.7568790678864941  1.0000
  N   N6        1.0  0.6339337554669698  0.9047050361371023  0.25687830485971824  1.0000
  N   N7        1.0  0.13393312630758916  0.40470621846368005  0.24312245816705763  1.0000
  N   N8        1.0  0.3660637898411849  0.0952941921587467  0.7431224581670575  1.0000
  N   N9        1.0  0.918812186269257  0.6687279591993517  0.4883371357500933  1.0000
  N   N10       1.0  0.5811859881982783  0.8312700867699192  0.9883371357500932  1.0000
  N   N11       1.0  0.08119111201287411  0.3312736585200184  0.5116628642499066  1.0000
  N   N12       1.0  0.41880994188994697  0.16872754857691774  0.011663627276682596  1.0000
  Cl  Cl1       1.0  0.0041416819438708985  0.8849038834666345  0.8319456419725739  1.0000
  Cl  Cl2       1.0  0.4958599389066478  0.6150965519261575  0.33194487894580493  1.0000
  Cl  Cl3       1.0  0.9958576201653672  0.1150977342527355  0.1680566471077469  1.0000
  Cl  Cl4       1.0  0.5041427930508959  0.384901879895189  0.6680581731612988  1.0000
  Cl  Cl5       1.0  0.4845078664192854  0.7436324040283822  0.7251241826075655  1.0000
  Cl  Cl6       1.0  0.015490807153668096  0.7563664384153981  0.2251241826075656  1.0000
  Cl  Cl7       1.0  0.515491010946505  0.2563668242674666  0.2748742913388824  1.0000
  Cl  Cl8       1.0  0.9845067381544866  0.24363278988045783  0.7748742913388823  1.0000
