data_image0
_chemical_formula_structural       U2H44C42N4O12
_chemical_formula_sum              "U2 H44 C42 N4 O12"
_cell_length_a       8.87365401122667
_cell_length_b       10.175174784386044
_cell_length_c       12.312999654260585
_cell_angle_alpha    74.62939368745315
_cell_angle_beta     69.65604886035082
_cell_angle_gamma    74.83116923709663

_space_group_name_H-M_alt    "P 1"
_space_group_IT_number       1

loop_
  _space_group_symop_operation_xyz
  'x, y, z'

loop_
  _atom_site_type_symbol
  _atom_site_label
  _atom_site_symmetry_multiplicity
  _atom_site_fract_x
  _atom_site_fract_y
  _atom_site_fract_z
  _atom_site_occupancy
  U   U1        1.0  0.23360258772775216  0.11970227815393744  0.6667925317278287  1.0000
  U   U2        1.0  0.7663928675633828  0.8802994987906203  0.3332087239346535  1.0000
  H   H1        1.0  0.0718520882901785  0.0623145353405121  0.3516044003221238  1.0000
  H   H2        1.0  0.9281471988880841  0.9376861842081823  0.6483953149308163  1.0000
  H   H3        1.0  0.2703891857742633  0.9639149800602383  0.3291004269695107  1.0000
  H   H4        1.0  0.7296096572285293  0.0360878256321584  0.6709021869354999  1.0000
  H   H5        1.0  0.273313925919382  0.12675538709837042  0.14846129872694286  1.0000
  H   H6        1.0  0.7266879907566093  0.8732442861846154  0.8515387998747809  1.0000
  H   H7        1.0  0.38267122339536297  0.18631675972932982  0.21539014115624155  1.0000
  H   H8        1.0  0.6173290448363389  0.8136849972086254  0.7846107225762607  1.0000
  H   H9        1.0  0.02046102454869471  0.2965374777975356  0.22992957022832872  1.0000
  H   H10       1.0  0.979539465394858  0.7034632333447989  0.7700690327222117  1.0000
  H   H11       1.0  0.1362115089820293  0.3647393384693132  0.28523965369440407  1.0000
  H   H12       1.0  0.8637889809615231  0.6352613726730142  0.7147589492561363  1.0000
  H   H13       1.0  0.32981760906461943  0.41309158159881326  0.07472549087697185  1.0000
  H   H14       1.0  0.6701831037184293  0.586908091919213  0.9252732856593792  1.0000
  H   H15       1.0  0.1966139373955613  0.36119454028177245  0.02452620065835726  1.0000
  H   H16       1.0  0.8033857950858164  0.6388041012945463  0.9754730503102775  1.0000
  H   H17       1.0  0.09612223645200403  0.5975050806067513  0.16281253348344643  1.0000
  H   H18       1.0  0.9038794570085997  0.4024956275767622  0.8371865800765402  1.0000
  H   H19       1.0  0.9705696073514009  0.5528784103991881  0.10113933817525832  1.0000
  H   H20       1.0  0.029431105431655218  0.44712126311884504  0.8988594383610928  1.0000
  H   H21       1.0  0.2981719178705263  0.642308812373507  0.9526944674232279  1.0000
  H   H22       1.0  0.7018302208931929  0.35768981783762394  0.04730418185246062  1.0000
  H   H23       1.0  0.14951096439703088  0.6223135969175929  0.8980376394161733  1.0000
  H   H24       1.0  0.8504897483860246  0.37768607660043335  0.1019611371201776  1.0000
  H   H25       1.0  0.9504292450635037  0.8166070255328394  0.9908841616819679  1.0000
  H   H26       1.0  0.049571691686694036  0.1833916185322124  0.00911722280796569  1.0000
  H   H27       1.0  0.09305902772514682  0.8332944798723291  0.053797264592766625  1.0000
  H   H28       1.0  0.9069445377710111  0.1667031124794605  0.9462028803341053  1.0000
  H   H29       1.0  0.44671338099391283  0.0343576882956853  0.8679971743565315  1.0000
  H   H30       1.0  0.5532849258826787  0.9656419993113019  0.13200301532869213  1.0000
  H   H31       1.0  0.6318951534528807  0.11032045131594968  0.9444490466296924  1.0000
  H   H32       1.0  0.36810435656488494  0.889679230608451  0.05555084220905819  1.0000
  H   H33       1.0  0.6592841902779655  0.3604257476841041  0.8868792596943249  1.0000
  H   H34       1.0  0.34071531973980046  0.639573934240289  0.11312062914442576  1.0000
  H   H35       1.0  0.4391750079430423  0.7541349813942944  0.6344102217156473  1.0000
  H   H36       1.0  0.560825928431278  0.24586365994697704  0.3655903513183674  1.0000
  H   H37       1.0  0.5869468760511225  0.598096507779914  0.7714717210604503  1.0000
  H   H38       1.0  0.4130516540408493  0.4019021449265452  0.22852945366651053  1.0000
  H   H39       1.0  0.25924906803552256  0.7874125971026518  0.5090487213816172  1.0000
  H   H40       1.0  0.740751422283907  0.21258811676345593  0.49095069302484245  1.0000
  H   H41       1.0  0.12480025562187798  0.6761740088370302  0.415282790362589  1.0000
  H   H42       1.0  0.8751990319322687  0.32382671343544434  0.5847177363462704  1.0000
  H   H43       1.0  0.13838813778780687  0.4194839942401173  0.4724559310958865  1.0000
  H   H44       1.0  0.8616085210203795  0.5805177797456196  0.5275458351760418  1.0000
  C   C1        1.0  0.2073715694461953  0.09522781637595298  0.44883941738794414  1.0000
  C   C2        1.0  0.7926248665224875  0.9047749952340849  0.5511621752981666  1.0000
  C   C3        1.0  0.1996606229422611  0.0692396334660117  0.33655259229386997  1.0000
  C   C4        1.0  0.8003382193087631  0.9307631667788385  0.6634483986992946  1.0000
  C   C5        1.0  0.2595402140411808  0.1726449924276778  0.22386474110575694  1.0000
  C   C6        1.0  0.7404602770300174  0.8273557268859761  0.7761362962125556  1.0000
  C   C7        1.0  0.144581494035549  0.31334788626651294  0.21446247460973913  1.0000
  C   C8        1.0  0.8554177931427133  0.6866528332821816  0.7855372406432009  1.0000
  C   C9        1.0  0.19972740055422386  0.4079247183051039  0.09484311720527216  1.0000
  C   C10       1.0  0.8002721090876577  0.5920749608955163  0.9051559601775522  1.0000
  C   C11       1.0  0.09933916361770667  0.5549186881096729  0.08826926883117633  1.0000
  C   C12       1.0  0.9006627523065162  0.4450809797257662  0.9117292068587018  1.0000
  C   C13       1.0  0.1649570597512097  0.6524254855664324  0.9724003970940198  1.0000
  C   C14       1.0  0.8350438762472266  0.3475731530510728  0.027599364484068207  1.0000
  C   C15       1.0  0.08233728796312083  0.8036374044182538  0.9777583517835988  1.0000
  C   C16       1.0  0.9176648515523668  0.19636123124043084  0.022241920403935415  1.0000
  C   C17       1.0  0.14939278348749252  0.9042144172072636  0.8679526672056352  1.0000
  C   C18       1.0  0.8506081521350524  0.09578421868646099  0.1320462829165265  1.0000
  C   C19       1.0  0.4644896251777483  0.14130644052357164  0.8434076484378676  1.0000
  C   C20       1.0  0.5355098848400176  0.8586932414008217  0.15659224040088296  1.0000
  C   C21       1.0  0.566294061851849  0.18495429227779428  0.8868788483096989  1.0000
  C   C22       1.0  0.43370567100541285  0.8150443520222979  0.11312121411486226  1.0000
  C   C23       1.0  0.5817421464365256  0.32258847859097967  0.8549114090144553  1.0000
  C   C24       1.0  0.4182573635812404  0.6774112033334205  0.14508847982429518  1.0000
  C   C25       1.0  0.49851940222535523  0.4154315301637439  0.7778058945128874  1.0000
  C   C26       1.0  0.5014789050271206  0.5845681601670236  0.22219510662826278  1.0000
  C   C27       1.0  0.403007775422168  0.3605400430312429  0.7348496075727196  1.0000
  C   C28       1.0  0.5969903086149203  0.6394606822000455  0.2651504085267005  1.0000
  C   C29       1.0  0.32833171303955316  0.44850556798526503  0.6478749359881916  1.0000
  C   C30       1.0  0.6716677969782054  0.5514941139391353  0.35212495285055917  1.0000
  C   C31       1.0  0.3379751655540488  0.5917331328593107  0.6150734914951954  1.0000
  C   C32       1.0  0.6620255476048841  0.4082665433824957  0.3849260964970823  1.0000
  C   C33       1.0  0.4301868107370836  0.6448245718021115  0.6630940125693525  1.0000
  C   C34       1.0  0.5698139024218564  0.3551751044396951  0.33690557542292504  1.0000
  C   C35       1.0  0.5105176140062256  0.5588045665864456  0.7394601652640699  1.0000
  C   C36       1.0  0.4894833223680877  0.4411940747548328  0.2605404077699446  1.0000
  C   C37       1.0  0.25977173429098604  0.6760577560639263  0.5314832940737089  1.0000
  C   C38       1.0  0.7402287564043276  0.32394296052595456  0.46851693178867737  1.0000
  C   C39       1.0  0.184650349183741  0.6153910945209022  0.48143849559378527  1.0000
  C   C40       1.0  0.8153489383704057  0.38460962775157276  0.5185620311150742  1.0000
  C   C41       1.0  0.18869682493149045  0.47147971502905506  0.5148731790210376  1.0000
  C   C42       1.0  0.8113012594814818  0.5285210129260066  0.48512764853430196  1.0000
  N   N1        1.0  0.38412667682413837  0.22595167858118964  0.770006992083253  1.0000
  N   N2        1.0  0.6158728331936204  0.7740480033432037  0.22999289675549747  1.0000
  N   N3        1.0  0.25626950576376833  0.38948753386065954  0.5965121163414222  1.0000
  N   N4        1.0  0.7437285786492042  0.6105131940944091  0.40348871121391017  1.0000
  O   O1        1.0  0.02098070404842641  0.2038703881560266  0.7172288169144705  1.0000
  O   O2        1.0  0.9790242874284019  0.7961261608888677  0.28277120075173195  1.0000
  O   O3        1.0  0.4455474700098705  0.036689331779513196  0.6194592092494559  1.0000
  O   O4        1.0  0.5544560939827647  0.9633082496771838  0.38053768985371744  1.0000
  O   O5        1.0  0.24886746875466056  0.2036555509329219  0.4556125337964402  1.0000
  O   O6        1.0  0.7511301707310808  0.7963472577182955  0.5443895694991239  1.0000
  O   O7        1.0  0.1699885868139575  0.0045138124720765  0.543832688549699  1.0000
  O   O8        1.0  0.8300076263152291  0.9954900367622556  0.45616873055060114  1.0000
  O   O9        1.0  0.14668312331890826  0.8946538961829021  0.7674112939722233  1.0000
  O   O10       1.0  0.8533187933570828  0.10534577710008358  0.23258880462950052  1.0000
  O   O11       1.0  0.2086076696363861  0.0039378040170064  0.8738038289439413  1.0000
  O   O12       1.0  0.7913944698791018  0.9960608316416781  0.12619644324359292  1.0000
