data_image0
_chemical_formula_structural       Zn2H28C20S8N4O4
_chemical_formula_sum              "Zn2 H28 C20 S8 N4 O4"
_cell_length_a       7.172151531639423
_cell_length_b       7.685400252175403
_cell_length_c       16.205947382010287
_cell_angle_alpha    89.99987404928048
_cell_angle_beta     90.00003153220442
_cell_angle_gamma    117.86044418838408

_space_group_name_H-M_alt    "P 1"
_space_group_IT_number       1

loop_
  _space_group_symop_operation_xyz
  'x, y, z'

loop_
  _atom_site_type_symbol
  _atom_site_label
  _atom_site_symmetry_multiplicity
  _atom_site_fract_x
  _atom_site_fract_y
  _atom_site_fract_z
  _atom_site_occupancy
  Zn  Zn1       1.0  0.49999871786677363  1.124543104000026e-06  0.5000010663670267  1.0000
  Zn  Zn2       1.0  7.999021889000002e-07  3.3994633240000004e-07  0.9999989274307172  1.0000
  H   H1        1.0  0.4696648828071234  0.18717201377172196  0.20073367206094875  1.0000
  H   H2        1.0  0.03033299956802447  0.8128233786943043  0.70073368144665  1.0000
  H   H3        1.0  0.2174131599724944  0.18692461390600812  0.29936224796527716  1.0000
  H   H4        1.0  0.28258319507646235  0.8130702644091417  0.7993617005842142  1.0000
  H   H5        1.0  0.5303319092873977  0.8128226055475453  0.7992654694912034  1.0000
  H   H6        1.0  0.9696637925264966  0.1871712406249628  0.2992654601055024  1.0000
  H   H7        1.0  0.7825843685769057  0.8130714771742121  0.7006375106436098  1.0000
  H   H8        1.0  0.7174128605631791  0.1869228831491725  0.20063682391120355  1.0000
  H   H9        1.0  0.7032448318062519  0.40600707036696093  0.08677789047145272  1.0000
  H   H10       1.0  0.7967546816162923  0.5939893551792679  0.586778192689316  1.0000
  H   H11       1.0  0.2032421104778166  0.40600526413839333  0.4132215659202529  1.0000
  H   H12       1.0  0.29675409131468206  0.5939890212937159  0.9132206340227713  1.0000
  H   H13       1.0  0.8982332556471705  0.5464734820390191  0.1611085766328557  1.0000
  H   H14       1.0  0.6017654212695475  0.4535210846923832  0.6611089789630284  1.0000
  H   H15       1.0  0.14909623454499152  0.5465028441841967  0.33886915272106694  1.0000
  H   H16       1.0  0.3508986727564007  0.4534918278353999  0.8388683807683037  1.0000
  H   H17       1.0  0.1017649310184652  0.4535211378590986  0.8388899478620505  1.0000
  H   H18       1.0  0.39823063436884343  0.5464720628611133  0.3388913967046392  1.0000
  H   H19       1.0  0.8508998994337061  0.45349324631878574  0.6611306058876494  1.0000
  H   H20       1.0  0.6491002503641212  0.5465042638236639  0.16113076078333685  1.0000
  H   H21       1.0  0.2983187669123594  0.2438689484430442  0.5775786069648137  1.0000
  H   H22       1.0  0.20168180395888416  0.7561432723972744  0.07757608699589012  1.0000
  H   H23       1.0  0.44604672493985476  0.2441881741465721  0.9226099804984644  1.0000
  H   H24       1.0  0.053959226206281186  0.7558060664225438  0.4226154471599345  1.0000
  H   H25       1.0  0.7016763641917478  0.7561418562092401  0.4224260880954064  1.0000
  H   H26       1.0  0.7983194852089495  0.24386312045164973  0.922420586320982  1.0000
  H   H27       1.0  0.5539608006257879  0.7558167498243833  0.077387309877345  1.0000
  H   H28       1.0  0.9460479859948377  0.24418708573762168  0.5773892479109719  1.0000
  C   C1        1.0  0.6175393521007848  0.23471822904275544  0.356312351000888  1.0000
  C   C2        1.0  0.8824556148114623  0.7652767912622521  0.856312494638175  1.0000
  C   C3        1.0  0.11753912459612079  0.23471929866187927  0.1436878810277946  1.0000
  C   C4        1.0  0.382459571019325  0.7652778626147025  0.6436874076081693  1.0000
  C   C5        1.0  0.6405692236425294  0.2807450445629486  0.20820991127866514  1.0000
  C   C6        1.0  0.8594287317596783  0.7192507480899979  0.7082100975279318  1.0000
  C   C7        1.0  0.1405680603344308  0.2807438712276635  0.2917896610816372  1.0000
  C   C8        1.0  0.3594275684519914  0.7192495747563187  0.7917892302734943  1.0000
  C   C9        1.0  0.7282981675992417  0.4558879181762024  0.15111535877315427  1.0000
  C   C10       1.0  0.7717012592242869  0.5441081723558201  0.6511150900910752  1.0000
  C   C11       1.0  0.22829553287023427  0.45588644696344727  0.3488840514610772  1.0000
  C   C12       1.0  0.2717007555212803  0.5441081734828614  0.8488837827784794  1.0000
  C   C13       1.0  0.16421400593142013  0.13400452462029486  0.5434226692287967  1.0000
  C   C14       1.0  0.33581628860358154  0.8660226009564698  0.0434126618479951  1.0000
  C   C15       1.0  0.47002462442819143  0.13419624511173112  0.9566827172415133  1.0000
  C   C16       1.0  0.029965486079881132  0.8658331264605794  0.4566967018890652  1.0000
  C   C17       1.0  0.8358289322710493  0.8660210143782268  0.4565894305184416  1.0000
  C   C18       1.0  0.6642118891112077  0.13399851761545284  0.9565778408902548  1.0000
  C   C19       1.0  0.5299700835888858  0.8658248596032438  0.04330901960756251  1.0000
  C   C20       1.0  0.9700255082482057  0.13420563414729972  0.5433191001895141  1.0000
  S   S1        1.0  0.49335245341518436  0.987002594495799  0.343345098164626  1.0000
  S   S2        1.0  0.0066466315741849  0.012992055950768102  0.8433434701880032  1.0000
  S   S3        1.0  0.9933529496621532  0.9870025645245873  0.15665505430707335  1.0000
  S   S4        1.0  0.506649916960491  0.012992027126003305  0.656656511617854  1.0000
  S   S5        1.0  0.672850105618707  0.3452561823559109  0.45035555223100954  1.0000
  S   S6        1.0  0.8271483386453581  0.6547427641122425  0.9503570323179605  1.0000
  S   S7        1.0  0.17285066281421285  0.3452562704914899  0.049643343346979014  1.0000
  S   S8        1.0  0.32714963229782507  0.6547443240168037  0.5496423552035878  1.0000
  N   N1        1.0  0.1928737424977741  0.9998619556278431  0.5001017040392952  1.0000
  N   N2        1.0  0.30712851530379476  0.000131540345059  0.00010185126554060003  1.0000
  N   N3        1.0  0.8071244441670373  0.00013266426705630006  0.4998980545704371  1.0000
  N   N4        1.0  0.6928789319211359  0.9998704406748046  0.9998966732266227  1.0000
  O   O1        1.0  0.6801807012658259  0.3594018088308816  0.2920957451878934  1.0000
  O   O2        1.0  0.8198171412240498  0.6405935470130404  0.7920966212547216  1.0000
  O   O3        1.0  0.18018038732493116  0.359402544065567  0.20790375441158201  1.0000
  O   O4        1.0  0.31981674894410617  0.6405913393030644  0.7079033963651042  1.0000
