data_image0
_chemical_formula_structural       Al4H20C64O20F24
_chemical_formula_sum              "Al4 H20 C64 O20 F24"
_cell_length_a       6.691014137389975
_cell_length_b       22.833344915800645
_cell_length_c       26.069408859710386
_cell_angle_alpha    90.00080122481789
_cell_angle_beta     89.99451869858241
_cell_angle_gamma    89.99393861573517

_space_group_name_H-M_alt    "P 1"
_space_group_IT_number       1

loop_
  _space_group_symop_operation_xyz
  'x, y, z'

loop_
  _atom_site_type_symbol
  _atom_site_label
  _atom_site_symmetry_multiplicity
  _atom_site_fract_x
  _atom_site_fract_y
  _atom_site_fract_z
  _atom_site_occupancy
  Al  Al1       1.0  0.7202449357877542  0.7497650728068375  0.7499951916038227  1.0000
  Al  Al2       1.0  0.2797656400012229  0.25024287196310974  0.2500087282103395  1.0000
  Al  Al3       1.0  0.22023541978700217  0.7502197681031784  0.7500051147903195  1.0000
  Al  Al4       1.0  0.779775156765446  0.24978248317432863  0.2499942019191081  1.0000
  H   H1        1.0  0.6364090921997204  0.555501030382672  0.5679923848834676  1.0000
  H   H2        1.0  0.3636059949753232  0.4444210757959155  0.4320706077254642  1.0000
  H   H3        1.0  0.36343432063825537  0.4449437059422932  0.0683266544387635  1.0000
  H   H4        1.0  0.6365777557776653  0.5550169389997207  0.9316369881635893  1.0000
  H   H5        1.0  0.13659274138250768  0.945007641511914  0.9316298387063284  1.0000
  H   H6        1.0  0.8634193289580168  0.054996361535827994  0.0683667928170308  1.0000
  H   H7        1.0  0.8634308772753768  0.055189786605445997  0.43178815208970184  1.0000
  H   H8        1.0  0.13655578872766938  0.9448037058137471  0.5682115489845359  1.0000
  H   H9        1.0  0.3451866881257927  0.3756274215308579  0.3580602279798201  1.0000
  H   H10       1.0  0.6548298923327068  0.6242977502643682  0.6419985450795522  1.0000
  H   H11       1.0  0.6550082138213399  0.6239302672899923  0.8577176611772902  1.0000
  H   H12       1.0  0.3450307641069088  0.3760334431098044  0.142249816458488  1.0000
  H   H13       1.0  0.8450280269683219  0.12392617475478566  0.1422748136684504  1.0000
  H   H14       1.0  0.1550049648219556  0.876084397344094  0.857717214080225  1.0000
  H   H15       1.0  0.15494336145882673  0.8759263340709748  0.6421534478713795  1.0000
  H   H16       1.0  0.8450821625945226  0.12406628199334338  0.35784433396685245  1.0000
  H   H17       1.0  0.4686047618282743  0.6725469284533643  0.7499174290487431  1.0000
  H   H18       1.0  0.531417774409242  0.32745838884054007  0.2501141089461498  1.0000
  H   H19       1.0  0.9685536579742192  0.8274417916493915  0.7499955789389434  1.0000
  H   H20       1.0  0.0314808294318425  0.17256177307309875  0.24999184565390925  1.0000
  C   C1        1.0  0.4708972010095138  0.8191394204338065  0.6797046232545085  1.0000
  C   C2        1.0  0.5291178592102738  0.18086326876785108  0.32029584408219597  1.0000
  C   C3        1.0  0.5291015740064965  0.18085472520087356  0.17971536493529783  1.0000
  C   C4        1.0  0.47091946488496456  0.8191466500903811  0.820286636568298  1.0000
  C   C5        1.0  0.9709077596304925  0.6808483751583835  0.8202895532916659  1.0000
  C   C6        1.0  0.0291058063484257  0.3191503723853869  0.17970592740069694  1.0000
  C   C7        1.0  0.029020459577573404  0.3191773113263068  0.3202959997010026  1.0000
  C   C8        1.0  0.9709527511340141  0.6808358892831092  0.6797056198015385  1.0000
  C   C9        1.0  0.9682512993864448  0.640982599044129  0.6342401004143526  1.0000
  C   C10       1.0  0.031689028433618205  0.35903804703432474  0.3657519303965487  1.0000
  C   C11       1.0  0.0318734688063387  0.3590273485172302  0.1342549219814089  1.0000
  C   C12       1.0  0.9681266468887058  0.6409674575289583  0.8657378740079624  1.0000
  C   C13       1.0  0.46811202641274  0.85903021802725  0.8657354591483966  1.0000
  C   C14       1.0  0.5319120024874024  0.1409676535949131  0.1342673094344278  1.0000
  C   C15       1.0  0.5318725270146558  0.1409963065992414  0.3657531889591539  1.0000
  C   C16       1.0  0.4681544898562677  0.8590046306397097  0.634246510799038  1.0000
  C   C17       1.0  0.1380413761982666  0.6290808563766176  0.604575496364923  1.0000
  C   C18       1.0  0.861852606057127  0.3709870890454851  0.395388150279075  1.0000
  C   C19       1.0  0.8622776709774769  0.370789422388313  0.1044897099888971  1.0000
  C   C20       1.0  0.137704506864921  0.6292285957540569  0.8955199646444072  1.0000
  C   C21       1.0  0.6376941910353721  0.8707629756921303  0.8955180701250856  1.0000
  C   C22       1.0  0.3623134004834511  0.12922788891261658  0.10449198722383814  1.0000
  C   C23       1.0  0.3621798377274104  0.12919256113760716  0.3954809451456073  1.0000
  C   C24       1.0  0.6378397059041561  0.8708114418947801  0.6045202892283116  1.0000
  C   C25       1.0  0.12796143668398233  0.5909133891529021  0.5627735196024873  1.0000
  C   C26       1.0  0.8719385251488135  0.40915105262197204  0.4371947299360316  1.0000
  C   C27       1.0  0.8723843935306732  0.40899381765667175  0.0627124988003018  1.0000
  C   C28       1.0  0.1275723757527345  0.5910333979249315  0.93730369773526  1.0000
  C   C29       1.0  0.6275709048481061  0.9089630676572535  0.9373011481898532  1.0000
  C   C30       1.0  0.37241277572338294  0.09102297975228882  0.06271351303465171  1.0000
  C   C31       1.0  0.37219712188782234  0.09097700146349297  0.4372517406389208  1.0000
  C   C32       1.0  0.6278044876275574  0.909023936031289  0.5627468091807515  1.0000
  C   C33       1.0  0.9499584777469822  0.5624946381000696  0.5495754522082309  1.0000
  C   C34       1.0  0.049981850082723205  0.43752863578431794  0.4504215652942136  1.0000
  C   C35       1.0  0.0501792327128072  0.4376097203452216  0.049655662675149904  1.0000
  C   C36       1.0  0.9497984625201427  0.5623986626734377  0.9503440387160184  1.0000
  C   C37       1.0  0.44980498443302963  0.9376127304056964  0.9503372513784785  1.0000
  C   C38       1.0  0.5501846723775969  0.06237901030300457  0.0496728065615457  1.0000
  C   C39       1.0  0.5500425492084275  0.06242011379241319  0.4503619892711158  1.0000
  C   C40       1.0  0.4499575661792434  0.9375790718944258  0.5496365605951113  1.0000
  C   C41       1.0  0.7778415853292914  0.5758120630262766  0.5785369095567249  1.0000
  C   C42       1.0  0.2221301436146419  0.4241608460094992  0.42149041055638053  1.0000
  C   C43       1.0  0.2221240826267348  0.4244577838888047  0.07873618713384899  1.0000
  C   C44       1.0  0.7778760348476298  0.575521693493229  0.9212420323612066  1.0000
  C   C45       1.0  0.27788875905144284  0.9244956284423294  0.9212367405618452  1.0000
  C   C46       1.0  0.7221218183032219  0.07550487105433487  0.0787656448758653  1.0000
  C   C47       1.0  0.7220724579843038  0.07562617902247837  0.4213269242824111  1.0000
  C   C48       1.0  0.2779321412518172  0.9243743205435706  0.5786758449432555  1.0000
  C   C49       1.0  0.7878212932190111  0.6140548509221373  0.6197101834868022  1.0000
  C   C50       1.0  0.2121564136979046  0.38591805802808904  0.3803156020642646  1.0000
  C   C51       1.0  0.21214583278136703  0.38615834187525166  0.11987816666491113  1.0000
  C   C52       1.0  0.7878692302206289  0.6138202594240524  0.8800992851546285  1.0000
  C   C53       1.0  0.28787166452197244  0.8861904375786548  0.8800969496701967  1.0000
  C   C54       1.0  0.7121523626928479  0.11381312743359467  0.1199031337815413  1.0000
  C   C55       1.0  0.7121478978454547  0.11391138146525037  0.3801798453940393  1.0000
  C   C56       1.0  0.28787314182559953  0.8860864901727438  0.6198217725130066  1.0000
  C   C57       1.0  0.9363728013272661  0.5217384335096538  0.5065576023147926  1.0000
  C   C58       1.0  0.06359741769679061  0.478283526192186  0.4934397977940677  1.0000
  C   C59       1.0  0.06383323614947051  0.4783699713089504  0.0066358861749336  1.0000
  C   C60       1.0  0.9361250294000244  0.5216423535538722  0.9933661174091741  1.0000
  C   C61       1.0  0.43611527430822855  0.9783679131460019  0.9933586834023419  1.0000
  C   C62       1.0  0.5638639224148106  0.0216168203843239  0.006651758462723502  1.0000
  C   C63       1.0  0.5637192281261392  0.021677526602779596  0.49339160754453104  1.0000
  C   C64       1.0  0.43627640344216456  0.9783216591105056  0.5066054081037166  1.0000
  O   O1        1.0  0.3010092134456528  0.80446180222404  0.802435257705966  1.0000
  O   O2        1.0  0.6990222853652385  0.1955448283570077  0.19756175677368765  1.0000
  O   O3        1.0  0.6990534799943048  0.195590535117681  0.30248013031169313  1.0000
  O   O4        1.0  0.3009705484821338  0.8044064605224788  0.6975176515821744  1.0000
  O   O5        1.0  0.8010430441769215  0.6955747390000369  0.69750948475933  1.0000
  O   O6        1.0  0.1989211995751958  0.30443846173769623  0.30249443658626524  1.0000
  O   O7        1.0  0.1989677013757287  0.30447114813161136  0.19756647082447648  1.0000
  O   O8        1.0  0.8010413804473658  0.6955306651735923  0.8024305443853025  1.0000
  O   O9        1.0  0.6399117826193149  0.8040721762546281  0.6975655775637011  1.0000
  O   O10       1.0  0.3601062653899946  0.19593927212090984  0.3024410271493991  1.0000
  O   O11       1.0  0.36007505038778487  0.1959850983010298  0.19753262712216477  1.0000
  O   O12       1.0  0.6399579455720429  0.8040158389762836  0.8024743606752409  1.0000
  O   O13       1.0  0.1399905117308222  0.6959822674235454  0.8024841227921089  1.0000
  O   O14       1.0  0.8600245483983996  0.30401998380058604  0.1975148101785109  1.0000
  O   O15       1.0  0.8599899759471086  0.30409284444466766  0.3024266648662106  1.0000
  O   O16       1.0  0.13998772205483329  0.695905465629444  0.6975761052409268  1.0000
  O   O17       1.0  0.47001756389374083  0.7149038273354122  0.7499945467958542  1.0000
  O   O18       1.0  0.5299900230381737  0.2851019276542885  0.2500070715652143  1.0000
  O   O19       1.0  0.9699969342928867  0.7850848632007653  0.7499900988496934  1.0000
  O   O20       1.0  0.0300241037834112  0.21491913980484864  0.2500103682923509  1.0000
  F   F1        1.0  0.2319254747079498  0.4714241790135033  0.5224487188742728  1.0000
  F   F2        1.0  0.7680028970108097  0.5286004089260813  0.4775525185282633  1.0000
  F   F3        1.0  0.7672519050021832  0.5283049710047221  0.022217706813918905  1.0000
  F   F4        1.0  0.23273624882380517  0.4717196163433924  0.977786980944842  1.0000
  F   F5        1.0  0.7328340433661182  0.0282426626846615  0.9778247352746661  1.0000
  F   F6        1.0  0.26716906811157776  0.9717355013091759  0.022189925299215908  1.0000
  F   F7        1.0  0.26764669136476726  0.971556638078958  0.4776850864941765  1.0000
  F   F8        1.0  0.7323414671356544  0.02844386157688919  0.5223115458104105  1.0000
  F   F9        1.0  0.7050197257317875  0.4157462335655137  0.46601714637035496  1.0000
  F   F10       1.0  0.2948099810932021  0.5843541210126588  0.533926939275773  1.0000
  F   F11       1.0  0.2941561801936814  0.5846672072143659  0.9662670295318705  1.0000
  F   F12       1.0  0.7057602346536881  0.4153740235577033  0.03376105968360581  1.0000
  F   F13       1.0  0.20582151752704186  0.08466611136392287  0.0337566838090098  1.0000
  F   F14       1.0  0.7941591767719488  0.9153103011052224  0.9662621970044825  1.0000
  F   F15       1.0  0.7945288932494278  0.915469333395549  0.533843864148352  1.0000
  F   F16       1.0  0.20546673659468695  0.0845381735083777  0.46615506946899654  1.0000
  F   F17       1.0  0.3164562786502714  0.654890443865419  0.6133681019407576  1.0000
  F   F18       1.0  0.6833898627999987  0.34522611474119447  0.38656409185657753  1.0000
  F   F19       1.0  0.6840832212188347  0.34479394615254927  0.11313477653621362  1.0000
  F   F20       1.0  0.3158855051038501  0.655231517509449  0.8868837211517049  1.0000
  F   F21       1.0  0.8158830011326045  0.8447467995699821  0.8868840513558639  1.0000
  F   F22       1.0  0.18413505235969296  0.15524494087783575  0.11312907438117753  1.0000
  F   F23       1.0  0.18395297701093227  0.1551712681889086  0.386797349560112  1.0000
  F   F24       1.0  0.8160844987311792  0.8448467493453434  0.613211172480547  1.0000
