data_image0
_chemical_formula_structural       Cu4H36C44N16
_chemical_formula_sum              "Cu4 H36 C44 N16"
_cell_length_a       9.236883957226533
_cell_length_b       11.21999226404374
_cell_length_c       14.469237141182536
_cell_angle_alpha    89.99988848976678
_cell_angle_beta     90.00058715849252
_cell_angle_gamma    101.57770755997709

_space_group_name_H-M_alt    "P 1"
_space_group_IT_number       1

loop_
  _space_group_symop_operation_xyz
  'x, y, z'

loop_
  _atom_site_type_symbol
  _atom_site_label
  _atom_site_symmetry_multiplicity
  _atom_site_fract_x
  _atom_site_fract_y
  _atom_site_fract_z
  _atom_site_occupancy
  Cu  Cu1       1.0  0.45806327942266734  0.992979564812295  0.9165046309567799  1.0000
  Cu  Cu2       1.0  0.5419346050139922  0.5070220038942921  0.4165044342364297  1.0000
  Cu  Cu3       1.0  0.5419402518054498  0.007020945031577202  0.0834961845779745  1.0000
  Cu  Cu4       1.0  0.45806090893593426  0.4929766405236722  0.5834949990298951  1.0000
  H   H1        1.0  0.37201688815830647  0.7281792605717214  0.634407403369444  1.0000
  H   H2        1.0  0.627982654958231  0.7718206088871042  0.1344129682282755  1.0000
  H   H3        1.0  0.6279855588933998  0.2718212427120505  0.3655947944045721  1.0000
  H   H4        1.0  0.37202347260105734  0.2281817335834049  0.8655878473139538  1.0000
  H   H5        1.0  0.4178406279528488  0.8834695348677287  0.7586185656771889  1.0000
  H   H6        1.0  0.5821541415832527  0.6165293498570322  0.2586219516926604  1.0000
  H   H7        1.0  0.5821633312265461  0.11653279448308501  0.2413815587363715  1.0000
  H   H8        1.0  0.4178459230831492  0.3834702305541313  0.7413760993453664  1.0000
  H   H9        1.0  0.7275764674323426  0.6825864848059312  0.877021962436352  1.0000
  H   H10       1.0  0.27241624779883017  0.8174141592316033  0.3770147292235606  1.0000
  H   H11       1.0  0.2724197027914244  0.3174103466642891  0.12298299980485439  1.0000
  H   H12       1.0  0.7275857569573674  0.18258906675333725  0.6229819395757089  1.0000
  H   H13       1.0  0.6725562635017327  0.5396855443029339  0.748338514623434  1.0000
  H   H14       1.0  0.3274467902019893  0.9603170283036205  0.24833699322070396  1.0000
  H   H15       1.0  0.3274425030369699  0.46031311979421474  0.25166437426093313  1.0000
  H   H16       1.0  0.6725628038757135  0.0396862436003858  0.7516610578467321  1.0000
  H   H17       1.0  0.8056497146241312  0.8550237376654762  0.9373176194387298  1.0000
  H   H18       1.0  0.19434612775974364  0.6449723599917406  0.4373183811680832  1.0000
  H   H19       1.0  0.1943520904763005  0.1449740363583274  0.0626825049705886  1.0000
  H   H20       1.0  0.8056485159704607  0.355027187619946  0.5626796698518817  1.0000
  H   H21       1.0  0.12181820242321352  0.8416418734609152  0.16665343193631085  1.0000
  H   H22       1.0  0.8781874949232532  0.6583543870969919  0.6666520255880853  1.0000
  H   H23       1.0  0.8781788379823894  0.1583540548162716  0.8333480747011848  1.0000
  H   H24       1.0  0.12180995908398981  0.34164790289534613  0.33334187871085424  1.0000
  H   H25       1.0  0.916796880346105  0.8071392841926441  0.0548264373907088  1.0000
  H   H26       1.0  0.0832025147057465  0.6928560724423605  0.5548245199855087  1.0000
  H   H27       1.0  0.08319863362546441  0.1928593602249222  0.9451757603613798  1.0000
  H   H28       1.0  0.9167919292929126  0.30713802320958195  0.4451673109443489  1.0000
  H   H29       1.0  0.8084618807417313  0.14521212260726202  0.147579837851076  1.0000
  H   H30       1.0  0.19153768742425112  0.354783611943212  0.6475791255691447  1.0000
  H   H31       1.0  0.19154229242683837  0.8547911164967772  0.8524216688054906  1.0000
  H   H32       1.0  0.8084565283871541  0.6452141161609363  0.3524237633006422  1.0000
  H   H33       1.0  0.016585992914251304  0.1624209870257474  0.2598325847072971  1.0000
  H   H34       1.0  0.9834242209744132  0.3375756775649137  0.7598337227318056  1.0000
  H   H35       1.0  0.9834197066829304  0.837579535938012  0.7401675397132408  1.0000
  H   H36       1.0  0.016575173209233223  0.6624302579996169  0.2401698572714039  1.0000
  C   C1        1.0  0.4505362322026869  0.7215883406771226  0.6895584693177952  1.0000
  C   C2        1.0  0.549465258914843  0.7784115195257115  0.18956073728704578  1.0000
  C   C3        1.0  0.5494647027050873  0.2784103365399133  0.3104437284523484  1.0000
  C   C4        1.0  0.4505397844463844  0.22159081638509556  0.8104386960086885  1.0000
  C   C5        1.0  0.47605810417039146  0.8079364050328832  0.7589139174660957  1.0000
  C   C6        1.0  0.5239388383408752  0.6920624927274375  0.2589140531344967  1.0000
  C   C7        1.0  0.5239452130847937  0.19206319505746455  0.24108758918996637  1.0000
  C   C8        1.0  0.47606165429304076  0.3079389071903692  0.7410853801466643  1.0000
  C   C9        1.0  0.5771770505847513  0.7986496469515316  0.8304964727712161  1.0000
  C   C10       1.0  0.42281493595748293  0.7013510104278355  0.33049523062041436  1.0000
  C   C11       1.0  0.4228236703554984  0.20134812051188788  0.1695071072416852  1.0000
  C   C12       1.0  0.57718490042965  0.2986522024372178  0.6695021292930647  1.0000
  C   C13       1.0  0.6493051590018268  0.6990465837850408  0.8246022028795321  1.0000
  C   C14       1.0  0.35068870390442436  0.8009486364439409  0.3246003510084705  1.0000
  C   C15       1.0  0.3506927516289053  0.30094844129832415  0.17540137712575898  1.0000
  C   C16       1.0  0.6493143850552486  0.1990545961006021  0.6753983911587297  1.0000
  C   C17       1.0  0.6167371627685582  0.6167112470826481  0.7524670382070439  1.0000
  C   C18       1.0  0.38326206111320726  0.8832885753998031  0.25246667970554876  1.0000
  C   C19       1.0  0.3832603056099728  0.3832865007010824  0.2475365417950144  1.0000
  C   C20       1.0  0.6167421120337053  0.1167146637046343  0.747532062465261  1.0000
  C   C21       1.0  0.7115554738680956  0.895365945934202  0.9573383764853318  1.0000
  C   C22       1.0  0.28844046812010765  0.6046292362280924  0.4573384358358439  1.0000
  C   C23       1.0  0.2884450187820633  0.10463545398330612  0.042663130160150296  1.0000
  C   C24       1.0  0.7115567862421911  0.3953676018029099  0.5426603063160158  1.0000
  C   C25       1.0  0.049211078936316745  0.9073928676398142  0.16180631264936096  1.0000
  C   C26       1.0  0.9507912899371364  0.5926033746282968  0.6618061666762642  1.0000
  C   C27       1.0  0.9507879015644962  0.09260670621105759  0.8381945028708131  1.0000
  C   C28       1.0  0.04920465194783219  0.40739708929690005  0.3381905021045597  1.0000
  C   C29       1.0  0.9349264994501353  0.8888440085220709  0.0975038851890062  1.0000
  C   C30       1.0  0.0650774728464256  0.6111495426067179  0.5975005699703287  1.0000
  C   C31       1.0  0.0650722527876439  0.11115919778239201  0.902498312570941  1.0000
  C   C32       1.0  0.9349193535267091  0.38884547591803204  0.4024940254526398  1.0000
  C   C33       1.0  0.8428100223251038  0.9745393642127667  0.0908632278182253  1.0000
  C   C34       1.0  0.1571914493151709  0.5254578081543572  0.5908606377508008  1.0000
  C   C35       1.0  0.1571921964473262  0.0254647715249092  0.9091382788312501  1.0000
  C   C36       1.0  0.8428058050363062  0.47453902987684415  0.40913672215818037  1.0000
  C   C37       1.0  0.8751997286825316  0.0752621501573856  0.1508276852541357  1.0000
  C   C38       1.0  0.12480488331946303  0.4247317967545642  0.6508250552287294  1.0000
  C   C39       1.0  0.12480380254558547  0.9247383596864865  0.8491731302806187  1.0000
  C   C40       1.0  0.8751921427689736  0.5752686737302355  0.3491736869200253  1.0000
  C   C41       1.0  0.9916262358507738  0.0843970761053328  0.21316653049611736  1.0000
  C   C42       1.0  0.008381948915499022  0.41559868555537355  0.7131652087878422  1.0000
  C   C43       1.0  0.008378165580822442  0.9156025305451084  0.7868335939206759  1.0000
  C   C44       1.0  0.9916155051404587  0.5844036044360692  0.2868349156040466  1.0000
  N   N1        1.0  0.5174643134205894  0.6251425045312048  0.6852689640241393  1.0000
  N   N2        1.0  0.48253798071418424  0.8748564537083398  0.18527066103517595  1.0000
  N   N3        1.0  0.4825351093486674  0.3748543466189957  0.3147339248635816  1.0000
  N   N4        1.0  0.5174670626632717  0.12514588220216893  0.8147308456248795  1.0000
  N   N5        1.0  0.5935408741534189  0.8819598298584809  0.9022514659633033  1.0000
  N   N6        1.0  0.4064509381218143  0.6180398906296959  0.4022488398353232  1.0000
  N   N7        1.0  0.40645745012766815  0.11804155693914002  0.09775073179638838  1.0000
  N   N8        1.0  0.5935471721484546  0.38196058641509734  0.5977492111956052  1.0000
  N   N9        1.0  0.7194572087184169  0.962989635392546  0.0332053265351959  1.0000
  N   N10       1.0  0.28053946534856067  0.5370048045693849  0.5332063090975083  1.0000
  N   N11       1.0  0.280549346786735  0.0370145265850041  0.9667941067644106  1.0000
  N   N12       1.0  0.7194554066663271  0.4629911105883124  0.4667931241684329  1.0000
  N   N13       1.0  0.0790900059262611  0.0022463542094613  0.2203111170138499  1.0000
  N   N14       1.0  0.9209167643108742  0.4977521215427174  0.7203102491448092  1.0000
  N   N15       1.0  0.920911570905716  0.9977550522680476  0.779689698513799  1.0000
  N   N16       1.0  0.07907981952536856  0.5022510716424478  0.2796884930007195  1.0000
