data_image0
_chemical_formula_structural       Zn2H34C46N6O8
_chemical_formula_sum              "Zn2 H34 C46 N6 O8"
_cell_length_a       7.675858063494191
_cell_length_b       9.794712936896152
_cell_length_c       15.457013310888177
_cell_angle_alpha    71.54958668296155
_cell_angle_beta     85.52284219655708
_cell_angle_gamma    75.69206167206615

_space_group_name_H-M_alt    "P 1"
_space_group_IT_number       1

loop_
  _space_group_symop_operation_xyz
  'x, y, z'

loop_
  _atom_site_type_symbol
  _atom_site_label
  _atom_site_symmetry_multiplicity
  _atom_site_fract_x
  _atom_site_fract_y
  _atom_site_fract_z
  _atom_site_occupancy
  Zn  Zn1       1.0  0.8286245278087563  0.9520216782536793  0.19427057442872805  1.0000
  Zn  Zn2       1.0  0.3291902819253284  0.14609309942448326  0.8057581178970137  1.0000
  H   H1        1.0  0.7740502617263092  0.5299091126902837  0.39697169419038386  1.0000
  H   H2        1.0  0.27372246284736007  0.9270229589300596  0.6030709323052504  1.0000
  H   H3        1.0  0.6340187180728948  0.32935162578255023  0.4977120369972709  1.0000
  H   H4        1.0  0.1338245139337177  0.8270644701672794  0.5022925803140196  1.0000
  H   H5        1.0  0.1129424562195711  0.5900451312035953  0.39234969940513037  1.0000
  H   H6        1.0  0.6126911147838074  0.9826499113117535  0.6074680056629658  1.0000
  H   H7        1.0  0.2519189574587133  0.79133107064262  0.29589215936228885  1.0000
  H   H8        1.0  0.7515525016059644  0.08744607376058162  0.7040667508635321  1.0000
  H   H9        1.0  0.3868956735871266  0.2342319088046594  0.5533277351127736  1.0000
  H   H10       1.0  0.8866591747931883  0.7873519703209979  0.44671854098005753  1.0000
  H   H11       1.0  0.1799401447953387  0.36104416125917277  0.5538411515092176  1.0000
  H   H12       1.0  0.6797364683249401  0.9147812185005435  0.44603162181142847  1.0000
  H   H13       1.0  0.315702926236007  0.056413888475212594  0.29923543167579675  1.0000
  H   H14       1.0  0.8156247535211919  0.3558574420149654  0.7007280302927581  1.0000
  H   H15       1.0  0.45452468744102265  0.16350612583141805  0.394118094000106  1.0000
  H   H16       1.0  0.9543330025188376  0.5577787793086914  0.6058505370719016  1.0000
  H   H17       1.0  0.9316309602602929  0.33205838636039436  0.492475355764604  1.0000
  H   H18       1.0  0.4313091643609542  0.824669267225012  0.5077107899053955  1.0000
  H   H19       1.0  0.7908286397678241  0.23645102999990533  0.38924457749877206  1.0000
  H   H20       1.0  0.2906327473068588  0.6259703402627678  0.6110044288591252  1.0000
  H   H21       1.0  0.07836027051810403  0.6245127675922929  0.210228624103692  1.0000
  H   H22       1.0  0.5786450014168952  0.8346563807461609  0.7897228292274361  1.0000
  H   H23       1.0  0.2354051265093134  0.49140835318707576  0.10044001838586068  1.0000
  H   H24       1.0  0.7352524605431014  0.59153216231833  0.8993834962788012  1.0000
  H   H25       1.0  0.20653629926724204  0.6281078662887012  0.9319354956407221  1.0000
  H   H26       1.0  0.7063448979113149  0.5595599843707574  0.06793276477895915  1.0000
  H   H27       1.0  0.023398971575204833  0.8896795408009194  0.8804630356796179  1.0000
  H   H28       1.0  0.5234902233266683  0.7696008142120119  0.11957050873832022  1.0000
  H   H29       1.0  0.6376641950786781  0.3672130101714758  0.8758323372594814  1.0000
  H   H30       1.0  0.13742089117035766  0.2429785592647917  0.12407302889594256  1.0000
  H   H31       1.0  0.5874650217642814  0.30309822414175597  0.06501716544909185  1.0000
  H   H32       1.0  0.08769951580802647  0.36775685508133915  0.9348562182105336  1.0000
  H   H33       1.0  0.8572621070901508  0.13897092308385334  0.8542521595522171  1.0000
  H   H34       1.0  0.35703874976816524  0.9930982722426193  0.14582505451366487  1.0000
  C   C1        1.0  0.6113538451861447  0.7871318009599761  0.2814759690254646  1.0000
  C   C2        1.0  0.11120036851646393  0.06880415792198144  0.7185499019398873  1.0000
  C   C3        1.0  0.5231145460343856  0.6707296480816821  0.3394504594822293  1.0000
  C   C4        1.0  0.022809465098681987  0.01041924757969076  0.660532882063485  1.0000
  C   C5        1.0  0.6296415583235346  0.5408808315748741  0.3968161908156062  1.0000
  C   C6        1.0  0.1293038166379007  0.9379068327394577  0.6031588519241634  1.0000
  C   C7        1.0  0.5512933454671584  0.42975227957948187  0.45204714923633543  1.0000
  C   C8        1.0  0.05105355234201902  0.8818842839888744  0.5479229684844638  1.0000
  C   C9        1.0  0.36533969368728264  0.445066655252198  0.4509677847508086  1.0000
  C   C10       1.0  0.8650894763820537  0.8962112715523816  0.5489337117720792  1.0000
  C   C11       1.0  0.258564783188291  0.5760924732879927  0.39376049648005546  1.0000
  C   C12       1.0  0.7583045397923558  0.9701599286955656  0.6060840595230059  1.0000
  C   C13       1.0  0.3359291306356128  0.6884526654322726  0.33854602735438266  1.0000
  C   C14       1.0  0.8356054590826294  0.0272592583252801  0.6613943991966378  1.0000
  C   C15       1.0  0.2834078519725482  0.3205782037128556  0.5086413168709851  1.0000
  C   C16       1.0  0.7831455311963824  0.8292263542588214  0.4913175265502755  1.0000
  C   C17       1.0  0.9555477685696732  0.07926484506841552  0.28188727614898557  1.0000
  C   C18       1.0  0.4553055049283119  0.36150311674057894  0.7181597019194965  1.0000
  C   C19       1.0  0.043238051862822195  0.14241510760597723  0.337580296193856  1.0000
  C   C20       1.0  0.5430913430283656  0.4802269892479599  0.6625436201364037  1.0000
  C   C21       1.0  0.23114931620978055  0.12023756329121932  0.33983205248932785  1.0000
  C   C22       1.0  0.7309964158425759  0.4602852568071113  0.6602182106114539  1.0000
  C   C23       1.0  0.3086647790776454  0.1782233159296638  0.394575333718272  1.0000
  C   C24       1.0  0.8084491983115785  0.5730002257614614  0.6054870680218867  1.0000
  C   C25       1.0  0.20121062700379627  0.2555814266678879  0.4498585134741686  1.0000
  C   C26       1.0  0.7009575100005923  0.7055945319840188  0.5502026506781873  1.0000
  C   C27       1.0  0.014581027416127879  0.27507578668680566  0.4479353032202835  1.0000
  C   C28       1.0  0.5143208584100167  0.7232028175220079  0.5522418879738992  1.0000
  C   C29       1.0  0.9359102429872199  0.2210371536700321  0.391645387398391  1.0000
  C   C30       1.0  0.43572666184453385  0.6129240647065258  0.6085515569906405  1.0000
  C   C31       1.0  0.07073047351534004  0.6781997619078055  0.1366035497276882  1.0000
  C   C32       1.0  0.5709961162610004  0.8146000162356515  0.8633656328839974  1.0000
  C   C33       1.0  0.15682369986085837  0.6051411845038287  0.07516595178834957  1.0000
  C   C34       1.0  0.6568261832438796  0.6799817690046766  0.9247237858037632  1.0000
  C   C35       1.0  0.14043002745455632  0.6814150940866526  0.9818889354202437  1.0000
  C   C36       1.0  0.640407067432129  0.6629073418008105  0.01801979194972589  1.0000
  C   C37       1.0  0.03891796238971091  0.8269135863825028  0.9525616538794491  1.0000
  C   C38       1.0  0.5390522057389193  0.7790900201292246  0.04744316073370665  1.0000
  C   C39       1.0  0.9570588027158425  0.8925043586351932  0.018564404741404354  1.0000
  C   C40       1.0  0.45737323301352756  0.9107910530791015  0.9815036807222269  1.0000
  C   C41       1.0  0.8445704904624735  0.04231974651980871  0.9989851053451273  1.0000
  C   C42       1.0  0.3448204337098631  0.04102558223799241  0.0010761116186798942  1.0000
  C   C43       1.0  0.691587426190978  0.2698355324205013  0.9320153576098913  1.0000
  C   C44       1.0  0.19146843169441763  0.20162447323676955  0.06794604065303388  1.0000
  C   C45       1.0  0.6673486561359355  0.23624048722999896  0.02543456214616669  1.0000
  C   C46       1.0  0.16748067415989015  0.2613462212428742  0.9745105971013072  1.0000
  N   N1        1.0  0.7623385276338726  0.09438962017899397  0.06610559601290329  1.0000
  N   N2        1.0  0.26268207570762325  0.16014302258028598  0.9339039254560643  1.0000
  N   N3        1.0  0.9743754568206386  0.8183393867569748  0.10886847011308018  1.0000
  N   N4        1.0  0.4748112691974526  0.9269926165345697  0.8911766096181208  1.0000
  N   N5        1.0  0.8026975790259885  0.14667999043015106  0.9170459897500576  1.0000
  N   N6        1.0  0.30264653055643725  0.0635256299004396  0.08299210639042086  1.0000
  O   O1        1.0  0.5224631794986154  0.9029410442190623  0.22336811603354778  1.0000
  O   O2        1.0  0.022370683199462064  0.12656306679947685  0.7766537167035776  1.0000
  O   O3        1.0  0.7819519810891723  0.7679529068321143  0.2902145617281348  1.0000
  O   O4        1.0  0.2818339591621426  0.05818901600045473  0.7098534669558133  1.0000
  O   O5        1.0  0.7847006131239244  0.10752262071906674  0.2763188054052107  1.0000
  O   O6        1.0  0.28449783344980545  0.3842789116845326  0.7237425679615297  1.0000
  O   O7        1.0  0.055028440414283  0.9937186419713697  0.23954389088120814  1.0000
  O   O8        1.0  0.554769249766899  0.23353438882924138  0.7604165476629274  1.0000
