data_image0
_chemical_formula_structural       Y2H48C42N8O16
_chemical_formula_sum              "Y2 H48 C42 N8 O16"
_cell_length_a       9.910739287622556
_cell_length_b       10.539834535105612
_cell_length_c       12.576688961792843
_cell_angle_alpha    70.09742293864016
_cell_angle_beta     73.79321542024242
_cell_angle_gamma    62.444755998500696

_space_group_name_H-M_alt    "P 1"
_space_group_IT_number       1

loop_
  _space_group_symop_operation_xyz
  'x, y, z'

loop_
  _atom_site_type_symbol
  _atom_site_label
  _atom_site_symmetry_multiplicity
  _atom_site_fract_x
  _atom_site_fract_y
  _atom_site_fract_z
  _atom_site_occupancy
  Y   Y1        1.0  0.9503876156254308  0.2230552441937164  0.31137474663063347  1.0000
  Y   Y2        1.0  0.04961351247392531  0.7769440668106072  0.6886251417069287  1.0000
  H   H1        1.0  0.7754254973320939  0.3558180534705357  0.9370608888348143  1.0000
  H   H2        1.0  0.22457514582850976  0.6441823856447257  0.06294196055551987  1.0000
  H   H3        1.0  0.41584650514638355  0.5259855840729629  0.19995639881683044  1.0000
  H   H4        1.0  0.5841531917502464  0.47401707619545175  0.8000476068305458  1.0000
  H   H5        1.0  0.6212539655815591  0.1207806804228966  0.3182255538012554  1.0000
  H   H6        1.0  0.3787503215318964  0.8792186215864248  0.6817720553834261  1.0000
  H   H7        1.0  0.6485341682335035  0.8561199687911911  0.6637962944803062  1.0000
  H   H8        1.0  0.35146801418241586  0.143879337266533  0.3362025693702648  1.0000
  H   H9        1.0  0.3270548471034401  0.8677640676969886  0.07314685597345512  1.0000
  H   H10       1.0  0.6729442882865513  0.13223745771750123  0.9268536244919545  1.0000
  H   H11       1.0  0.44199446350602767  0.21400856381553976  0.07356476250171798  1.0000
  H   H12       1.0  0.5580026831101889  0.7859951701643269  0.92643551578346  1.0000
  H   H13       1.0  0.41283500078097995  0.3239666430933283  0.7496335631073733  1.0000
  H   H14       1.0  0.58716449968842  0.6760315555380317  0.2503662074594714  1.0000
  H   H15       1.0  0.4819922941204169  0.1463247621056922  0.7237088775536549  1.0000
  H   H16       1.0  0.5180067371525823  0.8536745412574474  0.2762906768336181  1.0000
  H   H17       1.0  0.36149934681900936  0.2666977058164832  0.5569536422888034  1.0000
  H   H18       1.0  0.6384981609410193  0.733302707225043  0.4430467204058883  1.0000
  H   H19       1.0  0.31945074579562055  0.44345830913547246  0.5738306570096369  1.0000
  H   H20       1.0  0.6805499131073348  0.5565421066006307  0.4261690151483535  1.0000
  H   H21       1.0  0.7924147217268287  0.8880361448428076  0.09352395767287894  1.0000
  H   H22       1.0  0.20758489073074315  0.11196426415031617  0.9064751503559308  1.0000
  H   H23       1.0  0.9935750544554831  0.8202840210130163  0.050054251943471656  1.0000
  H   H24       1.0  0.006423503685517983  0.17971639292670014  0.9499458805723221  1.0000
  H   H25       1.0  0.9317430793033665  0.9617662580683513  0.19128700251162925  1.0000
  H   H26       1.0  0.0682571143387705  0.03823525655474921  0.8087116591587105  1.0000
  H   H27       1.0  0.8126005828097007  0.8735643501528686  0.28460703213772115  1.0000
  H   H28       1.0  0.18739855651588042  0.1264371694168318  0.7153926540196026  1.0000
  H   H29       1.0  0.16312615044771658  0.7296022447309696  0.221870011271875  1.0000
  H   H30       1.0  0.8368729928134473  0.2703992689939411  0.7781288805773627  1.0000
  H   H31       1.0  0.05976435032578547  0.7607155067094099  0.35652952803831534  1.0000
  H   H32       1.0  0.9402363125127521  0.2392849031819111  0.643469349811589  1.0000
  H   H33       1.0  0.10953095554670973  0.3834956022840785  0.42568648375133483  1.0000
  H   H34       1.0  0.8904697033562459  0.6165048134520318  0.5743131884066557  1.0000
  H   H35       1.0  0.13355464776631001  0.5187449746895539  0.46617860711916137  1.0000
  H   H36       1.0  0.8664455458758338  0.4812565399335539  0.5338200545511711  1.0000
  H   H37       1.0  0.26267179023631115  0.438988564139983  0.35275743857942377  1.0000
  H   H38       1.0  0.7373284034058257  0.561012950483125  0.6472412230909084  1.0000
  H   H39       1.0  0.9006540333495962  0.5025716042167759  0.10544805587370833  1.0000
  H   H40       1.0  0.09934452872699505  0.49742880387815086  0.8945512823339994  1.0000
  H   H41       1.0  0.9001646273611713  0.6640383503627518  0.9985888578577897  1.0000
  H   H42       1.0  0.099836500738185  0.33596096064156467  0.001411030479765355  1.0000
  H   H43       1.0  0.7301457360229976  0.669681765228617  0.09658491217619057  1.0000
  H   H44       1.0  0.2698544615547291  0.33031974354969407  0.9034129551860557  1.0000
  H   H45       1.0  0.5472846244677785  0.3743995043217794  0.40198694344410046  1.0000
  H   H46       1.0  0.452714406805221  0.6255997990413604  0.5980126109431794  1.0000
  H   H47       1.0  0.7205890891527532  0.16946468660726305  0.6980050484742077  1.0000
  H   H48       1.0  0.2794099381846564  0.8305346226006661  0.3019953002211578  1.0000
  C   C1        1.0  0.6075907211862203  0.4315182729603321  0.07739027145312605  1.0000
  C   C2        1.0  0.39240991803880115  0.5684821719997187  0.922613372245294  1.0000
  C   C3        1.0  0.6543016862831551  0.4186536720171077  0.9640217264354971  1.0000
  C   C4        1.0  0.34569696810366685  0.5813489756635376  0.03598092077460543  1.0000
  C   C5        1.0  0.4518688085013736  0.5142201980240416  0.11237524640404208  1.0000
  C   C6        1.0  0.5481313654628294  0.4857813458230071  0.8876273868067271  1.0000
  C   C7        1.0  0.7225900171314024  0.35906837421527626  0.15958715405987078  1.0000
  C   C8        1.0  0.2774110952256095  0.6409309601681984  0.8404159115100354  1.0000
  C   C9        1.0  0.6494992702571665  0.9862986723018781  0.4895534485471058  1.0000
  C   C10       1.0  0.35050327330257863  0.0136973128175057  0.5104454997129863  1.0000
  C   C11       1.0  0.5669955978803074  0.067617637698433  0.3968993758488395  1.0000
  C   C12       1.0  0.4330060190933906  0.9323805393501488  0.6030967571278507  1.0000
  C   C13       1.0  0.5821563541252103  0.9186250511820762  0.5928539184267478  1.0000
  C   C14       1.0  0.41784735180367244  0.08137314519726153  0.4071441371164042  1.0000
  C   C15       1.0  0.808559932115358  0.9744230850515123  0.4798134109446792  1.0000
  C   C16       1.0  0.19144272343254437  0.025575110429635103  0.520184874777371  1.0000
  C   C17       1.0  0.371324468801518  0.04498582452275459  0.08287880147899779  1.0000
  C   C18       1.0  0.628674085403901  0.9550145952617513  0.9171221253448819  1.0000
  C   C19       1.0  0.4038601883388965  0.9246971130449495  0.04102609912662553  1.0000
  C   C20       1.0  0.5961389431155055  0.0753044182143299  0.9589751756468698  1.0000
  C   C21       1.0  0.4686611867890705  0.11998469293920519  0.041245564318757005  1.0000
  C   C22       1.0  0.5313379486009141  0.8800168324752774  0.9587549161466525  1.0000
  C   C23       1.0  0.22925115231613089  0.09847781130694953  0.16662500714539868  1.0000
  C   C24       1.0  0.770747979138271  0.90152371995233  0.8333762676281038  1.0000
  C   C25       1.0  0.6694343066377543  0.2903915244202794  0.5364300153655179  1.0000
  C   C26       1.0  0.33056624421261926  0.7096066751092707  0.4635695250224215  1.0000
  C   C27       1.0  0.4788686741848307  0.2582361324907724  0.6866027778958566  1.0000
  C   C28       1.0  0.5211314074691417  0.7417631717705645  0.31339654631251773  1.0000
  C   C29       1.0  0.40986884942078916  0.33238249853354773  0.5731849613516571  1.0000
  C   C30       1.0  0.5901316974939945  0.6676157068407846  0.42681537334436825  1.0000
  C   C31       1.0  0.969030613463069  0.563101379474901  0.25625946259356874  1.0000
  C   C32       1.0  0.03096794467793982  0.4368990344648225  0.743740669922218  1.0000
  C   C33       1.0  0.9035293492969247  0.8134939821861096  0.12410151133252591  1.0000
  C   C34       1.0  0.09647130960603081  0.18650643354999366  0.8758981608254641  1.0000
  C   C35       1.0  0.917967762026137  0.857243901224706  0.2218695964754929  1.0000
  C   C36       1.0  0.08203080398604361  0.14275650102543117  0.7781289474241289  1.0000
  C   C37       1.0  0.05430404106894567  0.7370519089076808  0.2796270492999113  1.0000
  C   C38       1.0  0.9456955713886188  0.2629485000854359  0.7203720587288912  1.0000
  C   C39       1.0  0.14191991035336574  0.4773716350545527  0.3945645723674359  1.0000
  C   C40       1.0  0.8580796981686163  0.5226287797833606  0.6054353299694526  1.0000
  C   C41       1.0  0.8564033326056874  0.6224318680292813  0.08729969957669677  1.0000
  C   C42       1.0  0.14359523340649363  0.3775685342208632  0.9126988443229251  1.0000
  N   N1        1.0  0.5428501126444233  0.33799525897408955  0.4886512296135876  1.0000
  N   N2        1.0  0.4571504382059501  0.6620029405554605  0.5113483107743519  1.0000
  N   N3        1.0  0.634777205699308  0.25350813451268556  0.6529610273791278  1.0000
  N   N4        1.0  0.3652227639664929  0.7464889593868805  0.3470389593672819  1.0000
  N   N5        1.0  0.9091345199701734  0.6638293390930698  0.16184543376300553  1.0000
  N   N6        1.0  0.09086566973637386  0.33617218137482047  0.83815402221542  1.0000
  N   N7        1.0  0.04141260298985112  0.5953729579091986  0.3146539410477514  1.0000
  N   N8        1.0  0.9585874786641142  0.40462634635213857  0.685345383160623  1.0000
  O   O1        1.0  0.862576567951571  0.2779048526920961  0.1283880478759938  1.0000
  O   O2        1.0  0.1374224475790768  0.7220944740502021  0.8716146837436225  1.0000
  O   O3        1.0  0.6799641670554379  0.3808849626129743  0.2600057946734324  1.0000
  O   O4        1.0  0.32003799568253993  0.6191143726686973  0.7399970407175688  1.0000
  O   O5        1.0  0.8622176916317984  0.0446284972427904  0.38735948443261486  1.0000
  O   O6        1.0  0.13778705287129606  0.9553697175691127  0.6126407238558895  1.0000
  O   O7        1.0  0.8792253641062685  0.8951141043228436  0.564789789973602  1.0000
  O   O8        1.0  0.12077822196327045  0.10488189338430941  0.43521051672376376  1.0000
  O   O9        1.0  0.1827244401481849  0.22678961113908255  0.1815887706236623  1.0000
  O   O10       1.0  0.8172736487964226  0.7732119075324206  0.8184111457125666  1.0000
  O   O11       1.0  0.15479584230614313  0.0173068981168214  0.2198175731460665  1.0000
  O   O12       1.0  0.8452028238874475  0.9826957320294555  0.7801826911397781  1.0000
  O   O13       1.0  0.8002540091686329  0.28335134879281293  0.4832828830550041  1.0000
  O   O14       1.0  0.19974443698421143  0.7166468547851395  0.5167179119988248  1.0000
  O   O15       1.0  0.9563497187782988  0.44048455630724  0.2907798948347064  1.0000
  O   O16       1.0  0.04364989367927302  0.559515852685884  0.7092192131940959  1.0000
