data_image0
_chemical_formula_structural       V4Zn4P4H32C40N8O24
_chemical_formula_sum              "V4 Zn4 P4 H32 C40 N8 O24"
_cell_length_a       7.810902336943242
_cell_length_b       9.626333354497401
_cell_length_c       17.199152291211636
_cell_angle_alpha    90.00053785950526
_cell_angle_beta     89.99969653209469
_cell_angle_gamma    103.75937745865168

_space_group_name_H-M_alt    "P 1"
_space_group_IT_number       1

loop_
  _space_group_symop_operation_xyz
  'x, y, z'

loop_
  _atom_site_type_symbol
  _atom_site_label
  _atom_site_symmetry_multiplicity
  _atom_site_fract_x
  _atom_site_fract_y
  _atom_site_fract_z
  _atom_site_occupancy
  V   V1        1.0  0.8830455057385219  0.5064055721806328  0.3775822433294849  1.0000
  V   V2        1.0  0.8830451822386961  0.006417291866746702  0.12242126482813383  1.0000
  V   V3        1.0  0.11694914125786945  0.49359412108012196  0.6224190374951064  1.0000
  V   V4        1.0  0.11695598487610684  0.9935995006067699  0.877582923153412  1.0000
  Zn  Zn1       1.0  0.5315790128009468  0.2765856572729959  0.4490030268995896  1.0000
  Zn  Zn2       1.0  0.5315741673784942  0.7765904122285434  0.0509998372442837  1.0000
  Zn  Zn3       1.0  0.4684226389459453  0.7234118257682169  0.5509994167587777  1.0000
  Zn  Zn4       1.0  0.4684243438764852  0.22341353500781486  0.9489996993147758  1.0000
  P   P1        1.0  0.7608240578363519  0.5241699029735045  0.5434586357611338  1.0000
  P   P2        1.0  0.760819946967487  0.02416963738392041  0.9565410569971535  1.0000
  P   P3        1.0  0.23917697265047624  0.47582973082542424  0.45654148220759794  1.0000
  P   P4        1.0  0.23917670047838874  0.9758407621884615  0.0434596424290703  1.0000
  H   H1        1.0  0.07439814235247874  0.8172126641545603  0.5108167617629676  1.0000
  H   H2        1.0  0.074396059399696  0.31721609923902605  0.9891814702377675  1.0000
  H   H3        1.0  0.925607633054511  0.1827815629652747  0.48918161191386383  1.0000
  H   H4        1.0  0.9256069032236524  0.6827856615319874  0.0108157406141771  1.0000
  H   H5        1.0  0.43062106902868186  0.26050143994826414  0.6259548508828487  1.0000
  H   H6        1.0  0.43062695462110406  0.7605035565380405  0.8740486206383552  1.0000
  H   H7        1.0  0.5693703691504481  0.7394961381950507  0.3740446856680607  1.0000
  H   H8        1.0  0.5693801657981651  0.23949923802626932  0.12595149733130745  1.0000
  H   H9        1.0  0.21669052908824676  0.088718226344298  0.7115280623609195  1.0000
  H   H10       1.0  0.2167040616295139  0.5887211004149505  0.7884721178561095  1.0000
  H   H11       1.0  0.7833031006082647  0.9112739689190263  0.2884720555972465  1.0000
  H   H12       1.0  0.7833091487242709  0.41128485491026373  0.21152741869049413  1.0000
  H   H13       1.0  0.038967446429161626  0.8628459114367645  0.6518267807330673  1.0000
  H   H14       1.0  0.03897212761347649  0.36284925952963926  0.8481706129416366  1.0000
  H   H15       1.0  0.9610300133673917  0.13714624813689372  0.3481710115243644  1.0000
  H   H16       1.0  0.9610365972340418  0.6371545925507363  0.1518248536368247  1.0000
  H   H17       1.0  0.10154098866672709  0.8069976100004296  0.3902706448356881  1.0000
  H   H18       1.0  0.10154003159219367  0.3069984154256318  0.1097270199636213  1.0000
  H   H19       1.0  0.8984527093633969  0.19300316455752412  0.6097259846008357  1.0000
  H   H20       1.0  0.8984558921097158  0.6930012659265896  0.8902719351633763  1.0000
  H   H21       1.0  0.1737614976395179  0.7935129628067727  0.25126367142424755  1.0000
  H   H22       1.0  0.17376302109863673  0.2935105208201421  0.24873374855913263  1.0000
  H   H23       1.0  0.8262392393058418  0.20648989118343758  0.7487329580092421  1.0000
  H   H24       1.0  0.8262357495475283  0.7064859165416876  0.7512663694039504  1.0000
  H   H25       1.0  0.4239701893988296  0.9803831358031373  0.194044178735453  1.0000
  H   H26       1.0  0.423965871782066  0.4803805558822916  0.30595652411776103  1.0000
  H   H27       1.0  0.5760455060199874  0.019614216437325596  0.8059576834816299  1.0000
  H   H28       1.0  0.576036728957945  0.519615845803344  0.6940430124166002  1.0000
  H   H29       1.0  0.5823977509878944  0.18137653792368263  0.2819787866892939  1.0000
  H   H30       1.0  0.5823904079490275  0.6813795952905791  0.21802520033809  1.0000
  H   H31       1.0  0.4176185315345151  0.8186143738892965  0.7180242383582254  1.0000
  H   H32       1.0  0.4176048603177519  0.3186179471900061  0.7819754990561165  1.0000
  C   C1        1.0  0.14979354721565147  0.9152123622282107  0.537541500536193  1.0000
  C   C2        1.0  0.1497929308437307  0.41521537258820024  0.9624576445413027  1.0000
  C   C3        1.0  0.8502061724257004  0.0847829937735582  0.4624551288788866  1.0000
  C   C4        1.0  0.850208755082363  0.5847864000733837  0.03753956631221202  1.0000
  C   C5        1.0  0.3473409049944819  0.16151022040178734  0.6032338047141296  1.0000
  C   C6        1.0  0.3473437480457661  0.6615116423065573  0.8967676046995481  1.0000
  C   C7        1.0  0.6526556399757621  0.8384873101747559  0.3967651504064876  1.0000
  C   C8        1.0  0.6526627169445688  0.3384890133726516  0.1032325132653114  1.0000
  C   C9        1.0  0.22888303976848323  0.0664174991394546  0.6500022825006155  1.0000
  C   C10       1.0  0.22888526613895266  0.5664192799056663  0.8499994957547871  1.0000
  C   C11       1.0  0.7711137987535536  0.9335768112233535  0.3499972540352162  1.0000
  C   C12       1.0  0.7711186796154051  0.43358568921996027  0.15000120364841513  1.0000
  C   C13       1.0  0.12965620989190543  0.9410095475039811  0.6163501276707422  1.0000
  C   C14       1.0  0.1296606389956096  0.44101344365589773  0.8836497825490428  1.0000
  C   C15       1.0  0.8703390242266591  0.058983705288874  0.3836470831682349  1.0000
  C   C16       1.0  0.8703449111787406  0.5589925830037431  0.11634859115896752  1.0000
  C   C17       1.0  0.2704550950821981  0.016487367345874304  0.49403511235203723  1.0000
  C   C18       1.0  0.27045629768957724  0.5164892282979069  0.0059658558321303  1.0000
  C   C19       1.0  0.7295405009073119  0.9835112445593026  0.5059632613485548  1.0000
  C   C20       1.0  0.7295437838144566  0.4835114868341465  0.9940342621405807  1.0000
  C   C21       1.0  0.3028730257669067  0.0007998583724173998  0.40999484370234285  1.0000
  C   C22       1.0  0.3028723545476737  0.500803029459007  0.09000596412116121  1.0000
  C   C23       1.0  0.6971266938641136  0.9991954976518043  0.5900046928327569  1.0000
  C   C24       1.0  0.697126777975633  0.4991987670016799  0.9099935724315174  1.0000
  C   C25       1.0  0.20732509543795177  0.8881910270513276  0.36488459510917454  1.0000
  C   C26       1.0  0.20732268128221415  0.388192236547404  0.13511556570978206  1.0000
  C   C27       1.0  0.7926756073406054  0.11180753729157539  0.6351137785851293  1.0000
  C   C28       1.0  0.7926719657203731  0.6118074566998785  0.8648839708427973  1.0000
  C   C29       1.0  0.24902905362201008  0.8809133792443048  0.286519035579289  1.0000
  C   C30       1.0  0.24902703164006104  0.3809147179891141  0.213480986543864  1.0000
  C   C31       1.0  0.7509742025448671  0.11908516133092918  0.7134810823838934  1.0000
  C   C32       1.0  0.7509669599377204  0.6190828363640789  0.7865173871558897  1.0000
  C   C33       1.0  0.38612209077931675  0.985281334995406  0.254736763340361  1.0000
  C   C34       1.0  0.38611918754148167  0.48528102583495053  0.24526463787177025  1.0000
  C   C35       1.0  0.6138868934387316  0.0147150072553472  0.7452650988821645  1.0000
  C   C36       1.0  0.6138750975880923  0.5147133083045006  0.7547343172431982  1.0000
  C   C37       1.0  0.4741815416318218  0.09583531989687799  0.3026308737130634  1.0000
  C   C38       1.0  0.47417306864562647  0.5958380700991838  0.1973700189587433  1.0000
  C   C39       1.0  0.5258312385194656  0.9041566970168874  0.6973704070695562  1.0000
  C   C40       1.0  0.5258173863859739  0.4041562997254502  0.8026306804329479  1.0000
  N   N1        1.0  0.43269475142628977  0.10356673199100902  0.3779573308980346  1.0000
  N   N2        1.0  0.432691626888527  0.6035714912196538  0.12204428374605672  1.0000
  N   N3        1.0  0.5673106962538342  0.896426425713223  0.6220445313204124  1.0000
  N   N4        1.0  0.5673046245257893  0.3964292595796124  0.877955252807361  1.0000
  N   N5        1.0  0.367407675797672  0.13647304268052093  0.5275532408001811  1.0000
  N   N6        1.0  0.36740903213082987  0.6364767150313994  0.9724491518993261  1.0000
  N   N7        1.0  0.6325885414560305  0.8635234184579589  0.4724462957420315  1.0000
  N   N8        1.0  0.6325958626042618  0.3635271727655933  0.027552128923900906  1.0000
  O   O1        1.0  0.7126001240171572  0.3628127196731085  0.5290965168571589  1.0000
  O   O2        1.0  0.7125941246826952  0.862813219316024  0.9709068107646814  1.0000
  O   O3        1.0  0.28740440884078566  0.6371858090250341  0.4709053453764654  1.0000
  O   O4        1.0  0.28740726767301067  0.13719177359971724  0.029095051489662203  1.0000
  O   O5        1.0  0.7147391049972853  0.36911276821948746  0.3582514827078711  1.0000
  O   O6        1.0  0.7147386873938756  0.8691145878591443  0.14174968026974  1.0000
  O   O7        1.0  0.2852609764984848  0.6308879469305281  0.6417509609608558  1.0000
  O   O8        1.0  0.28526139411428625  0.13088612726392765  0.8582492748549556  1.0000
  O   O9        1.0  0.6128924378348586  0.5849555360123803  0.574377357653873  1.0000
  O   O10       1.0  0.6128920831774705  0.0849579773678215  0.925625917431937  1.0000
  O   O11       1.0  0.38710885204108075  0.4150365879165109  0.4256239231428793  1.0000
  O   O12       1.0  0.3871019425402692  0.9150438666910644  0.07437827051906251  1.0000
  O   O13       1.0  0.8364467198760435  0.6038023443665566  0.4645060247711826  1.0000
  O   O14       1.0  0.8364434433038993  0.10380524703827379  0.0354951989200529  1.0000
  O   O15       1.0  0.1635520849307284  0.3961983826560669  0.5354940932030914  1.0000
  O   O16       1.0  0.16355258286538554  0.8962073033277421  0.9645078262085677  1.0000
  O   O17       1.0  0.9189885273703451  0.5625897991907467  0.6023463317412805  1.0000
  O   O18       1.0  0.9189902694069969  0.0625896458160611  0.8976566694556994  1.0000
  O   O19       1.0  0.08101155413368841  0.43741091594130677  0.39765378623142317  1.0000
  O   O20       1.0  0.08101093186635211  0.9374314363227326  0.10234809996104843  1.0000
  O   O21       1.0  0.9141309955917902  0.6156472347645521  0.3042620179380222  1.0000
  O   O22       1.0  0.9141091027067956  0.11566242811792897  0.19574140623682015  1.0000
  O   O23       1.0  0.08586686024251833  0.3843545735687428  0.6957351929202105  1.0000
  O   O24       1.0  0.08586999867537058  0.8843492074009021  0.8042639446058288  1.0000
