data_image0
_chemical_formula_structural       Zr6H29C50ClO42
_chemical_formula_sum              "Zr6 H29 C50 Cl1 O42"
_cell_length_a       14.793369679585478
_cell_length_b       14.789638481894473
_cell_length_c       14.81747703397382
_cell_angle_alpha    60.06878336529257
_cell_angle_beta     59.91065155766167
_cell_angle_gamma    60.10865021531678

_space_group_name_H-M_alt    "P 1"
_space_group_IT_number       1

loop_
  _space_group_symop_operation_xyz
  'x, y, z'

loop_
  _atom_site_type_symbol
  _atom_site_label
  _atom_site_symmetry_multiplicity
  _atom_site_fract_x
  _atom_site_fract_y
  _atom_site_fract_z
  _atom_site_occupancy
  Zr  Zr1       1.0  0.8796052893582813  0.8836363473781219  0.6164062657163071  1.0000
  Zr  Zr2       1.0  0.12014462979497148  0.1183750986543828  0.3815870632406373  1.0000
  Zr  Zr3       1.0  0.11815016780509066  0.880397213277945  0.619789065514844  1.0000
  Zr  Zr4       1.0  0.8815694167068175  0.12244438588080445  0.37782356586772187  1.0000
  Zr  Zr5       1.0  0.11877633946316028  0.8818374991397848  0.3799371669483236  1.0000
  Zr  Zr6       1.0  0.8805645494910975  0.1200988384805369  0.6183007177961101  1.0000
  H   H1        1.0  0.09218352644368369  0.7193744389437741  0.5926698234094231  1.0000
  H   H2        1.0  0.0957952571862037  0.09459196487890865  0.21733182136561874  1.0000
  H   H3        1.0  0.09400681249363177  0.0936913692771171  0.5941797168094921  1.0000
  H   H4        1.0  0.7175815268851906  0.0961483362051185  0.5921285574318489  1.0000
  H   H5        1.0  0.14252837982851224  0.5882130318588568  0.35414181855202287  1.0000
  H   H6        1.0  0.85289821569323  0.41654688089954595  0.6427732263591678  1.0000
  H   H7        1.0  0.5902345003440459  0.14082399673603885  0.9171406100500687  1.0000
  H   H8        1.0  0.41727327051295066  0.8525051928668008  0.08865884245281569  1.0000
  H   H9        1.0  0.8523599422939014  0.14103095592554388  0.08961916315501385  1.0000
  H   H10       1.0  0.1412256854129553  0.8546984738075026  0.9148734873165052  1.0000
  H   H11       1.0  0.5885200193981891  0.4160020603693225  0.35352444764005503  1.0000
  H   H12       1.0  0.4158911092811123  0.590565954849247  0.6400503054314369  1.0000
  H   H13       1.0  0.1393020782299529  0.594678410877478  0.9113947056613724  1.0000
  H   H14       1.0  0.740479642531817  0.620178589373218  0.967163380141798  1.0000
  H   H15       1.0  0.827778673461218  0.5351443097570937  0.881720253897626  1.0000
  H   H16       1.0  0.8363278927732977  0.36559798136770666  0.05118883453000947  1.0000
  H   H17       1.0  0.7494157262700869  0.45060196319320783  0.13658089674783003  1.0000
  H   H18       1.0  0.5892470411859564  0.8549079415598729  0.6397621989211332  1.0000
  H   H19       1.0  0.4162420224950196  0.14185154605179665  0.3527628988892032  1.0000
  H   H20       1.0  0.15325339200950347  0.3501515618719537  0.3438487698763096  1.0000
  H   H21       1.0  0.8422887417511972  0.6559967638039911  0.6512674600569923  1.0000
  H   H22       1.0  0.3527895004051588  0.15063719878998685  0.15570732763302433  1.0000
  H   H23       1.0  0.6552391815118386  0.84347941940127  0.8496574104966683  1.0000
  H   H24       1.0  0.8421745885706929  0.15266030078108658  0.8510553221666227  1.0000
  H   H25       1.0  0.1514141078439691  0.842891255328759  0.15343319464969352  1.0000
  H   H26       1.0  0.35153635267569444  0.6547182389296328  0.34156210846727225  1.0000
  H   H27       1.0  0.6536213406806721  0.3527267751989245  0.6511118279276288  1.0000
  H   H28       1.0  0.35133792603372865  0.8426699683633605  0.6515352594925118  1.0000
  H   H29       1.0  0.6546186871692399  0.15346326374891125  0.34085600775858893  1.0000
  C   C1        1.0  0.9967355687730617  0.6988692868698438  0.4956892176898009  1.0000
  C   C2        1.0  0.30937765937989076  0.9957217477992375  0.19803426539557725  1.0000
  C   C3        1.0  0.9972858721238184  0.30768387652182166  0.49885223291502023  1.0000
  C   C4        1.0  0.6971707053819931  0.9987118268786478  0.8069513713483972  1.0000
  C   C5        1.0  0.9929622184620966  0.7021929910786189  0.8044421759076953  1.0000
  C   C6        1.0  0.6975412604508334  0.9991713369942664  0.49510507639277535  1.0000
  C   C7        1.0  0.0009948955158592255  0.30639626876448034  0.19939263232194548  1.0000
  C   C8        1.0  0.3083481822688228  0.9971292676437148  0.4969678555154358  1.0000
  C   C9        1.0  0.30766394767823624  0.6981003299303625  0.4964671389962945  1.0000
  C   C10       1.0  0.9965152891904483  0.9977290250565223  0.8078506749404893  1.0000
  C   C11       1.0  0.6977433622173166  0.30975559012189546  0.4958623873743235  1.0000
  C   C12       1.0  0.9970472417622177  0.9980433455700467  0.19659278519007736  1.0000
  C   C13       1.0  0.9990383424699445  0.4072137810097589  0.49760489433819544  1.0000
  C   C14       1.0  0.9961615997794414  0.5978040688879959  0.4989264834892281  1.0000
  C   C15       1.0  0.08288956471568537  0.4555868972984103  0.41508052950227636  1.0000
  C   C16       1.0  0.9134574909718509  0.5483123059319086  0.5826506504455722  1.0000
  C   C17       1.0  0.07932831181683753  0.5503576507566664  0.4174255448618709  1.0000
  C   C18       1.0  0.9164177280589672  0.4541070462717942  0.5798454297711898  1.0000
  C   C19       1.0  0.40943174937968485  0.9971033526807819  0.09848841487563949  1.0000
  C   C20       1.0  0.598645110183199  0.995675197509215  0.9079527634749736  1.0000
  C   C21       1.0  0.4587574012388629  0.07999517660729803  0.04974381785200429  1.0000
  C   C22       1.0  0.5496657820332662  0.9124389062962808  0.957014499261973  1.0000
  C   C23       1.0  0.5524851356613569  0.0775178940861638  0.9550579895037288  1.0000
  C   C24       1.0  0.4556194063471961  0.915241638352008  0.051234868977744055  1.0000
  C   C25       1.0  0.9953592475530613  0.9993433362384967  0.9073615430949218  1.0000
  C   C26       1.0  0.9981041954715479  0.9962587455595301  0.0972458403860304  1.0000
  C   C27       1.0  0.9126569020428974  0.08220312264672457  0.9567217326784173  1.0000
  C   C28       1.0  0.08117727551522329  0.9138161758724269  0.04750703506614696  1.0000
  C   C29       1.0  0.9157466746912847  0.07861827800013556  0.05094597188935523  1.0000
  C   C30       1.0  0.07797843075272948  0.9172637328521916  0.9533600862884837  1.0000
  C   C31       1.0  0.40770797794203884  0.5986098887854894  0.494865192418949  1.0000
  C   C32       1.0  0.5975454734284471  0.4089443080814946  0.49775874649604657  1.0000
  C   C33       1.0  0.45693944256439767  0.548871669852126  0.41235501563085103  1.0000
  C   C34       1.0  0.5478847834657544  0.4582136153558168  0.5806811216043144  1.0000
  C   C35       1.0  0.5508534223013442  0.45481893121306194  0.4157987807616195  1.0000
  C   C36       1.0  0.4538954216476443  0.5522936490373239  0.5772754856597969  1.0000
  C   C37       1.0  0.9936305052528027  0.6020251702137219  0.9044900137641818  1.0000
  C   C38       1.0  0.002852051747495919  0.4062932660780235  0.09888274236103459  1.0000
  C   C39       1.0  0.9163573193288883  0.548228310834951  0.9567524868418428  1.0000
  C   C40       1.0  0.08258910332913424  0.4608940597328228  0.0437918178395549  1.0000
  C   C41       1.0  0.9216222429324149  0.4539595224785274  0.050658569933368564  1.0000
  C   C42       1.0  0.07683836165893629  0.5556904718018458  0.9502826077632417  1.0000
  C   C43       1.0  0.815052878296612  0.5481650480066451  0.9546417472978701  1.0000
  C   C44       1.0  0.8205454935054917  0.441567162985699  0.061076441432980896  1.0000
  C   C45       1.0  0.40809747445838  0.9962128955298016  0.49789793489623685  1.0000
  C   C46       1.0  0.597847424664792  5.090291777074527e-05  0.49415890864594286  1.0000
  C   C47       1.0  0.4571653984774215  0.9138288780159203  0.5806903181781564  1.0000
  C   C48       1.0  0.5484103917644847  0.08281466996560034  0.4117663025199575  1.0000
  C   C49       1.0  0.5512859267754778  0.917582372933545  0.5769375927486137  1.0000
  C   C50       1.0  0.4543397503913554  0.0790366638678322  0.4154556281316673  1.0000
  Cl  Cl1       1.0  0.19290061736632672  0.41630491044929147  0.08473453919786789  1.0000
  O   O1        1.0  0.9186841721984322  0.7408428051763993  0.5724195637981353  1.0000
  O   O2        1.0  0.26818351225783493  0.07310934792474917  0.23922334084539895  1.0000
  O   O3        1.0  0.07556294374190023  0.2657250612895369  0.4223137926578033  1.0000
  O   O4        1.0  0.7368554556756878  0.9228841907344789  0.7641817183347684  1.0000
  O   O5        1.0  0.0699886619835297  0.7420913256863317  0.7641204135756465  1.0000
  O   O6        1.0  0.7384467536820412  0.07705976425830138  0.41818957249822125  1.0000
  O   O7        1.0  0.9234538003799531  0.2678577354141824  0.2367139969526591  1.0000
  O   O8        1.0  0.26655414476298483  0.9201198528859824  0.5748015145335827  1.0000
  O   O9        1.0  0.26633855709173565  0.7384549712209962  0.41951970671320976  1.0000
  O   O10       1.0  0.9194157908027166  0.07546187653162681  0.7666062934661965  1.0000
  O   O11       1.0  0.7381172885362662  0.26821528224157754  0.5738314425464778  1.0000
  O   O12       1.0  0.07477837427102672  0.9209448881039041  0.2372019660786009  1.0000
  O   O13       1.0  0.07236891536929595  0.9222445816373369  0.7665168518264807  1.0000
  O   O14       1.0  0.7392118613380562  0.26897205653783385  0.41981536980694045  1.0000
  O   O15       1.0  0.922251259856033  0.0746210249007649  0.23683872577228016  1.0000
  O   O16       1.0  0.2658212657844745  0.7387314312888904  0.5727117806927281  1.0000
  O   O17       1.0  0.9168084043162493  0.7407649762695813  0.7644180798719871  1.0000
  O   O18       1.0  0.2670518291489188  0.07315255373542585  0.4217048200281396  1.0000
  O   O19       1.0  0.07558279089638384  0.264001740631251  0.2422732847884248  1.0000
  O   O20       1.0  0.7380534961702381  0.9238192435830471  0.5711305774854551  1.0000
  O   O21       1.0  0.7378367197864081  0.0750064242137754  0.7655336442526064  1.0000
  O   O22       1.0  0.0729563097897738  0.7396036218663087  0.41997744323446534  1.0000
  O   O23       1.0  0.26721675480774826  0.9208239840865958  0.23810573479607205  1.0000
  O   O24       1.0  0.9209963574605811  0.2668092558196023  0.5744299473046793  1.0000
  O   O25       1.0  0.7978397545791013  0.06962688950178401  0.5651948523734731  1.0000
  O   O26       1.0  0.0670660024638821  0.06699295487172202  0.5675702503028431  1.0000
  O   O27       1.0  0.06839168096392712  0.06744768580356464  0.2975031868083774  1.0000
  O   O28       1.0  0.0659493415106454  0.7995481748330279  0.5656933634336239  1.0000
  O   O29       1.0  0.14859895939379442  0.9501305692371178  0.4505134945391945  1.0000
  O   O30       1.0  0.950138624266643  0.9527845555578982  0.4482300246841506  1.0000
  O   O31       1.0  0.9509083948745244  0.14923418583620687  0.4499819520607319  1.0000
  O   O32       1.0  0.9493265690412968  0.9517289976289196  0.6475951760856377  1.0000
  O   O33       1.0  0.16613919415186731  0.41480497429970603  0.33391430430135927  1.0000
  O   O34       1.0  0.8316776303996105  0.5882743620050453  0.6652913012185592  1.0000
  O   O35       1.0  0.4194338452658499  0.1616830048308984  0.09006512452718599  1.0000
  O   O36       1.0  0.5899657437510587  0.8303354655745495  0.9165345920306506  1.0000
  O   O37       1.0  0.8308642869446888  0.16481988167240066  0.9166571647464321  1.0000
  O   O38       1.0  0.16359140584204807  0.8318086785022915  0.08687025555683903  1.0000
  O   O39       1.0  0.41723854882356215  0.5883379729050873  0.330239681942139  1.0000
  O   O40       1.0  0.5872119761053513  0.4183863705539112  0.6631124069539497  1.0000
  O   O41       1.0  0.417040765514983  0.8317530192546346  0.6632469442749525  1.0000
  O   O42       1.0  0.5881408036934133  0.16536027318920785  0.32974812032488643  1.0000
