data_image0
_chemical_formula_structural       Ca2H36C44O12
_chemical_formula_sum              "Ca2 H36 C44 O12"
_cell_length_a       7.664252986686572
_cell_length_b       11.385588856147367
_cell_length_c       11.938808201940686
_cell_angle_alpha    118.46360204841497
_cell_angle_beta     93.81062360303073
_cell_angle_gamma    89.99231265367679

_space_group_name_H-M_alt    "P 1"
_space_group_IT_number       1

loop_
  _space_group_symop_operation_xyz
  'x, y, z'

loop_
  _atom_site_type_symbol
  _atom_site_label
  _atom_site_symmetry_multiplicity
  _atom_site_fract_x
  _atom_site_fract_y
  _atom_site_fract_z
  _atom_site_occupancy
  Ca  Ca1       1.0  0.7500068719630519  0.9542786152033216  2.082259431547245e-05  1.0000
  Ca  Ca2       1.0  0.24999251727933816  0.045721572992114504  0.9999789146184594  1.0000
  H   H1        1.0  0.024727340955905706  0.9136262822127816  0.1668663055111066  1.0000
  H   H2        1.0  0.4752639619140312  0.7468019538829864  0.8331801056789413  1.0000
  H   H3        1.0  0.9752685841029561  0.0863838984385268  0.8331395095127475  1.0000
  H   H4        1.0  0.5247327346465553  0.25319623101607647  0.16682196031431565  1.0000
  H   H5        1.0  0.8579964527356055  0.8571363266727587  0.20402680423964614  1.0000
  H   H6        1.0  0.6420520178921905  0.6532085519516784  0.7960582351957225  1.0000
  H   H7        1.0  0.1420014798891529  0.14286086207316376  0.7959681585539541  1.0000
  H   H8        1.0  0.3579420952781334  0.34679063097534885  0.20394082826762625  1.0000
  H   H9        1.0  0.9342391853564324  0.6719479019267212  0.9645302679886566  1.0000
  H   H10       1.0  0.5657473073336446  0.7074518315817359  0.03534441979110882  1.0000
  H   H11       1.0  0.06576151819819388  0.3280522871129108  0.03547119876279226  1.0000
  H   H12       1.0  0.4342532473128102  0.29254535939639936  0.9646523268416657  1.0000
  H   H13       1.0  0.8477512561348775  0.43355115390212245  0.895139607448776  1.0000
  H   H14       1.0  0.6522304144647323  0.5383778096011014  0.10469780542356935  1.0000
  H   H15       1.0  0.15224692907200682  0.5664510312504305  0.10486433903474074  1.0000
  H   H16       1.0  0.3477742409455686  0.46162338467844677  0.8953000926813671  1.0000
  H   H17       1.0  0.9287743324476737  0.2542389886476784  0.6851996935549775  1.0000
  H   H18       1.0  0.5712543154973843  0.5688871265894591  0.3146498542579365  1.0000
  H   H19       1.0  0.07122377219495492  0.7457611962564243  0.3148058526909238  1.0000
  H   H20       1.0  0.42875431487829735  0.4311150710266817  0.6853503385340998  1.0000
  H   H21       1.0  0.056880326122097806  0.1848474824019277  0.4834359295990537  1.0000
  H   H22       1.0  0.44329486206368063  0.7012730279385336  0.5165121499443116  1.0000
  H   H23       1.0  0.9431189825560294  0.8151507055450509  0.516565407376106  1.0000
  H   H24       1.0  0.5567110558218715  0.2987271680126539  0.4834853459136779  1.0000
  H   H25       1.0  0.22593488218960536  0.2368486732278895  0.3408859294317636  1.0000
  H   H26       1.0  0.27423715887727695  0.8957879427973549  0.659021837529195  1.0000
  H   H27       1.0  0.7740631640132706  0.7631505130474564  0.6591158097903429  1.0000
  H   H28       1.0  0.725767409365993  0.10421125177754928  0.34097598509994487  1.0000
  H   H29       1.0  0.32237254651626307  0.47406353148598146  0.4127196780436362  1.0000
  H   H30       1.0  0.17779167941469606  0.06118090464315878  0.5871564233365304  1.0000
  H   H31       1.0  0.6776216151896578  0.5259366508855124  0.5872806795862431  1.0000
  H   H32       1.0  0.8222128855271863  0.938818290203642  0.4128405616735264  1.0000
  H   H33       1.0  0.25153000433329004  0.6541667857262681  0.6217887993293727  1.0000
  H   H34       1.0  0.24863395552836917  0.0322801119927618  0.37807456121183947  1.0000
  H   H35       1.0  0.7484601470772034  0.34583139277655306  0.37821131992322404  1.0000
  H   H36       1.0  0.7513666410509146  0.9677180789736468  0.6219218043492842  1.0000
  C   C1        1.0  0.1202126878006951  0.7700809226402399  0.8484428627669869  1.0000
  C   C2        1.0  0.3797230210030094  0.9216975605799856  0.15155030366688027  1.0000
  C   C3        1.0  0.8797852127953973  0.22991526530169895  0.15155499395553557  1.0000
  C   C4        1.0  0.6202764035694344  0.07830362814753042  0.8484473772360628  1.0000
  C   C5        1.0  0.0686688217507196  0.6258643981426673  0.797886595114434  1.0000
  C   C6        1.0  0.4313701074630528  0.827944576556959  0.20200591291353465  1.0000
  C   C7        1.0  0.9313318332683095  0.3741347914525051  0.20211357747048447  1.0000
  C   C8        1.0  0.5686305828860299  0.17205561357029348  0.7979922033615593  1.0000
  C   C9        1.0  0.9708903920509329  0.5923009053778614  0.8730590041543774  1.0000
  C   C10       1.0  0.5291248479835815  0.7192302236395419  0.12680966686159675  1.0000
  C   C11       1.0  0.029109058932590408  0.4077002811744279  0.12694537770128272  1.0000
  C   C12       1.0  0.47088087575959753  0.28076597453377167  0.8731826523302855  1.0000
  C   C13       1.0  0.9223645564127168  0.4579900997608917  0.8338185361834219  1.0000
  C   C14       1.0  0.577641742752043  0.6241168122707136  0.16604462030303313  1.0000
  C   C15       1.0  0.07763223061628823  0.5420100845709115  0.16618444290471499  1.0000
  C   C16       1.0  0.422364084665098  0.37588138424773365  0.8339519624600767  1.0000
  C   C17       1.0  0.9678035739026853  0.3581734267240009  0.7174154430645315  1.0000
  C   C18       1.0  0.5322461699157445  0.6406606961637138  0.2824611807239633  1.0000
  C   C19       1.0  0.032194475601571106  0.6418257592794416  0.28258713377666556  1.0000
  C   C20       1.0  0.4677609751150201  0.35933750092702604  0.717537969196911  1.0000
  C   C21       1.0  0.0622015351257446  0.38848499980889534  0.6357889150582138  1.0000
  C   C22       1.0  0.43792332488001057  0.7525770338689597  0.3641093723106507  1.0000
  C   C23       1.0  0.9377938537253742  0.6115131837021579  0.3642130966345433  1.0000
  C   C24       1.0  0.562080074657807  0.24742515819514213  0.6358906032793995  1.0000
  C   C25       1.0  0.1031296809693458  0.28682465098277277  0.5137955175547119  1.0000
  C   C26       1.0  0.3970399652564113  0.7728902393538419  0.4861310541290108  1.0000
  C   C27       1.0  0.8968683685349106  0.71317453502067  0.4862070592864852  1.0000
  C   C28       1.0  0.6029685228138675  0.227108959656988  0.513866093782532  1.0000
  C   C29       1.0  0.1959360230556584  0.3158711926937842  0.43461861355554277  1.0000
  C   C30       1.0  0.3042392159180238  0.8810967104232647  0.5652832803649445  1.0000
  C   C31       1.0  0.8040633308566781  0.6841279949695719  0.565383179967057  1.0000
  C   C32       1.0  0.6957653942580676  0.11890348413991352  0.434714161192545  1.0000
  C   C33       1.0  0.2503734283416961  0.44970697522041525  0.4752760740483237  1.0000
  C   C34       1.0  0.24978772923515177  0.9742905613784175  0.5246159352071443  1.0000
  C   C35       1.0  0.7496206980341711  0.5502922066189982  0.5247263398913801  1.0000
  C   C36       1.0  0.7502181401148107  0.0257086351282965  0.4753802664843148  1.0000
  C   C37       1.0  0.2117860640884075  0.5513783614651189  0.5926405904838744  1.0000
  C   C38       1.0  0.28836273502857074  0.9586245015308632  0.4072331674254952  1.0000
  C   C39       1.0  0.7882080910147452  0.44862182145018176  0.4073580919078167  1.0000
  C   C40       1.0  0.71164178798049  0.0413736933276709  0.5927641986562121  1.0000
  C   C41       1.0  0.11727122644727929  0.5243879852418162  0.6767516580520193  1.0000
  C   C42       1.0  0.38282884387638916  0.8475489648795501  0.32315220733970307  1.0000
  C   C43       1.0  0.8827254668119267  0.4756101999291431  0.3232495703221473  1.0000
  C   C44       1.0  0.6171757210654929  0.15245022996725777  0.6768447776703465  1.0000
  O   O1        1.0  0.00908303607074152  0.8583428536038583  0.9046857455259667  1.0000
  O   O2        1.0  0.49083383788033064  0.9538106794964423  0.09531631802867224  1.0000
  O   O3        1.0  0.9909215420766841  0.14165634015533612  0.09531458996043798  1.0000
  O   O4        1.0  0.5091643760538389  0.0461925067319982  0.9046838969068316  1.0000
  O   O5        1.0  0.2750480922791425  0.8040864732917469  0.8385394325916165  1.0000
  O   O6        1.0  0.22492013720702894  0.9656328234973729  0.1615269288360822  1.0000
  O   O7        1.0  0.7249524425590083  0.19591071931780848  0.16145228832662176  1.0000
  O   O8        1.0  0.7750804207408136  0.0343643672088589  0.8384706554157829  1.0000
  O   O9        1.0  0.8949526609484195  0.8947445387779213  0.15135218401240272  1.0000
  O   O10       1.0  0.605047394178058  0.7434550109018474  0.848694828330309  1.0000
  O   O11       1.0  0.10503993893092199  0.10527863320648119  0.8486619160839337  1.0000
  O   O12       1.0  0.39494530859403204  0.2565411687690258  0.15131118738111834  1.0000
