data_image0
_chemical_formula_structural       Co4P4H32C28N8O12
_chemical_formula_sum              "Co4 P4 H32 C28 N8 O12"
_cell_length_a       5.28209028504575
_cell_length_b       11.078980228824689
_cell_length_c       17.789978862634634
_cell_angle_alpha    101.80477220961359
_cell_angle_beta     90.00045219592458
_cell_angle_gamma    90.00006206974392

_space_group_name_H-M_alt    "P 1"
_space_group_IT_number       1

loop_
  _space_group_symop_operation_xyz
  'x, y, z'

loop_
  _atom_site_type_symbol
  _atom_site_label
  _atom_site_symmetry_multiplicity
  _atom_site_fract_x
  _atom_site_fract_y
  _atom_site_fract_z
  _atom_site_occupancy
  Co  Co1       1.0  0.799181205831239  0.5124005712188192  0.9104938822440116  1.0000
  Co  Co2       1.0  0.2991841368354926  0.9876031725857144  0.5895040931647129  1.0000
  Co  Co3       1.0  0.2008199904561465  0.48760607162513026  0.08950408474058948  1.0000
  Co  Co4       1.0  0.7008038071700752  0.012401693737892596  0.41049759382860157  1.0000
  P   P1        1.0  0.2823526723290186  0.6552465103500252  0.9692884510107472  1.0000
  P   P2        1.0  0.7823536470603686  0.8447618408154153  0.5307111668019359  1.0000
  P   P3        1.0  0.7176428443686619  0.34476102557540134  0.03070793761106928  1.0000
  P   P4        1.0  0.2176418697125158  0.1552457916989454  0.46929085495943906  1.0000
  H   H1        1.0  0.23931873001691875  0.7810518987472859  0.9700362096237496  1.0000
  H   H2        1.0  0.7393137104472771  0.718958316872694  0.529968030073128  1.0000
  H   H3        1.0  0.7606767867385357  0.21895754891422564  0.02996434536814969  1.0000
  H   H4        1.0  0.26067234042891846  0.2810521397745091  0.4700377063187061  1.0000
  H   H5        1.0  0.0117387453134015  0.5017103569296067  0.7385887874709736  1.0000
  H   H6        1.0  0.5117386578775722  0.9982865714537534  0.7614088134665591  1.0000
  H   H7        1.0  0.9882567713762072  0.4982888997563747  0.2614077235030193  1.0000
  H   H8        1.0  0.4882530725226529  0.0017155576632887993  0.23859422871478828  1.0000
  H   H9        1.0  0.3410524535803461  0.3634836527072379  0.8180442575938469  1.0000
  H   H10       1.0  0.8410399339076307  0.13652289945980559  0.6819540684779637  1.0000
  H   H11       1.0  0.6589695678057056  0.6365184088175935  0.1819548414277462  1.0000
  H   H12       1.0  0.15894422377095202  0.8634847910004024  0.3180513331529226  1.0000
  H   H13       1.0  0.3742586676421666  0.28079557709369135  0.6580268851596499  1.0000
  H   H14       1.0  0.874250608081347  0.2192018563443199  0.8419737881151831  1.0000
  H   H15       1.0  0.6257519946242738  0.7192028348115399  0.34197402075876215  1.0000
  H   H16       1.0  0.1257430155185091  0.7807956914410779  0.15803038607943876  1.0000
  H   H17       1.0  0.8057173706986164  0.2743456833304805  0.5708811193379475  1.0000
  H   H18       1.0  0.3057287423012482  0.22564333190223343  0.9291166880599204  1.0000
  H   H19       1.0  0.19429139835278159  0.7256517775348995  0.4291179850500411  1.0000
  H   H20       1.0  0.6942743472303334  0.7743505179828742  0.07088647648782848  1.0000
  H   H21       1.0  0.0020625708421348997  0.404677441453515  0.5990350496848933  1.0000
  H   H22       1.0  0.5020633664448938  0.09530842515079027  0.9009627889680797  1.0000
  H   H23       1.0  0.9979499845685351  0.5953126429190474  0.4009631620182929  1.0000
  H   H24       1.0  0.4979359366846836  0.9046909088088382  0.09903822852230344  1.0000
  H   H25       1.0  0.8240702400745121  0.34556916440072166  0.4440904091106645  1.0000
  H   H26       1.0  0.324069601267361  0.154423962754926  0.05590697624897699  1.0000
  H   H27       1.0  0.17593663571123128  0.654419930293919  0.5559037478015225  1.0000
  H   H28       1.0  0.6759259154873617  0.8455744587991775  0.9440944929644314  1.0000
  H   H29       1.0  0.42838316063696175  0.5499863726654155  0.6408759969251532  1.0000
  H   H30       1.0  0.9283647401219922  0.950001895991029  0.8591220950612237  1.0000
  H   H31       1.0  0.5716199288016172  0.45000368272420826  0.35912052482431267  1.0000
  H   H32       1.0  0.07162509705311491  0.049998350365363785  0.14087847068954318  1.0000
  C   C1        1.0  0.8318155586640968  0.4548831503317459  0.7394212055634737  1.0000
  C   C2        1.0  0.33181444087603745  0.04511695450625549  0.76057744291041  1.0000
  C   C3        1.0  0.16818563764548597  0.5451180084351747  0.26057890847375376  1.0000
  C   C4        1.0  0.6681772895069499  0.9548897462847916  0.23942390394607554  1.0000
  C   C5        1.0  0.4850309197046628  0.3790118885133608  0.7777262056222438  1.0000
  C   C6        1.0  0.9850326909325915  0.1209875356132954  0.7222749683019741  1.0000
  C   C7        1.0  0.5149740630021498  0.620987455108917  0.22227537518920565  1.0000
  C   C8        1.0  0.0149552530775523  0.8790109052535865  0.2777276275298631  1.0000
  C   C9        1.0  0.4955275667279863  0.3396869108927304  0.699342483354435  1.0000
  C   C10       1.0  0.9955296266527042  0.16030504437865997  0.8006516277193183  1.0000
  C   C11       1.0  0.5044755227034373  0.6603086478917034  0.30065301797031907  1.0000
  C   C12       1.0  0.004467783284219699  0.8396906109909493  0.19934950673788165  1.0000
  C   C13       1.0  0.8043320225567926  0.37318777052993807  0.5972140388895892  1.0000
  C   C14       1.0  0.3043311012889802  0.1268003304587282  0.9027842167506036  1.0000
  C   C15       1.0  0.19567863968946853  0.6268087779336753  0.4027855172285299  1.0000
  C   C16       1.0  0.6956663086679384  0.8731944318256523  0.09721849606227548  1.0000
  C   C17       1.0  0.6459509697264777  0.4409581169016618  0.5483603802633681  1.0000
  C   C18       1.0  0.14594929891028127  0.059029745562227696  0.9516357887177944  1.0000
  C   C19       1.0  0.3540634788693211  0.5590356364020365  0.4516371511590476  1.0000
  C   C20       1.0  0.8540518973910451  0.9409603774384009  0.048364676226988486  1.0000
  C   C21       1.0  0.6847981359172762  0.4149979488973087  0.4688283215974564  1.0000
  C   C22       1.0  0.18479288848788403  0.08499687674937209  0.031171191332901988  1.0000
  C   C23       1.0  0.3152182058660459  0.584997638872572  0.5311688696857572  1.0000
  C   C24       1.0  0.815210201021138  0.9149969441590643  0.9688302832729859  1.0000
  C   C25       1.0  0.4598944542102715  0.5268606382333869  0.5789678485968961  1.0000
  C   C26       1.0  0.9598872044286892  0.9731277010984483  0.9210320122754961  1.0000
  C   C27       1.0  0.5401256739528576  0.47313494953900187  0.4210293426910637  1.0000
  C   C28       1.0  0.040113991885291994  0.0268642756849005  0.07896923915563288  1.0000
  N   N1        1.0  0.6964438445675185  0.45020124760321056  0.8020946462282693  1.0000
  N   N2        1.0  0.19644106678322965  0.049803269120616285  0.6979030944646424  1.0000
  N   N3        1.0  0.30356113810462665  0.5498044828402228  0.19790377248884275  1.0000
  N   N4        1.0  0.8035563431942306  0.9501988696590826  0.30210051103777846  1.0000
  N   N5        1.0  0.7163565579779672  0.3886515052625299  0.6761402368706155  1.0000
  N   N6        1.0  0.2163478166278239  0.11134293375756238  0.8238585795003173  1.0000
  N   N7        1.0  0.28365031786849226  0.6113459362838114  0.32385774088708524  1.0000
  N   N8        1.0  0.7836439137672714  0.8886573512356505  0.17614423950864475  1.0000
  O   O1        1.0  0.13550260911296158  0.5793449946613265  0.900801576674432  1.0000
  O   O2        1.0  0.6355169468466073  0.9206686945930327  0.5991983428389883  1.0000
  O   O3        1.0  0.8644910143874754  0.4206652881308058  0.09919402007567865  1.0000
  O   O4        1.0  0.3644785699040796  0.07934442199834989  0.4008015318697672  1.0000
  O   O5        1.0  0.5706834662864749  0.6387419744965894  0.9605940450715236  1.0000
  O   O6        1.0  0.0706904449409436  0.8612604773202858  0.5393993032123986  1.0000
  O   O7        1.0  0.4293082639987417  0.3612646007288518  0.03939997870353549  1.0000
  O   O8        1.0  0.9293050718090113  0.1387416131636883  0.46060148571786635  1.0000
  O   O9        1.0  0.18578958165902293  0.6374022079734373  0.04826903286831198  1.0000
  O   O10       1.0  0.6857677457881195  0.8626027845251513  0.4517323622428718  1.0000
  O   O11       1.0  0.814204041843432  0.36260072730005527  0.9517273611341248  1.0000
  O   O12       1.0  0.3142258777871518  0.1374020818022146  0.5482693247575553  1.0000
