data_image0
_chemical_formula_structural       Zn8H96C160N8O32
_chemical_formula_sum              "Zn8 H96 C160 N8 O32"
_cell_length_a       20.075454652519102
_cell_length_b       20.247328276865044
_cell_length_c       20.247348613092043
_cell_angle_alpha    66.78401843958768
_cell_angle_beta     61.636085239923105
_cell_angle_gamma    61.63578948235792

_space_group_name_H-M_alt    "P 1"
_space_group_IT_number       1

loop_
  _space_group_symop_operation_xyz
  'x, y, z'

loop_
  _atom_site_type_symbol
  _atom_site_label
  _atom_site_symmetry_multiplicity
  _atom_site_fract_x
  _atom_site_fract_y
  _atom_site_fract_z
  _atom_site_occupancy
  Zn  Zn1       1.0  0.5791026022700835  0.07400018939424768  0.5446265358940675  1.0000
  Zn  Zn2       1.0  0.9208986294486297  0.4553738993419998  0.9260012304452655  1.0000
  Zn  Zn3       1.0  0.42089590327302057  0.9259977109116662  0.45537593296953816  1.0000
  Zn  Zn4       1.0  0.07910071406695347  0.5446262981798711  0.0740004399831093  1.0000
  Zn  Zn5       1.0  0.48202789454039413  0.1422550837594656  0.6747557945498099  1.0000
  Zn  Zn6       1.0  0.01797275390767791  0.3252427409681076  0.857749672341974  1.0000
  Zn  Zn7       1.0  0.5179747102801286  0.8577439568674946  0.3252448168412058  1.0000
  Zn  Zn8       1.0  0.9820235666376932  0.6747580330726707  0.14225070516751254  1.0000
  H   H1        1.0  0.3151855130985198  0.24983037245951314  0.7190783019915157  1.0000
  H   H2        1.0  0.18480828268791782  0.2809324190759739  0.7501630650963587  1.0000
  H   H3        1.0  0.6848164393934724  0.7501703954622484  0.28092292081188225  1.0000
  H   H4        1.0  0.8151797359663534  0.7190786976649761  0.24982820890347304  1.0000
  H   H5        1.0  0.32225484782745184  0.014745668255727703  0.8006806276259577  1.0000
  H   H6        1.0  0.1777511380725656  0.19932853789076432  0.9852483860299368  1.0000
  H   H7        1.0  0.6777503652845456  0.9852447564076456  0.1993261122763242  1.0000
  H   H8        1.0  0.8222609703023168  0.8006739219704216  0.014743999522991692  1.0000
  H   H9        1.0  0.19216115231542125  0.44370225632763993  0.8353455883768887  1.0000
  H   H10       1.0  0.30783768684483453  0.1646567175494553  0.5562954185453606  1.0000
  H   H11       1.0  0.8078403049024845  0.556296790205131  0.16465703515595467  1.0000
  H   H12       1.0  0.6921600099954759  0.8353434723376977  0.44370158632087714  1.0000
  H   H13       1.0  0.21819175242578845  0.3935360321706511  0.08147028657138833  1.0000
  H   H14       1.0  0.28180813677077066  0.9185285190964619  0.6064679503832051  1.0000
  H   H15       1.0  0.7818176274652445  0.606467590677319  0.9185263656309881  1.0000
  H   H16       1.0  0.7181880263776961  0.08147111044637259  0.39353492587735406  1.0000
  H   H17       1.0  0.7456559993365631  0.19855937659441028  0.41384118622541155  1.0000
  H   H18       1.0  0.7543437085137729  0.5861599857594514  0.80144245406899  1.0000
  H   H19       1.0  0.25433529854235115  0.8014442790291483  0.5861589080563617  1.0000
  H   H20       1.0  0.24565456867947696  0.4138430859760263  0.1985580872279086  1.0000
  H   H21       1.0  0.12574194330501604  0.8238821453293568  0.9981574059701965  1.0000
  H   H22       1.0  0.37426434755202115  0.0018416419092587993  0.176113211427129  1.0000
  H   H23       1.0  0.8742508359126759  0.17611919594617123  0.0018369838260881052  1.0000
  H   H24       1.0  0.6257441086075062  0.9981614096607955  0.8238845881430733  1.0000
  H   H25       1.0  0.9339844652341398  0.3983512036660173  0.21756572916327593  1.0000
  H   H26       1.0  0.5660048038707544  0.7824288604430906  0.6016617926798628  1.0000
  H   H27       1.0  0.06601210810957532  0.6016489868064809  0.7824308092077316  1.0000
  H   H28       1.0  0.4339899778191098  0.2175667611357213  0.3983482400194872  1.0000
  H   H29       1.0  0.6393595036091995  0.4185607811504823  0.5356719387100242  1.0000
  H   H30       1.0  0.8606437982301787  0.46432265123409894  0.5814454840700519  1.0000
  H   H31       1.0  0.36063807888733396  0.5814457342410009  0.46432510138514965  1.0000
  H   H32       1.0  0.13936522897758866  0.5356758047333585  0.4185548453610578  1.0000
  H   H33       1.0  0.4766203265513271  0.9029296227757156  0.6102900816365348  1.0000
  H   H34       1.0  0.023395543876979723  0.3897192148802944  0.09706321806346803  1.0000
  H   H35       1.0  0.5233837014110563  0.09706252309057821  0.3897140620660551  1.0000
  H   H36       1.0  0.97661734529612  0.6102826685685798  0.9029290316904761  1.0000
  H   H37       1.0  0.5780091593125862  0.31621515162760977  0.5985112227667881  1.0000
  H   H38       1.0  0.9219935112588828  0.4014888955301075  0.6837899947139758  1.0000
  H   H39       1.0  0.4219869087769226  0.6837907991631836  0.4014897058130629  1.0000
  H   H40       1.0  0.07800344612876842  0.5985084476237715  0.3162198327261903  1.0000
  H   H41       1.0  0.24788952920724228  0.9020807743109529  0.9330851903093346  1.0000
  H   H42       1.0  0.2521138393241956  0.0669187294125138  0.09791250135593538  1.0000
  H   H43       1.0  0.7521100712429459  0.0979096522150584  0.06691872138939194  1.0000
  H   H44       1.0  0.7478900271050221  0.9330814593834094  0.9020880606888894  1.0000
  H   H45       1.0  0.17875037168271746  0.9593478819238045  0.8844537488391776  1.0000
  H   H46       1.0  0.32125648230763915  0.11554593716202528  0.04064932986592851  1.0000
  H   H47       1.0  0.8212508905912941  0.04065173540813301  0.11554676510321117  1.0000
  H   H48       1.0  0.6787521594910759  0.8844490661579414  0.9593495727249814  1.0000
  H   H49       1.0  0.31083797230545684  0.29533416801233153  0.0008646790806708173  1.0000
  H   H50       1.0  0.18916189114128906  0.9991393839227101  0.7046667290667441  1.0000
  H   H51       1.0  0.6891740833786528  0.7046728967356088  0.9991298714056711  1.0000
  H   H52       1.0  0.8108302639949232  0.0008665646604341998  0.2953305838701538  1.0000
  H   H53       1.0  0.22058842004089738  0.3371802341348412  0.8110020997787684  1.0000
  H   H54       1.0  0.2794075806211254  0.18900763988080632  0.6628130091183805  1.0000
  H   H55       1.0  0.7794191172083202  0.6628222450932099  0.18899635143183963  1.0000
  H   H56       1.0  0.7205798098106372  0.8110051988344865  0.33717639765678337  1.0000
  H   H57       1.0  0.7191748696111729  0.5103251320149697  0.44552858760819447  1.0000
  H   H58       1.0  0.7808218485331367  0.5544708821551936  0.48967855779083175  1.0000
  H   H59       1.0  0.2808311914581835  0.48967218091790693  0.5544730743359169  1.0000
  H   H60       1.0  0.21917581421627835  0.4455247219988648  0.5103252052354106  1.0000
  H   H61       1.0  0.32754385372166456  0.7133011743375235  0.766046126014565  1.0000
  H   H62       1.0  0.17246462080957778  0.23395471728900213  0.28669224854778713  1.0000
  H   H63       1.0  0.6724618787704416  0.2866909663943815  0.2339567345212216  1.0000
  H   H64       1.0  0.8275309378799351  0.7660420357259736  0.7133095699191684  1.0000
  H   H65       1.0  0.8141654586141626  0.577451914421367  0.34217294237577517  1.0000
  H   H66       1.0  0.6858239180436458  0.6578248577458511  0.4225575581138941  1.0000
  H   H67       1.0  0.1858371799547811  0.4225471187569454  0.6578241989233501  1.0000
  H   H68       1.0  0.31417046411601746  0.3421719075594822  0.5774492468593592  1.0000
  H   H69       1.0  0.4138938697443211  0.8030412074207047  0.6733635036111209  1.0000
  H   H70       1.0  0.08612187391432265  0.3266413745516843  0.19695175170936338  1.0000
  H   H71       1.0  0.5861113626524885  0.19694921298629714  0.326641253381517  1.0000
  H   H72       1.0  0.9138847113563392  0.6733576533856364  0.8030455351408318  1.0000
  H   H73       1.0  0.23107637543671447  0.6490744085995601  0.8720116921821485  1.0000
  H   H74       1.0  0.26892249355039166  0.12798134746388007  0.3509274831216657  1.0000
  H   H75       1.0  0.7689138664424464  0.3509292327120476  0.1279809954206285  1.0000
  H   H76       1.0  0.7310737980677546  0.8720194329614513  0.6490758687522982  1.0000
  H   H77       1.0  0.49703160406676966  0.16627524911061897  0.8044703400098142  1.0000
  H   H78       1.0  0.0029675667197892877  0.19553252629112453  0.8337235251853767  1.0000
  H   H79       1.0  0.5029769574790636  0.8337306654467724  0.1955218396500271  1.0000
  H   H80       1.0  0.9970228463397176  0.8044751427235254  0.1662704625767902  1.0000
  H   H81       1.0  0.10145295449642334  0.5322423874845725  0.9260450883299566  1.0000
  H   H82       1.0  0.398546177098794  0.07395393047931982  0.4677580272549731  1.0000
  H   H83       1.0  0.8985491550500058  0.4677549317533971  0.07395692379050456  1.0000
  H   H84       1.0  0.6014535473423448  0.9260422411750258  0.532243567716442  1.0000
  H   H85       1.0  0.4144228001784711  0.2551265710305799  0.8957065556608368  1.0000
  H   H86       1.0  0.08557659123884778  0.10429821164554201  0.7448709318233494  1.0000
  H   H87       1.0  0.5855888652753904  0.7448770421339574  0.10428706371270381  1.0000
  H   H88       1.0  0.9144128932679509  0.89570888715528  0.2551246990340558  1.0000
  H   H89       1.0  0.8147566724714113  0.3154528087964934  0.27939815363909276  1.0000
  H   H90       1.0  0.6852438688482324  0.7206009478094797  0.6845474983872036  1.0000
  H   H91       1.0  0.18524503754482421  0.6845456541679978  0.7206006307552709  1.0000
  H   H92       1.0  0.31475593205198754  0.2793980932167557  0.3154514510383277  1.0000
  H   H93       1.0  0.8840239252323985  0.2622107918214027  0.3280765008026519  1.0000
  H   H94       1.0  0.6159786532892968  0.6719210681956227  0.7377937876697656  1.0000
  H   H95       1.0  0.11597166652536832  0.7377888401422937  0.6719271336651216  1.0000
  H   H96       1.0  0.3840244368204396  0.3280751027667749  0.2622097025147525  1.0000
  C   C1        1.0  0.33301589606615073  0.2522060840900408  0.7608974106064537  1.0000
  C   C2        1.0  0.166979549301125  0.2391096380958544  0.7477912905699141  1.0000
  C   C3        1.0  0.6669862754757504  0.7477941077120889  0.23910344315034848  1.0000
  C   C4        1.0  0.8330099400268767  0.7608974596408798  0.25220384456007844  1.0000
  C   C5        1.0  0.9349088780605045  0.5331486328998949  0.21396029107415138  1.0000
  C   C6        1.0  0.56508214124635  0.7860326867209153  0.4668600286228393  1.0000
  C   C7        1.0  0.06508586262627605  0.4668550050062379  0.7860337667821322  1.0000
  C   C8        1.0  0.43492019217119815  0.213964055333328  0.5331411187236056  1.0000
  C   C9        1.0  0.25910990347609447  0.3607751787841167  0.9108027964588385  1.0000
  C   C10       1.0  0.24089045568166512  0.08919877293616452  0.6392246221449792  1.0000
  C   C11       1.0  0.7408979192972469  0.6392250026426324  0.08919691968222308  1.0000
  C   C12       1.0  0.7591027657768735  0.9108043014333731  0.36077381992339497  1.0000
  C   C13       1.0  0.31033031554570567  0.30511344894657805  0.8604924504016577  1.0000
  C   C14       1.0  0.18966785535609185  0.13951268585967824  0.6948833965960612  1.0000
  C   C15       1.0  0.6896771886352653  0.6948861513327528  0.13950418480813198  1.0000
  C   C16       1.0  0.8103231098093104  0.8604949849904813  0.3051118158685497  1.0000
  C   C17       1.0  0.6180010635727272  0.1941940264079562  0.5467950272547666  1.0000
  C   C18       1.0  0.8819952606503139  0.45320798792065625  0.8058099917238833  1.0000
  C   C19       1.0  0.3819948660622148  0.805806182446787  0.4532097052346272  1.0000
  C   C20       1.0  0.11799363663705982  0.5467928165271871  0.194199746751913  1.0000
  C   C21       1.0  0.11764618758365233  0.6928545696283378  0.0038088490680579234  1.0000
  C   C22       1.0  0.3823563489715127  0.9961854574575854  0.3071458557859115  1.0000
  C   C23       1.0  0.8823491523984117  0.30714735268800547  0.9961900503773645  1.0000
  C   C24       1.0  0.6176480268529403  0.0038118563533160008  0.6928551064153509  1.0000
  C   C25       1.0  0.40391311024338705  0.963323390093649  0.7025834893396449  1.0000
  C   C26       1.0  0.09609313599741405  0.297423300396332  0.03667349119790939  1.0000
  C   C27       1.0  0.5960871043081681  0.03666991083204609  0.29742048869785964  1.0000
  C   C28       1.0  0.9039164774071369  0.7025797431397294  0.9633213047756327  1.0000
  C   C29       1.0  0.44479970280882947  0.0211105285801167  0.6652360063002476  1.0000
  C   C30       1.0  0.05520146764297347  0.3347704643046042  0.9788876245302516  1.0000
  C   C31       1.0  0.555204883103301  0.9788833248419659  0.3347602922165435  1.0000
  C   C32       1.0  0.944797500110738  0.665238351202433  0.021110337559548484  1.0000
  C   C33       1.0  0.6584335422496538  0.2524329867815354  0.5095237406308114  1.0000
  C   C34       1.0  0.8415674716352868  0.49047639436521695  0.7475693920875556  1.0000
  C   C35       1.0  0.34156070248285897  0.747571816132968  0.4904770040476194  1.0000
  C   C36       1.0  0.15842820106028913  0.5095215127245254  0.2524343891750362  1.0000
  C   C37       1.0  0.34054275155919805  0.9682707667084147  0.7742319546711441  1.0000
  C   C38       1.0  0.1594647832640632  0.22577676661220633  0.031722481496309726  1.0000
  C   C39       1.0  0.6594624808376182  0.0317196536985875  0.22577280232149372  1.0000
  C   C40       1.0  0.8405457442295869  0.77422685032996  0.9682721585642395  1.0000
  C   C41       1.0  0.3034109939188241  0.9142111630445344  0.8088643991370146  1.0000
  C   C42       1.0  0.19660024164375758  0.1911388368690794  0.08578271890122825  1.0000
  C   C43       1.0  0.6965962240530886  0.0857815486726068  0.19113754727856494  1.0000
  C   C44       1.0  0.8034098859772316  0.8088613306178657  0.9142119815013525  1.0000
  C   C45       1.0  0.8788129871641674  0.49182325074018257  0.2745133741145264  1.0000
  C   C46       1.0  0.6211763895310726  0.7254832304379873  0.5081851510421413  1.0000
  C   C47       1.0  0.12118571916667527  0.508175784486845  0.7254821344512975  1.0000
  C   C48       1.0  0.3788199782036942  0.2745158261774918  0.4918188433540535  1.0000
  C   C49       1.0  0.19976867759164213  0.4291335831278715  0.8897681963499121  1.0000
  C   C50       1.0  0.300232751500161  0.11023275638274302  0.5708663261184481  1.0000
  C   C51       1.0  0.8002360409311962  0.5708643065099892  0.11023336814557191  1.0000
  C   C52       1.0  0.6997661304897561  0.8897657123014895  0.4291332749474818  1.0000
  C   C53       1.0  0.758037008132341  0.30343935796826577  0.40373505183942615  1.0000
  C   C54       1.0  0.7419652448044971  0.5962638910875525  0.6965621646588714  1.0000
  C   C55       1.0  0.24195925076002583  0.6965631366900878  0.5962631959655907  1.0000
  C   C56       1.0  0.258037165072139  0.4037357203385739  0.303436337141683  1.0000
  C   C57       1.0  0.21488890833251878  0.40137320842347174  0.02652879817176765  1.0000
  C   C58       1.0  0.2851115880259983  0.9734702847442447  0.5986288472452939  1.0000
  C   C59       1.0  0.7851181529274242  0.5986275451592106  0.9734690708586341  1.0000
  C   C60       1.0  0.714885713082687  0.026529341020960794  0.40137300832825656  1.0000
  C   C61       1.0  0.7732146487864928  0.41661188962555673  0.38825185579233296  1.0000
  C   C62       1.0  0.7267829381221422  0.611746066801082  0.5833937696699321  1.0000
  C   C63       1.0  0.22678584233171514  0.583388301990503  0.6117478024942143  1.0000
  C   C64       1.0  0.2732167525705691  0.3882501123019111  0.41661129539337327  1.0000
  C   C65       1.0  0.7237921806037307  0.24696454874785448  0.4391446573900025  1.0000
  C   C66       1.0  0.7762076498085481  0.5608565954808282  0.7530359832727525  1.0000
  C   C67       1.0  0.27620102157000304  0.7530385298780543  0.5608557675880163  1.0000
  C   C68       1.0  0.22379070350132227  0.43914475244479684  0.24696520054638424  1.0000
  C   C69       1.0  0.2237482238033834  0.8366728697368302  0.8891114637595122  1.0000
  C   C70       1.0  0.276255579815981  0.11088715011860019  0.16332624642091523  1.0000
  C   C71       1.0  0.7762476496799309  0.1633261722740258  0.11088535720529791  1.0000
  C   C72       1.0  0.7237488483615382  0.8891130383846502  0.8366745488715206  1.0000
  C   C73       1.0  0.17343215039684184  0.7331545665355533  0.9402622236890749  1.0000
  C   C74       1.0  0.32656885636458816  0.05973464091674429  0.26684422210075087  1.0000
  C   C75       1.0  0.8265607765753419  0.26684792136610014  0.05973065881095606  1.0000
  C   C76       1.0  0.6734333723515887  0.9402684245136471  0.7331559690198117  1.0000
  C   C77       1.0  0.17007788890991543  0.8011684698433116  0.9469553512061847  1.0000
  C   C78       1.0  0.3299258605577862  0.05304279919324979  0.19882847409427018  1.0000
  C   C79       1.0  0.8299154375924617  0.1988328743318206  0.053040759019943096  1.0000
  C   C80       1.0  0.6700804199039474  0.9469585308017369  0.8011695307351158  1.0000
  C   C81       1.0  0.8332125172559517  0.3852247144503025  0.3234628896920523  1.0000
  C   C82       1.0  0.6667871116145534  0.6765318669934998  0.614780382496626  1.0000
  C   C83       1.0  0.1667882931348005  0.6147731719158072  0.6765345634330656  1.0000
  C   C84       1.0  0.3332147120652921  0.3234631568640296  0.38522365276149617  1.0000
  C   C85       1.0  0.8864725145729014  0.4220345632139626  0.2673028923966001  1.0000
  C   C86       1.0  0.613522647216854  0.7326914914381392  0.5779727051668359  1.0000
  C   C87       1.0  0.11352617729433234  0.5779644752053485  0.7326941033514556  1.0000
  C   C88       1.0  0.3864759344428705  0.2673046850579297  0.42203040621900095  1.0000
  C   C89       1.0  0.7272709980422861  0.365722621163563  0.4382078537124768  1.0000
  C   C90       1.0  0.7727309059340615  0.561789868789127  0.6342782023523764  1.0000
  C   C91       1.0  0.2727270270328077  0.634278147742819  0.5617912406302068  1.0000
  C   C92       1.0  0.22727036116115334  0.43820974747871594  0.36572181586259933  1.0000
  C   C93       1.0  0.32997794897201516  0.8536013621262626  0.7735758164396032  1.0000
  C   C94       1.0  0.1700322458742818  0.2264273937089953  0.14639240174206233  1.0000
  C   C95       1.0  0.6700289927757198  0.14638905208226297  0.22642716165881885  1.0000
  C   C96       1.0  0.8299731397831636  0.7735733586235227  0.853603776090672  1.0000
  C   C97       1.0  0.6628319598017357  0.37081871194891397  0.5087801158671751  1.0000
  C   C98       1.0  0.8371705563701752  0.4912191247504154  0.6291847914692923  1.0000
  C   C99       1.0  0.3371645608512068  0.6291860834103389  0.4912185874372381  1.0000
  C   C100      1.0  0.1628333717120469  0.5087793434279391  0.37081790027999517  1.0000
  C   C101      1.0  0.42917599676170687  0.9040534355179517  0.6669926090276945  1.0000
  C   C102      1.0  0.07083683907839604  0.3330165106165381  0.09594003552970778  1.0000
  C   C103      1.0  0.5708292356351096  0.09593698488905028  0.33301214796494344  1.0000
  C   C104      1.0  0.9291738881803512  0.6669865344623674  0.9040562183938899  1.0000
  C   C105      1.0  0.6287943554695233  0.31397511090041524  0.5439624504182274  1.0000
  C   C106      1.0  0.8712082074383504  0.45603659644833533  0.6860312610574651  1.0000
  C   C107      1.0  0.37120251752421046  0.686030258157615  0.45603586372557436  1.0000
  C   C108      1.0  0.1287894739157097  0.5439618898467201  0.3139758051518342  1.0000
  C   C109      1.0  0.23403485017752954  0.9078621451551214  0.8840821337955375  1.0000
  C   C110      1.0  0.2659711327045216  0.11591866637706262  0.09213308528501324  1.0000
  C   C111      1.0  0.7659660979828475  0.09213229678356781  0.11591809155628838  1.0000
  C   C112      1.0  0.7340362333643569  0.8840797851479535  0.9078640657661978  1.0000
  C   C113      1.0  0.26688114418465153  0.3478105576125401  0.9805760744699652  1.0000
  C   C114      1.0  0.23311936649044185  0.0194259461863737  0.6521905240356104  1.0000
  C   C115      1.0  0.7331294969726017  0.652189620222657  0.01942381645434923  1.0000
  C   C116      1.0  0.766874906826821  0.9805742571618338  0.347810534346472  1.0000
  C   C117      1.0  0.2819414090836931  0.3018487112807762  0.810883280870186  1.0000
  C   C118      1.0  0.21805484181020773  0.1891255961382399  0.6981457550029688  1.0000
  C   C119      1.0  0.7180633810770303  0.6981520487930697  0.18911613380682005  1.0000
  C   C120      1.0  0.7819355619493608  0.8108866681863347  0.30184593614590227  1.0000
  C   C121      1.0  0.7655667222616745  0.4859532375653757  0.39575337385621584  1.0000
  C   C122      1.0  0.7344270319704052  0.6042443588667938  0.5140525602988005  1.0000
  C   C123      1.0  0.23443597796028107  0.5140440749953683  0.6042458971473862  1.0000
  C   C124      1.0  0.26556882602666587  0.3957529795519719  0.48595432200907124  1.0000
  C   C125      1.0  0.2835640708821927  0.7380092810126229  0.8162506594729493  1.0000
  C   C126      1.0  0.21644164855813133  0.18374806750844644  0.261987496523055  1.0000
  C   C127      1.0  0.7164372440825916  0.26198573143255993  0.18374768953602671  1.0000
  C   C128      1.0  0.7835566572198759  0.8162504046607352  0.7380133584775022  1.0000
  C   C129      1.0  0.2808188834467701  0.8053536804646058  0.8235328068384573  1.0000
  C   C130      1.0  0.21918754144512326  0.17646681861421598  0.19464378156477832  1.0000
  C   C131      1.0  0.719180850636775  0.1946424890615575  0.17646779667813206  1.0000
  C   C132      1.0  0.7808154350010101  0.8235327914551436  0.8053544577559744  1.0000
  C   C133      1.0  0.8181363044989781  0.5233910871145541  0.3383640029509675  1.0000
  C   C134      1.0  0.6818542327727357  0.6616322237417763  0.47661713928953015  1.0000
  C   C135      1.0  0.18186407261315907  0.47660795042673243  0.6616336925399365  1.0000
  C   C136      1.0  0.3181425062451737  0.3383628091343668  0.5233877711045306  1.0000
  C   C137      1.0  0.3932853763596072  0.8484592411922736  0.7022440434213021  1.0000
  C   C138      1.0  0.10672780214699168  0.2977620004787483  0.15153365538976252  1.0000
  C   C139      1.0  0.6067198560372021  0.15153117921472867  0.2977607135713355  1.0000
  C   C140      1.0  0.8932816063287844  0.7022370228029332  0.8484633105162656  1.0000
  C   C141      1.0  0.22996037390037577  0.7022065123114131  0.8749795891954051  1.0000
  C   C142      1.0  0.2700427622432215  0.1250154721186192  0.2977925877697486  1.0000
  C   C143      1.0  0.7700345238408347  0.2977936769109207  0.12501525797792817  1.0000
  C   C144      1.0  0.7299573668917818  0.8749841479268524  0.7022084511322289  1.0000
  C   C145      1.0  0.43561196471009106  0.20585324136062874  0.8080098427801726  1.0000
  C   C146      1.0  0.06438689352794573  0.19199322670820607  0.7941453298713835  1.0000
  C   C147      1.0  0.564396729784157  0.7941492298334296  0.1919856048337819  1.0000
  C   C148      1.0  0.9356022289956416  0.8080133005220276  0.20585168160145872  1.0000
  C   C149      1.0  0.1496998384462601  0.47947194704183704  0.9390491994537907  1.0000
  C   C150      1.0  0.35029814456920866  0.0609507694092173  0.5205314171312805  1.0000
  C   C151      1.0  0.8503008331522254  0.5205276769673333  0.06095405560544971  1.0000
  C   C152      1.0  0.6497017083416098  0.9390465531276246  0.47947065345353906  1.0000
  C   C153      1.0  0.3887561513413831  0.2548692886935768  0.8589829142660361  1.0000
  C   C154      1.0  0.11124237921026037  0.14102281653679682  0.7451272948579373  1.0000
  C   C155      1.0  0.6112527573815711  0.7451326074449371  0.14101266002872864  1.0000
  C   C156      1.0  0.8887455485213139  0.8589854340245464  0.25486811187002445  1.0000
  C   C157      1.0  0.8272208870092047  0.3116466251636679  0.3285525010930283  1.0000
  C   C158      1.0  0.6727773098955582  0.6714476462200025  0.688356697235754  1.0000
  C   C159      1.0  0.17277607622228439  0.6883524237104908  0.6714482564589018  1.0000
  C   C160      1.0  0.3272226714849469  0.3285508271993435  0.31164584896247044  1.0000
  N   N1        1.0  0.1567649182122537  0.46564422451396587  0.006512716130210135  1.0000
  N   N2        1.0  0.34323392888192233  0.9934842657233174  0.5343614497847609  1.0000
  N   N3        1.0  0.8432356204378167  0.5343588428585376  0.9934872709749165  1.0000
  N   N4        1.0  0.6567656905153784  0.006513636125433199  0.46564247702889333  1.0000
  N   N5        1.0  0.40853464247161514  0.2051589031402941  0.7590149901226794  1.0000
  N   N6        1.0  0.09146259451770081  0.24099010676430774  0.7948413092963517  1.0000
  N   N7        1.0  0.5914700095770158  0.7948407081792295  0.24098494039574073  1.0000
  N   N8        1.0  0.9085262993135717  0.7590169987137472  0.20515706267790523  1.0000
  O   O1        1.0  0.49312499820595707  0.0222592947196318  0.5956729305915969  1.0000
  O   O2        1.0  0.006876035607774607  0.4043299953008698  0.9777427043837573  1.0000
  O   O3        1.0  0.5068768637010453  0.9777311274434126  0.4043304269153506  1.0000
  O   O4        1.0  0.9931180317580868  0.5956644810085763  0.022269098091633865  1.0000
  O   O5        1.0  0.06507671165219618  0.725388296469859  0.059994563074333526  1.0000
  O   O6        1.0  0.4349293801458956  0.9400048318465789  0.2746076974932592  1.0000
  O   O7        1.0  0.9349311586482403  0.27460268795248777  0.9400067719288568  1.0000
  O   O8        1.0  0.5650647447367023  0.059997111272863904  0.725400154277764  1.0000
  O   O9        1.0  0.5574435491393289  0.20390151686209634  0.609273794211276  1.0000
  O   O10       1.0  0.9425512364605099  0.3907269231645997  0.7961091738289665  1.0000
  O   O11       1.0  0.4425550118752356  0.7961004366850659  0.3907418722696149  1.0000
  O   O12       1.0  0.057430123558020754  0.6092606848546893  0.20390925286104528  1.0000
  O   O13       1.0  0.0005177177869128858  0.4946247633966792  0.16870484068761013  1.0000
  O   O14       1.0  0.4994734095660717  0.831290772309771  0.5053825283407745  1.0000
  O   O15       1.0  0.9994870961373581  0.5053713981749581  0.8312953834204604  1.0000
  O   O16       1.0  0.5005178731642986  0.1687037001425864  0.49462562925948106  1.0000
  O   O17       1.0  0.6458975863977019  0.14011236036397182  0.5128675932349435  1.0000
  O   O18       1.0  0.8540987182750824  0.4871389306728204  0.8598904992133071  1.0000
  O   O19       1.0  0.35408754535316705  0.8598970680814517  0.4871390203262321  1.0000
  O   O20       1.0  0.14590510130720696  0.5128675687301438  0.14010315787668054  1.0000
  O   O21       1.0  0.9119837025033068  0.6042555455498186  0.21203820189022346  1.0000
  O   O22       1.0  0.5880096236667713  0.7879527887833291  0.39575207494938497  1.0000
  O   O23       1.0  0.08800713073155458  0.3957452026872019  0.7879464585029934  1.0000
  O   O24       1.0  0.41199798454015724  0.21205544727806822  0.6042495125354461  1.0000
  O   O25       1.0  0.12701726856140283  0.6287877436048106  0.9970528452204942  1.0000
  O   O26       1.0  0.37297561910821747  0.0029409843961544996  0.3712166535134854  1.0000
  O   O27       1.0  0.8729763059181153  0.37121301806612916  0.002939921594567584  1.0000
  O   O28       1.0  0.6270232480803911  0.9970649670594586  0.6287864327592626  1.0000
  O   O29       1.0  0.4281527925306889  0.06475827008960523  0.7065323879415287  1.0000
  O   O30       1.0  0.07184440591117186  0.2934695830575364  0.9352492537104734  1.0000
  O   O31       1.0  0.5718435428207657  0.9352470939406385  0.2934632143175974  1.0000
  O   O32       1.0  0.9281631654289412  0.7065374819036023  0.06474243934012959  1.0000
