data_image0
_chemical_formula_structural       Al2H12C30Cl6O12
_chemical_formula_sum              "Al2 H12 C30 Cl6 O12"
_cell_length_a       4.03356354801701
_cell_length_b       17.22735201647529
_cell_length_c       17.22737903943608
_cell_angle_alpha    119.99969333056103
_cell_angle_beta     89.99968302615427
_cell_angle_gamma    90.00009752383838

_space_group_name_H-M_alt    "P 1"
_space_group_IT_number       1

loop_
  _space_group_symop_operation_xyz
  'x, y, z'

loop_
  _atom_site_type_symbol
  _atom_site_label
  _atom_site_symmetry_multiplicity
  _atom_site_fract_x
  _atom_site_fract_y
  _atom_site_fract_z
  _atom_site_occupancy
  Al  Al1       1.0  0.9935814576522548  0.5000008502944696  0.49999908317705877  1.0000
  Al  Al2       1.0  0.0063302981414779  0.16666736719367503  0.8333335906718203  1.0000
  H   H1        1.0  0.2759735817907226  0.11298326070870246  0.5301802554936828  1.0000
  H   H2        1.0  0.7173996080161159  0.11329723886798598  0.5318150840144042  1.0000
  H   H3        1.0  0.7241145563696065  0.1967885893166041  0.44641192704985133  1.0000
  H   H4        1.0  0.2826166186954353  0.19839971262982198  0.4466505871020274  1.0000
  H   H5        1.0  0.27596985813335106  0.917193855839784  0.8870130795392298  1.0000
  H   H6        1.0  0.7174008687833293  0.9185146007538235  0.8867007859655727  1.0000
  H   H7        1.0  0.7241173742473636  0.7496219306549179  0.8032123096949845  1.0000
  H   H8        1.0  0.28261200968421474  0.7482478570463871  0.8015985352821245  1.0000
  H   H9        1.0  0.27597257252579516  0.4698200648605777  0.0828031400930555  1.0000
  H   H10       1.0  0.7173961466740123  0.4681871012391952  0.08148226982136447  1.0000
  H   H11       1.0  0.7241081711816265  0.5535885729612601  0.2503760543064713  1.0000
  H   H12       1.0  0.2826102138380051  0.5533510145851183  0.25174941435484743  1.0000
  C   C1        1.0  0.4967689932829984  0.429802802090137  0.3631106924911974  1.0000
  C   C2        1.0  0.4967567024197593  0.43331175269666733  0.5701979398842808  1.0000
  C   C3        1.0  0.49676242721997727  0.6368895026494457  0.5666896442107613  1.0000
  C   C4        1.0  0.5032417967257318  0.23689108558335897  0.7667062159588837  1.0000
  C   C5        1.0  0.5032435789184434  0.02981677452402201  0.763110551385779  1.0000
  C   C6        1.0  0.5032419181043936  0.23329481141757918  0.9701843836766953  1.0000
  C   C7        1.0  0.4965462216054919  0.2889435737942704  0.7188727401400355  1.0000
  C   C8        1.0  0.503462160169164  0.38550498440879727  0.6223093042268246  1.0000
  C   C9        1.0  0.4949307035345144  0.24575907654295293  0.6258026404844799  1.0000
  C   C10       1.0  0.4997126852226473  0.4309767092116346  0.7169534629533911  1.0000
  C   C11       1.0  0.5050093448967417  0.29240402160882434  0.5791322918752755  1.0000
  C   C12       1.0  0.500329290824908  0.3836102086676121  0.7642977565340984  1.0000
  C   C13       1.0  0.49686265020385195  0.15448483433385715  0.5409892424204727  1.0000
  C   C14       1.0  0.5030936746226333  0.20760194909168206  0.4878769323147978  1.0000
  C   C15       1.0  0.4965510766969885  0.9299284538309466  0.7110553025933442  1.0000
  C   C16       1.0  0.5034659822056183  0.7368057916278374  0.6144935334420649  1.0000
  C   C17       1.0  0.4949364436400643  0.8800428376840302  0.7542409996877238  1.0000
  C   C18       1.0  0.4997106976222059  0.7859794475815179  0.569023422373867  1.0000
  C   C19       1.0  0.5050145856006693  0.7867273774646506  0.7075959859275329  1.0000
  C   C20       1.0  0.5003278096176159  0.8806901593313015  0.616390727146168  1.0000
  C   C21       1.0  0.4968642303176197  0.8865018953488573  0.8455142314054314  1.0000
  C   C22       1.0  0.5030971657583337  0.7802737649846775  0.7923965346154416  1.0000
  C   C23       1.0  0.4965511916672727  0.28112934882803126  0.07007291541653154  1.0000
  C   C24       1.0  0.5034637917438687  0.3776908662676988  0.26319435271742  1.0000
  C   C25       1.0  0.49492459521021465  0.37419912792324783  0.1199576567525965  1.0000
  C   C26       1.0  0.499710516149662  0.2830456429724677  0.21402247983940723  1.0000
  C   C27       1.0  0.505001623396332  0.420869057418237  0.2132724159978068  1.0000
  C   C28       1.0  0.5003287589518095  0.23570167678167311  0.11931179570301245  1.0000
  C   C29       1.0  0.4968612252517985  0.4590119895949912  0.1134954968802048  1.0000
  C   C30       1.0  0.5030854549308543  0.5121237620708143  0.21972356876108273  1.0000
  Cl  Cl1       1.0  0.5077598913055041  0.5463504828021968  0.7759492101637091  1.0000
  Cl  Cl2       1.0  0.4922459881257027  0.44254698394718156  0.879665327411466  1.0000
  Cl  Cl3       1.0  0.5077593007493348  0.7296004415789599  0.4536498285091851  1.0000
  Cl  Cl4       1.0  0.4922465067687298  0.937119477486924  0.5574528098837348  1.0000
  Cl  Cl5       1.0  0.5077620889622522  0.22405285798107843  0.2704029654099854  1.0000
  Cl  Cl6       1.0  0.4922443353432513  0.1203351625680185  0.0628837461342755  1.0000
  O   O1        1.0  0.7285224037448259  0.5983575984104023  0.5850302080442872  1.0000
  O   O2        1.0  0.7285365149526515  0.48667293428577096  0.40163931397001557  1.0000
  O   O3        1.0  0.7285176177447994  0.4149723342711624  0.5133258218875127  1.0000
  O   O4        1.0  0.2569625410622791  0.5979954769672985  0.5133427270529153  1.0000
  O   O5        1.0  0.25695140541006367  0.4866576645881509  0.5846534245333501  1.0000
  O   O6        1.0  0.256973089622143  0.41535043480523365  0.40200675143069015  1.0000
  O   O7        1.0  0.7430003922808838  0.17992950059407062  0.9312606662070806  1.0000
  O   O8        1.0  0.7430044075019426  0.2513317990734761  0.8200721399654681  1.0000
  O   O9        1.0  0.7430021000698022  0.06873999766327887  0.7486678956666565  1.0000
  O   O10       1.0  0.271415163757851  0.2516722850942799  0.9316800265896177  1.0000
  O   O11       1.0  0.2714133178590998  0.06832081289601177  0.8199928657275422  1.0000
  O   O12       1.0  0.271414542035565  0.18000719141689805  0.7483289594624054  1.0000
